MODEL        1
REMARK 921   NORMALIZED FREE ENERGY PREDICTED BY IDOCK:   -9.15 KCAL/MOL
REMARK 922        TOTAL FREE ENERGY PREDICTED BY IDOCK:  -11.64 KCAL/MOL
REMARK 923 INTER-LIGAND FREE ENERGY PREDICTED BY IDOCK:  -10.75 KCAL/MOL
REMARK 924 INTRA-LIGAND FREE ENERGY PREDICTED BY IDOCK:   -0.89 KCAL/MOL
REMARK 927      BINDING AFFINITY PREDICTED BY RF-SCORE:    0.00 PKD
ROOT
HETATM    1  C   UNL     1      -8.633  17.247  66.819  1.00  0.00    -0.275 C  
HETATM    2  C   UNL     1      -9.353  16.147  67.604  1.00  0.00    -0.214 C  
HETATM    3  O   UNL     1     -10.493  15.754  66.817  1.00  0.00    -0.295 OA 
HETATM    4  C   UNL     1     -11.401  14.870  67.462  1.00  0.00    -0.342 C  
HETATM    5  H1  UNL     1     -10.443  16.656  71.576  1.00  0.00     0.000 HD 
HETATM    6  C   UNL     1     -11.891  15.452  68.788  1.00  0.00    -0.339 C  
HETATM    7  C   UNL     1     -10.729  15.748  69.736  1.00  0.00    -0.316 C  
HETATM    8  H   UNL     1     -10.337  18.275  69.937  1.00  0.00     0.000 HD 
HETATM    9  H2  UNL     1     -11.968  15.946  71.408  1.00  0.00     0.000 HD 
HETATM   10  N   UNL     1     -11.219  16.458  70.943  1.00  0.00    -0.263 NA 
HETATM   11  C   UNL     1      -9.673  16.623  69.040  1.00  0.00    -0.260 C  
HETATM   12  O   UNL     1     -10.140  17.982  69.055  1.00  0.00    -0.377 OA 
ENDROOT
BRANCH   4  13
HETATM   13  O   UNL     1     -10.875  13.559  67.657  1.00  0.00    -0.254 OA 
BRANCH  13  14
HETATM   14  C   UNL     1     -11.748  12.431  67.429  1.00  0.00    -0.347 C  
HETATM   15  C   UNL     1     -11.925  12.352  65.901  1.00  0.00    -0.434 C  
HETATM   16  C   UNL     1     -10.597  11.965  65.219  1.00  0.00    -0.275 C  
HETATM   17  C   UNL     1     -10.279  10.521  65.592  1.00  0.00    -0.315 C  
HETATM   18  O   UNL     1      -9.500  12.799  65.620  1.00  0.00    -0.454 OA 
HETATM   19  H   UNL     1      -9.460   7.174  66.868  1.00  0.00     0.000 HD 
HETATM   20  O   UNL     1      -9.677   8.049  66.569  1.00  0.00    -0.221 OA 
HETATM   21  C   UNL     1     -10.241   8.893  67.496  1.00  0.00    -0.248 A  
HETATM   22  C   UNL     1     -10.563  10.188  67.054  1.00  0.00    -0.290 A  
HETATM   23  H   UNL     1      -8.682  12.561  65.199  1.00  0.00     0.000 HD 
HETATM   24  C   UNL     1     -11.228  11.085  67.935  1.00  0.00    -0.375 A  
HETATM   25  C   UNL     1     -11.507  10.650  69.250  1.00  0.00    -0.281 A  
HETATM   26  O   UNL     1     -12.205  11.448  70.116  1.00  0.00    -0.317 OA 
HETATM   27  C   UNL     1     -11.150   9.354  69.692  1.00  0.00    -0.163 A  
HETATM   28  C   UNL     1     -11.442   8.891  71.082  1.00  0.00    -0.301 C  
HETATM   29  H   UNL     1     -12.393  11.155  71.000  1.00  0.00     0.000 HD 
HETATM   30  C   UNL     1     -11.020   7.544  71.503  1.00  0.00    -0.256 A  
HETATM   31  O   UNL     1     -12.013   9.589  71.909  1.00  0.00    -0.370 OA 
HETATM   32  C   UNL     1     -11.227   7.131  72.825  1.00  0.00    -0.314 A  
HETATM   33  C   UNL     1     -10.812   5.870  73.248  1.00  0.00    -0.291 A  
HETATM   34  C   UNL     1     -10.194   5.006  72.344  1.00  0.00    -0.254 A  
HETATM   35  C   UNL     1      -9.991   5.402  71.032  1.00  0.00    -0.261 A  
HETATM   36  C   UNL     1     -10.411   6.682  70.611  1.00  0.00    -0.253 A  
HETATM   37  C   UNL     1     -10.191   7.097  69.220  1.00  0.00    -0.190 C  
HETATM   38  C   UNL     1     -10.525   8.475  68.804  1.00  0.00    -0.208 A  
HETATM   39  O   UNL     1      -9.736   6.305  68.395  1.00  0.00    -0.123 OA 
BRANCH  16  40
HETATM   40  C   UNL     1     -10.683  12.133  63.691  1.00  0.00    -0.467 C  
HETATM   41  O   UNL     1     -11.561  12.811  63.151  1.00  0.00    -0.445 OA 
HETATM   42  C   UNL     1      -9.646  11.412  62.856  1.00  0.00    -0.366 C  
ENDBRANCH  16  40
ENDBRANCH  13  14
ENDBRANCH   4  13
TORSDOF 3
ENDMDL
MODEL        2
REMARK 921   NORMALIZED FREE ENERGY PREDICTED BY IDOCK:   -9.08 KCAL/MOL
REMARK 922        TOTAL FREE ENERGY PREDICTED BY IDOCK:  -11.56 KCAL/MOL
REMARK 923 INTER-LIGAND FREE ENERGY PREDICTED BY IDOCK:  -10.95 KCAL/MOL
REMARK 924 INTRA-LIGAND FREE ENERGY PREDICTED BY IDOCK:   -0.61 KCAL/MOL
REMARK 927      BINDING AFFINITY PREDICTED BY RF-SCORE:    0.00 PKD
ROOT
HETATM    1  C   UNL     1     -13.129  10.127  70.848  1.00  0.00    -0.412 C  
HETATM    2  C   UNL     1     -11.970  10.743  70.060  1.00  0.00    -0.347 C  
HETATM    3  O   UNL     1     -12.365  10.746  68.675  1.00  0.00    -0.430 OA 
HETATM    4  C   UNL     1     -11.346  11.109  67.752  1.00  0.00    -0.293 C  
HETATM    5  H1  UNL     1      -8.080   9.354  70.451  1.00  0.00     0.000 HD 
HETATM    6  C   UNL     1     -10.112  10.220  67.914  1.00  0.00    -0.200 C  
HETATM    7  C   UNL     1      -9.548  10.295  69.333  1.00  0.00    -0.218 C  
HETATM    8  H   UNL     1     -10.025   8.128  70.620  1.00  0.00     0.000 HD 
HETATM    9  H2  UNL     1      -7.728   9.414  68.798  1.00  0.00     0.000 HD 
HETATM   10  N   UNL     1      -8.456   9.304  69.504  1.00  0.00    -0.135 NA 
HETATM   11  C   UNL     1     -10.647  10.005  70.369  1.00  0.00    -0.280 C  
HETATM   12  O   UNL     1     -10.837   8.581  70.430  1.00  0.00    -0.228 OA 
ENDROOT
BRANCH   4  13
HETATM   13  O   UNL     1     -10.980  12.486  67.823  1.00  0.00    -0.219 OA 
BRANCH  13  14
HETATM   14  C   UNL     1      -9.896  12.948  66.989  1.00  0.00    -0.233 C  
HETATM   15  C   UNL     1     -10.379  12.753  65.540  1.00  0.00    -0.301 C  
HETATM   16  C   UNL     1     -11.552  13.705  65.224  1.00  0.00    -0.320 C  
HETATM   17  C   UNL     1     -11.008  15.130  65.204  1.00  0.00    -0.428 C  
HETATM   18  O   UNL     1     -12.610  13.626  66.191  1.00  0.00    -0.412 OA 
HETATM   19  H   UNL     1      -9.636  18.521  65.549  1.00  0.00     0.000 HD 
HETATM   20  O   UNL     1      -9.977  17.636  65.489  1.00  0.00    -0.533 OA 
HETATM   21  C   UNL     1      -9.503  16.730  66.408  1.00  0.00    -0.282 A  
HETATM   22  C   UNL     1     -10.008  15.421  66.319  1.00  0.00    -0.308 A  
HETATM   23  H   UNL     1     -13.332  14.213  65.996  1.00  0.00     0.000 HD 
HETATM   24  C   UNL     1      -9.498  14.412  67.182  1.00  0.00    -0.225 A  
HETATM   25  C   UNL     1      -8.520  14.776  68.134  1.00  0.00    -0.149 A  
HETATM   26  O   UNL     1      -7.946  13.832  68.942  1.00  0.00    -0.292 OA 
HETATM   27  C   UNL     1      -8.043  16.104  68.235  1.00  0.00    -0.153 A  
HETATM   28  C   UNL     1      -7.010  16.494  69.241  1.00  0.00    -0.227 C  
HETATM   29  H   UNL     1      -7.289  14.076  69.582  1.00  0.00     0.000 HD 
HETATM   30  C   UNL     1      -6.570  17.897  69.327  1.00  0.00    -0.235 A  
HETATM   31  O   UNL     1      -6.510  15.695  70.023  1.00  0.00    -0.162 OA 
HETATM   32  C   UNL     1      -5.657  18.281  70.316  1.00  0.00    -0.229 A  
HETATM   33  C   UNL     1      -5.248  19.609  70.428  1.00  0.00    -0.231 A  
HETATM   34  C   UNL     1      -5.746  20.563  69.540  1.00  0.00    -0.395 A  
HETATM   35  C   UNL     1      -6.646  20.191  68.554  1.00  0.00    -0.337 A  
HETATM   36  C   UNL     1      -7.057  18.845  68.448  1.00  0.00    -0.295 A  
HETATM   37  C   UNL     1      -8.013  18.459  67.402  1.00  0.00    -0.238 C  
HETATM   38  C   UNL     1      -8.533  17.076  67.358  1.00  0.00    -0.208 A  
HETATM   39  O   UNL     1      -8.379  19.274  66.557  1.00  0.00    -0.291 OA 
BRANCH  16  40
HETATM   40  C   UNL     1     -12.215  13.349  63.882  1.00  0.00    -0.415 C  
HETATM   41  O   UNL     1     -12.592  14.210  63.084  1.00  0.00    -0.686 OA 
HETATM   42  C   UNL     1     -12.409  11.879  63.574  1.00  0.00    -0.603 C  
ENDBRANCH  16  40
ENDBRANCH  13  14
ENDBRANCH   4  13
TORSDOF 3
ENDMDL
MODEL        3
REMARK 921   NORMALIZED FREE ENERGY PREDICTED BY IDOCK:   -8.94 KCAL/MOL
REMARK 922        TOTAL FREE ENERGY PREDICTED BY IDOCK:  -11.40 KCAL/MOL
REMARK 923 INTER-LIGAND FREE ENERGY PREDICTED BY IDOCK:  -10.50 KCAL/MOL
REMARK 924 INTRA-LIGAND FREE ENERGY PREDICTED BY IDOCK:   -0.89 KCAL/MOL
REMARK 927      BINDING AFFINITY PREDICTED BY RF-SCORE:    0.00 PKD
ROOT
HETATM    1  C   UNL     1     -10.461  17.532  65.812  1.00  0.00    -0.212 C  
HETATM    2  C   UNL     1      -9.935  16.344  66.620  1.00  0.00    -0.272 C  
HETATM    3  O   UNL     1     -11.032  15.868  67.423  1.00  0.00    -0.318 OA 
HETATM    4  C   UNL     1     -10.697  14.880  68.388  1.00  0.00    -0.245 C  
HETATM    5  H1  UNL     1      -6.483  16.615  68.909  1.00  0.00     0.000 HD 
HETATM    6  C   UNL     1      -9.582  15.369  69.314  1.00  0.00    -0.268 C  
HETATM    7  C   UNL     1      -8.325  15.744  68.530  1.00  0.00    -0.175 C  
HETATM    8  H   UNL     1      -8.008  18.289  68.476  1.00  0.00     0.000 HD 
HETATM    9  H2  UNL     1      -7.109  15.768  70.232  1.00  0.00     0.000 HD 
HETATM   10  N   UNL     1      -7.323  16.364  69.433  1.00  0.00    -0.211 NA 
HETATM   11  C   UNL     1      -8.663  16.739  67.407  1.00  0.00    -0.191 C  
HETATM   12  O   UNL     1      -8.789  18.046  67.993  1.00  0.00    -0.262 OA 
ENDROOT
BRANCH   4  13
HETATM   13  O   UNL     1     -10.353  13.620  67.817  1.00  0.00    -0.235 OA 
BRANCH  13  14
HETATM   14  C   UNL     1     -11.398  12.640  67.644  1.00  0.00    -0.310 C  
HETATM   15  C   UNL     1     -11.722  12.646  66.139  1.00  0.00    -0.461 C  
HETATM   16  C   UNL     1     -10.532  12.100  65.323  1.00  0.00    -0.276 C  
HETATM   17  C   UNL     1     -10.396  10.612  65.627  1.00  0.00    -0.285 C  
HETATM   18  O   UNL     1      -9.294  12.752  65.639  1.00  0.00    -0.459 OA 
HETATM   19  H   UNL     1      -9.964   7.134  66.734  1.00  0.00     0.000 HD 
HETATM   20  O   UNL     1     -10.078   8.042  66.479  1.00  0.00    -0.260 OA 
HETATM   21  C   UNL     1     -10.426   8.922  67.477  1.00  0.00    -0.269 A  
HETATM   22  C   UNL     1     -10.593  10.266  67.101  1.00  0.00    -0.320 A  
HETATM   23  H   UNL     1      -8.561  12.416  65.136  1.00  0.00     0.000 HD 
HETATM   24  C   UNL     1     -11.037  11.214  68.064  1.00  0.00    -0.334 A  
HETATM   25  C   UNL     1     -11.257  10.772  69.387  1.00  0.00    -0.276 A  
HETATM   26  O   UNL     1     -11.749  11.627  70.336  1.00  0.00    -0.458 OA 
HETATM   27  C   UNL     1     -11.055   9.423  69.761  1.00  0.00    -0.193 A  
HETATM   28  C   UNL     1     -11.285   8.952  71.159  1.00  0.00    -0.284 C  
HETATM   29  H   UNL     1     -11.897  11.330  71.226  1.00  0.00     0.000 HD 
HETATM   30  C   UNL     1     -11.028   7.543  71.504  1.00  0.00    -0.256 A  
HETATM   31  O   UNL     1     -11.670   9.692  72.055  1.00  0.00    -0.282 OA 
HETATM   32  C   UNL     1     -11.173   7.112  72.829  1.00  0.00    -0.314 A  
HETATM   33  C   UNL     1     -10.911   5.789  73.178  1.00  0.00    -0.310 A  
HETATM   34  C   UNL     1     -10.510   4.882  72.197  1.00  0.00    -0.257 A  
HETATM   35  C   UNL     1     -10.371   5.296  70.882  1.00  0.00    -0.303 A  
HETATM   36  C   UNL     1     -10.635   6.638  70.537  1.00  0.00    -0.270 A  
HETATM   37  C   UNL     1     -10.483   7.072  69.141  1.00  0.00    -0.207 C  
HETATM   38  C   UNL     1     -10.648   8.498  68.795  1.00  0.00    -0.162 A  
HETATM   39  O   UNL     1     -10.225   6.255  68.258  1.00  0.00    -0.141 OA 
BRANCH  16  40
HETATM   40  C   UNL     1     -10.731  12.338  63.815  1.00  0.00    -0.449 C  
HETATM   41  O   UNL     1      -9.841  12.118  62.990  1.00  0.00    -0.365 OA 
HETATM   42  C   UNL     1     -12.075  12.877  63.371  1.00  0.00    -0.610 C  
ENDBRANCH  16  40
ENDBRANCH  13  14
ENDBRANCH   4  13
TORSDOF 3
ENDMDL
MODEL        4
REMARK 921   NORMALIZED FREE ENERGY PREDICTED BY IDOCK:   -8.80 KCAL/MOL
REMARK 922        TOTAL FREE ENERGY PREDICTED BY IDOCK:  -11.23 KCAL/MOL
REMARK 923 INTER-LIGAND FREE ENERGY PREDICTED BY IDOCK:  -10.57 KCAL/MOL
REMARK 924 INTRA-LIGAND FREE ENERGY PREDICTED BY IDOCK:   -0.66 KCAL/MOL
REMARK 927      BINDING AFFINITY PREDICTED BY RF-SCORE:    0.00 PKD
ROOT
HETATM    1  C   UNL     1     -11.300  16.164  64.543  1.00  0.00    -0.273 C  
HETATM    2  C   UNL     1     -10.513  15.407  65.616  1.00  0.00    -0.372 C  
HETATM    3  O   UNL     1     -11.413  15.197  66.721  1.00  0.00    -0.303 OA 
HETATM    4  C   UNL     1     -10.816  14.672  67.900  1.00  0.00    -0.259 C  
HETATM    5  H1  UNL     1      -6.833  16.751  66.982  1.00  0.00     0.000 HD 
HETATM    6  C   UNL     1      -9.652  15.547  68.367  1.00  0.00    -0.199 C  
HETATM    7  C   UNL     1      -8.581  15.682  67.285  1.00  0.00    -0.192 C  
HETATM    8  H   UNL     1      -8.609  18.033  66.260  1.00  0.00     0.000 HD 
HETATM    9  H2  UNL     1      -7.146  16.427  68.612  1.00  0.00     0.000 HD 
HETATM   10  N   UNL     1      -7.548  16.662  67.705  1.00  0.00    -0.149 NA 
HETATM   11  C   UNL     1      -9.204  16.154  65.961  1.00  0.00    -0.328 C  
HETATM   12  O   UNL     1      -9.413  17.574  66.048  1.00  0.00    -0.475 OA 
ENDROOT
BRANCH   4  13
HETATM   13  O   UNL     1     -10.397  13.315  67.769  1.00  0.00    -0.226 OA 
BRANCH  13  14
HETATM   14  C   UNL     1     -11.411  12.299  67.616  1.00  0.00    -0.336 C  
HETATM   15  C   UNL     1     -11.706  12.237  66.106  1.00  0.00    -0.440 C  
HETATM   16  C   UNL     1     -10.485  11.694  65.334  1.00  0.00    -0.275 C  
HETATM   17  C   UNL     1     -10.313  10.223  65.700  1.00  0.00    -0.232 C  
HETATM   18  O   UNL     1      -9.272  12.393  65.647  1.00  0.00    -0.438 OA 
HETATM   19  H   UNL     1      -9.805   6.806  66.951  1.00  0.00     0.000 HD 
HETATM   20  O   UNL     1      -9.939   7.699  66.659  1.00  0.00    -0.232 OA 
HETATM   21  C   UNL     1     -10.331   8.607  67.614  1.00  0.00    -0.254 A  
HETATM   22  C   UNL     1     -10.529   9.930  67.182  1.00  0.00    -0.305 A  
HETATM   23  H   UNL     1      -8.520  12.059  65.172  1.00  0.00     0.000 HD 
HETATM   24  C   UNL     1     -11.018  10.902  68.098  1.00  0.00    -0.302 A  
HETATM   25  C   UNL     1     -11.252  10.506  69.434  1.00  0.00    -0.269 A  
HETATM   26  O   UNL     1     -11.786  11.383  70.339  1.00  0.00    -0.387 OA 
HETATM   27  C   UNL     1     -11.018   9.178  69.865  1.00  0.00    -0.218 A  
HETATM   28  C   UNL     1     -11.262   8.756  71.276  1.00  0.00    -0.284 C  
HETATM   29  H   UNL     1     -11.943  11.116  71.237  1.00  0.00     0.000 HD 
HETATM   30  C   UNL     1     -10.973   7.369  71.681  1.00  0.00    -0.252 A  
HETATM   31  O   UNL     1     -11.686   9.519  72.135  1.00  0.00    -0.239 OA 
HETATM   32  C   UNL     1     -11.131   6.987  73.019  1.00  0.00    -0.295 A  
HETATM   33  C   UNL     1     -10.839   5.687  73.426  1.00  0.00    -0.315 A  
HETATM   34  C   UNL     1     -10.393   4.754  72.489  1.00  0.00    -0.259 A  
HETATM   35  C   UNL     1     -10.240   5.120  71.161  1.00  0.00    -0.291 A  
HETATM   36  C   UNL     1     -10.536   6.439  70.758  1.00  0.00    -0.270 A  
HETATM   37  C   UNL     1     -10.369   6.822  69.349  1.00  0.00    -0.199 C  
HETATM   38  C   UNL     1     -10.567   8.229  68.943  1.00  0.00    -0.160 A  
HETATM   39  O   UNL     1     -10.071   5.980  68.504  1.00  0.00    -0.139 OA 
BRANCH  16  40
HETATM   40  C   UNL     1     -10.661  11.867  63.815  1.00  0.00    -0.422 C  
HETATM   41  O   UNL     1      -9.805  11.501  63.006  1.00  0.00    -0.375 OA 
HETATM   42  C   UNL     1     -11.936  12.529  63.337  1.00  0.00    -0.602 C  
ENDBRANCH  16  40
ENDBRANCH  13  14
ENDBRANCH   4  13
TORSDOF 3
ENDMDL
MODEL        5
REMARK 921   NORMALIZED FREE ENERGY PREDICTED BY IDOCK:   -8.68 KCAL/MOL
REMARK 922        TOTAL FREE ENERGY PREDICTED BY IDOCK:  -11.08 KCAL/MOL
REMARK 923 INTER-LIGAND FREE ENERGY PREDICTED BY IDOCK:  -10.38 KCAL/MOL
REMARK 924 INTRA-LIGAND FREE ENERGY PREDICTED BY IDOCK:   -0.70 KCAL/MOL
REMARK 927      BINDING AFFINITY PREDICTED BY RF-SCORE:    0.00 PKD
ROOT
HETATM    1  C   UNL     1     -10.135  17.077  66.232  1.00  0.00    -0.330 C  
HETATM    2  C   UNL     1     -10.729  15.669  66.145  1.00  0.00    -0.303 C  
HETATM    3  O   UNL     1      -9.619  14.750  66.132  1.00  0.00    -0.287 OA 
HETATM    4  C   UNL     1      -9.955  13.394  65.867  1.00  0.00    -0.277 C  
HETATM    5  H1  UNL     1     -13.493  14.638  63.227  1.00  0.00     0.000 HD 
HETATM    6  C   UNL     1     -10.723  13.263  64.551  1.00  0.00    -0.428 C  
HETATM    7  C   UNL     1     -12.003  14.099  64.561  1.00  0.00    -0.458 C  
HETATM    8  H   UNL     1     -11.763  16.152  63.041  1.00  0.00     0.000 HD 
HETATM    9  H2  UNL     1     -12.807  13.129  62.892  1.00  0.00     0.000 HD 
HETATM   10  N   UNL     1     -12.639  14.080  63.220  1.00  0.00    -0.650 NA 
HETATM   11  C   UNL     1     -11.695  15.556  64.942  1.00  0.00    -0.118 C  
HETATM   12  O   UNL     1     -11.171  16.221  63.780  1.00  0.00    -0.608 OA 
ENDROOT
BRANCH   4  13
HETATM   13  O   UNL     1     -10.675  12.769  66.927  1.00  0.00    -0.249 OA 
BRANCH  13  14
HETATM   14  C   UNL     1     -10.005  12.587  68.193  1.00  0.00    -0.224 C  
HETATM   15  C   UNL     1     -10.291  13.870  68.996  1.00  0.00    -0.108 C  
HETATM   16  C   UNL     1     -11.788  13.967  69.354  1.00  0.00    -0.333 C  
HETATM   17  C   UNL     1     -12.104  12.867  70.362  1.00  0.00    -0.385 C  
HETATM   18  O   UNL     1     -12.645  13.810  68.213  1.00  0.00    -0.259 OA 
HETATM   19  H   UNL     1     -12.792   9.955  72.495  1.00  0.00     0.000 HD 
HETATM   20  O   UNL     1     -12.599  10.688  71.922  1.00  0.00    -0.361 OA 
HETATM   21  C   UNL     1     -11.719  10.449  70.892  1.00  0.00    -0.360 A  
HETATM   22  C   UNL     1     -11.433  11.533  70.045  1.00  0.00    -0.304 A  
HETATM   23  H   UNL     1     -13.567  13.870  68.434  1.00  0.00     0.000 HD 
HETATM   24  C   UNL     1     -10.466  11.382  69.013  1.00  0.00    -0.196 A  
HETATM   25  C   UNL     1      -9.852  10.120  68.851  1.00  0.00    -0.189 A  
HETATM   26  O   UNL     1      -8.866   9.937  67.918  1.00  0.00    -0.128 OA 
HETATM   27  C   UNL     1     -10.172   9.027  69.690  1.00  0.00    -0.211 A  
HETATM   28  C   UNL     1      -9.526   7.691  69.521  1.00  0.00    -0.152 C  
HETATM   29  H   UNL     1      -8.454   9.089  67.809  1.00  0.00     0.000 HD 
HETATM   30  C   UNL     1      -9.918   6.577  70.402  1.00  0.00    -0.202 A  
HETATM   31  O   UNL     1      -8.681   7.465  68.665  1.00  0.00    -0.128 OA 
HETATM   32  C   UNL     1      -9.369   5.304  70.201  1.00  0.00    -0.202 A  
HETATM   33  C   UNL     1      -9.746   4.232  71.007  1.00  0.00    -0.260 A  
HETATM   34  C   UNL     1     -10.672   4.430  72.031  1.00  0.00     0.034 A  
HETATM   35  C   UNL     1     -11.216   5.687  72.243  1.00  0.00    -0.317 A  
HETATM   36  C   UNL     1     -10.831   6.767  71.420  1.00  0.00    -0.269 A  
HETATM   37  C   UNL     1     -11.414   8.096  71.648  1.00  0.00    -0.274 C  
HETATM   38  C   UNL     1     -11.101   9.203  70.719  1.00  0.00    -0.336 A  
HETATM   39  O   UNL     1     -12.155   8.298  72.608  1.00  0.00    -0.384 OA 
BRANCH  16  40
HETATM   40  C   UNL     1     -12.139  15.353  69.923  1.00  0.00    -0.355 C  
HETATM   41  O   UNL     1     -11.525  16.373  69.600  1.00  0.00    -0.260 OA 
HETATM   42  C   UNL     1     -13.273  15.424  70.924  1.00  0.00    -0.512 C  
ENDBRANCH  16  40
ENDBRANCH  13  14
ENDBRANCH   4  13
TORSDOF 3
ENDMDL
MODEL        6
REMARK 921   NORMALIZED FREE ENERGY PREDICTED BY IDOCK:   -8.39 KCAL/MOL
REMARK 922        TOTAL FREE ENERGY PREDICTED BY IDOCK:  -10.75 KCAL/MOL
REMARK 923 INTER-LIGAND FREE ENERGY PREDICTED BY IDOCK:   -9.95 KCAL/MOL
REMARK 924 INTRA-LIGAND FREE ENERGY PREDICTED BY IDOCK:   -0.80 KCAL/MOL
REMARK 927      BINDING AFFINITY PREDICTED BY RF-SCORE:    0.00 PKD
ROOT
HETATM    1  C   UNL     1     -13.031  15.278  70.610  1.00  0.00    -0.442 C  
HETATM    2  C   UNL     1     -12.034  15.100  69.462  1.00  0.00    -0.321 C  
HETATM    3  O   UNL     1     -11.275  13.911  69.751  1.00  0.00    -0.199 OA 
HETATM    4  C   UNL     1     -10.165  13.674  68.895  1.00  0.00    -0.077 C  
HETATM    5  H1  UNL     1      -9.512  18.170  68.264  1.00  0.00     0.000 HD 
HETATM    6  C   UNL     1      -9.217  14.874  68.875  1.00  0.00    -0.192 C  
HETATM    7  C   UNL     1      -9.933  16.147  68.421  1.00  0.00    -0.230 C  
HETATM    8  H   UNL     1     -10.285  17.747  70.395  1.00  0.00     0.000 HD 
HETATM    9  H2  UNL     1      -8.150  17.185  68.077  1.00  0.00     0.000 HD 
HETATM   10  N   UNL     1      -9.034  17.320  68.567  1.00  0.00    -0.268 NA 
HETATM   11  C   UNL     1     -11.198  16.386  69.261  1.00  0.00    -0.272 C  
HETATM   12  O   UNL     1     -10.799  16.958  70.518  1.00  0.00    -0.014 OA 
ENDROOT
BRANCH   4  13
HETATM   13  O   UNL     1     -10.538  13.313  67.567  1.00  0.00    -0.242 OA 
BRANCH  13  14
HETATM   14  C   UNL     1     -11.504  12.253  67.393  1.00  0.00    -0.352 C  
HETATM   15  C   UNL     1     -11.762  12.178  65.877  1.00  0.00    -0.393 C  
HETATM   16  C   UNL     1     -10.503  11.689  65.133  1.00  0.00    -0.279 C  
HETATM   17  C   UNL     1     -10.276  10.227  65.504  1.00  0.00    -0.308 C  
HETATM   18  O   UNL     1      -9.328  12.440  65.472  1.00  0.00    -0.437 OA 
HETATM   19  H   UNL     1      -9.649   6.834  66.769  1.00  0.00     0.000 HD 
HETATM   20  O   UNL     1      -9.814   7.721  66.473  1.00  0.00    -0.221 OA 
HETATM   21  C   UNL     1     -10.266   8.612  67.419  1.00  0.00    -0.262 A  
HETATM   22  C   UNL     1     -10.511   9.924  66.981  1.00  0.00    -0.296 A  
HETATM   23  H   UNL     1      -8.552  12.138  65.013  1.00  0.00     0.000 HD 
HETATM   24  C   UNL     1     -11.062  10.875  67.885  1.00  0.00    -0.362 A  
HETATM   25  C   UNL     1     -11.307  10.469  69.216  1.00  0.00    -0.262 A  
HETATM   26  O   UNL     1     -11.899  11.322  70.108  1.00  0.00    -0.310 OA 
HETATM   27  C   UNL     1     -11.027   9.153  69.653  1.00  0.00    -0.168 A  
HETATM   28  C   UNL     1     -11.283   8.721  71.059  1.00  0.00    -0.273 C  
HETATM   29  H   UNL     1     -12.064  11.050  71.003  1.00  0.00     0.000 HD 
HETATM   30  C   UNL     1     -10.944   7.348  71.472  1.00  0.00    -0.255 A  
HETATM   31  O   UNL     1     -11.758   9.465  71.908  1.00  0.00    -0.374 OA 
HETATM   32  C   UNL     1     -11.114   6.959  72.807  1.00  0.00    -0.304 A  
HETATM   33  C   UNL     1     -10.775   5.673  73.221  1.00  0.00    -0.304 A  
HETATM   34  C   UNL     1     -10.269   4.760  72.295  1.00  0.00    -0.252 A  
HETATM   35  C   UNL     1     -10.103   5.132  70.971  1.00  0.00    -0.297 A  
HETATM   36  C   UNL     1     -10.446   6.438  70.560  1.00  0.00    -0.270 A  
HETATM   37  C   UNL     1     -10.265   6.827  69.155  1.00  0.00    -0.181 C  
HETATM   38  C   UNL     1     -10.515   8.224  68.743  1.00  0.00    -0.200 A  
HETATM   39  O   UNL     1      -9.913   5.998  68.317  1.00  0.00    -0.132 OA 
BRANCH  16  40
HETATM   40  C   UNL     1     -10.652  11.854  63.610  1.00  0.00    -0.446 C  
HETATM   41  O   UNL     1     -11.543  12.541  63.106  1.00  0.00    -0.419 OA 
HETATM   42  C   UNL     1      -9.661  11.117  62.733  1.00  0.00    -0.334 C  
ENDBRANCH  16  40
ENDBRANCH  13  14
ENDBRANCH   4  13
TORSDOF 3
ENDMDL
MODEL        7
REMARK 921   NORMALIZED FREE ENERGY PREDICTED BY IDOCK:   -8.30 KCAL/MOL
REMARK 922        TOTAL FREE ENERGY PREDICTED BY IDOCK:  -10.65 KCAL/MOL
REMARK 923 INTER-LIGAND FREE ENERGY PREDICTED BY IDOCK:   -9.93 KCAL/MOL
REMARK 924 INTRA-LIGAND FREE ENERGY PREDICTED BY IDOCK:   -0.71 KCAL/MOL
REMARK 927      BINDING AFFINITY PREDICTED BY RF-SCORE:    0.00 PKD
ROOT
HETATM    1  C   UNL     1      -9.475   5.818  70.523  1.00  0.00    -0.201 C  
HETATM    2  C   UNL     1      -9.486   6.100  69.018  1.00  0.00    -0.127 C  
HETATM    3  O   UNL     1     -10.823   6.522  68.685  1.00  0.00    -0.251 OA 
HETATM    4  C   UNL     1     -11.090   6.653  67.295  1.00  0.00    -0.345 C  
HETATM    5  H1  UNL     1      -8.121   3.314  66.263  1.00  0.00     0.000 HD 
HETATM    6  C   UNL     1     -10.780   5.356  66.548  1.00  0.00    -0.309 C  
HETATM    7  C   UNL     1      -9.322   4.934  66.736  1.00  0.00    -0.138 C  
HETATM    8  H   UNL     1      -9.155   2.893  68.280  1.00  0.00     0.000 HD 
HETATM    9  H2  UNL     1      -9.377   3.562  65.158  1.00  0.00     0.000 HD 
HETATM   10  N   UNL     1      -9.094   3.595  66.137  1.00  0.00    -0.146 NA 
HETATM   11  C   UNL     1      -8.963   4.877  68.230  1.00  0.00    -0.109 C  
HETATM   12  O   UNL     1      -9.476   3.645  68.764  1.00  0.00    -0.161 OA 
ENDROOT
BRANCH   4  13
HETATM   13  O   UNL     1     -10.414   7.752  66.687  1.00  0.00    -0.292 OA 
BRANCH  13  14
HETATM   14  C   UNL     1      -9.569   8.578  67.517  1.00  0.00    -0.154 C  
HETATM   15  C   UNL     1      -8.266   8.765  66.718  1.00  0.00    -0.108 C  
HETATM   16  C   UNL     1      -8.519   9.608  65.451  1.00  0.00    -0.145 C  
HETATM   17  C   UNL     1      -8.845  11.031  65.891  1.00  0.00    -0.204 C  
HETATM   18  O   UNL     1      -9.604   9.108  64.656  1.00  0.00    -0.376 OA 
HETATM   19  H   UNL     1      -9.971  14.311  67.107  1.00  0.00     0.000 HD 
HETATM   20  O   UNL     1      -9.701  13.449  66.813  1.00  0.00    -0.247 OA 
HETATM   21  C   UNL     1     -10.164  12.378  67.541  1.00  0.00    -0.209 A  
HETATM   22  C   UNL     1      -9.765  11.102  67.107  1.00  0.00    -0.199 A  
HETATM   23  H   UNL     1      -9.760   9.628  63.876  1.00  0.00     0.000 HD 
HETATM   24  C   UNL     1     -10.135   9.956  67.863  1.00  0.00    -0.210 A  
HETATM   25  C   UNL     1     -10.932  10.141  69.014  1.00  0.00    -0.226 A  
HETATM   26  O   UNL     1     -11.259   9.081  69.816  1.00  0.00    -0.399 OA 
HETATM   27  C   UNL     1     -11.354  11.428  69.424  1.00  0.00    -0.365 A  
HETATM   28  C   UNL     1     -12.198  11.629  70.639  1.00  0.00    -0.366 C  
HETATM   29  H   UNL     1     -11.795   9.206  70.589  1.00  0.00     0.000 HD 
HETATM   30  C   UNL     1     -12.636  12.987  71.005  1.00  0.00    -0.386 A  
HETATM   31  O   UNL     1     -12.562  10.705  71.355  1.00  0.00    -0.369 OA 
HETATM   32  C   UNL     1     -13.488  13.172  72.102  1.00  0.00    -0.653 A  
HETATM   33  C   UNL     1     -13.933  14.446  72.447  1.00  0.00    -0.585 A  
HETATM   34  C   UNL     1     -13.520  15.550  71.700  1.00  0.00    -0.584 A  
HETATM   35  C   UNL     1     -12.672  15.377  70.617  1.00  0.00    -0.490 A  
HETATM   36  C   UNL     1     -12.228  14.084  70.271  1.00  0.00    -0.430 A  
HETATM   37  C   UNL     1     -11.332  13.908  69.120  1.00  0.00    -0.286 C  
HETATM   38  C   UNL     1     -10.955  12.546  68.686  1.00  0.00    -0.291 A  
HETATM   39  O   UNL     1     -10.887  14.884  68.519  1.00  0.00    -0.235 OA 
BRANCH  16  40
HETATM   40  C   UNL     1      -7.299   9.587  64.512  1.00  0.00    -0.114 C  
HETATM   41  O   UNL     1      -6.396  10.424  64.586  1.00  0.00    -0.127 OA 
HETATM   42  C   UNL     1      -7.251   8.495  63.464  1.00  0.00    -0.095 C  
ENDBRANCH  16  40
ENDBRANCH  13  14
ENDBRANCH   4  13
TORSDOF 3
ENDMDL
MODEL        8
REMARK 921   NORMALIZED FREE ENERGY PREDICTED BY IDOCK:   -7.98 KCAL/MOL
REMARK 922        TOTAL FREE ENERGY PREDICTED BY IDOCK:  -10.26 KCAL/MOL
REMARK 923 INTER-LIGAND FREE ENERGY PREDICTED BY IDOCK:   -9.91 KCAL/MOL
REMARK 924 INTRA-LIGAND FREE ENERGY PREDICTED BY IDOCK:   -0.35 KCAL/MOL
REMARK 927      BINDING AFFINITY PREDICTED BY RF-SCORE:    0.00 PKD
ROOT
HETATM    1  C   UNL     1      -9.314  10.103  64.313  1.00  0.00    -0.349 C  
HETATM    2  C   UNL     1      -9.897  11.412  64.851  1.00  0.00    -0.258 C  
HETATM    3  O   UNL     1     -10.656  11.077  66.029  1.00  0.00    -0.252 OA 
HETATM    4  C   UNL     1     -11.434  12.135  66.573  1.00  0.00    -0.369 C  
HETATM    5  H1  UNL     1     -12.056  14.000  62.430  1.00  0.00     0.000 HD 
HETATM    6  C   UNL     1     -12.381  12.720  65.524  1.00  0.00    -0.495 C  
HETATM    7  C   UNL     1     -11.617  13.241  64.306  1.00  0.00    -0.400 C  
HETATM    8  H   UNL     1     -11.963  11.701  62.285  1.00  0.00     0.000 HD 
HETATM    9  H2  UNL     1     -13.249  14.330  63.582  1.00  0.00     0.000 HD 
HETATM   10  N   UNL     1     -12.566  13.652  63.242  1.00  0.00    -0.755 NA 
HETATM   11  C   UNL     1     -10.685  12.153  63.746  1.00  0.00    -0.437 C  
HETATM   12  O   UNL     1     -11.479  11.246  62.964  1.00  0.00     0.054 OA 
ENDROOT
BRANCH   4  13
HETATM   13  O   UNL     1     -10.652  13.167  67.169  1.00  0.00    -0.255 OA 
BRANCH  13  14
HETATM   14  C   UNL     1      -9.999  12.889  68.427  1.00  0.00    -0.211 C  
HETATM   15  C   UNL     1     -10.309  14.101  69.326  1.00  0.00    -0.026 C  
HETATM   16  C   UNL     1     -11.812  14.157  69.667  1.00  0.00    -0.324 C  
HETATM   17  C   UNL     1     -12.131  12.976  70.579  1.00  0.00    -0.373 C  
HETATM   18  O   UNL     1     -12.651  14.084  68.505  1.00  0.00    -0.395 OA 
HETATM   19  H   UNL     1     -12.822   9.896  72.460  1.00  0.00     0.000 HD 
HETATM   20  O   UNL     1     -12.628  10.674  71.951  1.00  0.00    -0.361 OA 
HETATM   21  C   UNL     1     -11.731  10.527  70.919  1.00  0.00    -0.335 A  
HETATM   22  C   UNL     1     -11.443  11.678  70.166  1.00  0.00    -0.206 A  
HETATM   23  H   UNL     1     -13.577  14.118  68.716  1.00  0.00     0.000 HD 
HETATM   24  C   UNL     1     -10.460  11.618  69.140  1.00  0.00    -0.099 A  
HETATM   25  C   UNL     1      -9.831  10.378  68.886  1.00  0.00    -0.200 A  
HETATM   26  O   UNL     1      -8.831  10.280  67.957  1.00  0.00    -0.121 OA 
HETATM   27  C   UNL     1     -10.153   9.218  69.630  1.00  0.00    -0.208 A  
HETATM   28  C   UNL     1      -9.492   7.906  69.364  1.00  0.00    -0.156 C  
HETATM   29  H   UNL     1      -8.409   9.447  67.786  1.00  0.00     0.000 HD 
HETATM   30  C   UNL     1      -9.886   6.721  70.146  1.00  0.00    -0.187 A  
HETATM   31  O   UNL     1      -8.632   7.757  68.505  1.00  0.00    -0.128 OA 
HETATM   32  C   UNL     1      -9.322   5.474  69.852  1.00  0.00    -0.186 A  
HETATM   33  C   UNL     1      -9.700   4.337  70.564  1.00  0.00    -0.282 A  
HETATM   34  C   UNL     1     -10.643   4.445  71.587  1.00  0.00     0.068 A  
HETATM   35  C   UNL     1     -11.202   5.676  71.890  1.00  0.00    -0.246 A  
HETATM   36  C   UNL     1     -10.816   6.822  71.163  1.00  0.00    -0.275 A  
HETATM   37  C   UNL     1     -11.414   8.123  71.487  1.00  0.00    -0.267 C  
HETATM   38  C   UNL     1     -11.099   9.303  70.656  1.00  0.00    -0.335 A  
HETATM   39  O   UNL     1     -12.171   8.241  72.450  1.00  0.00    -0.361 OA 
BRANCH  16  40
HETATM   40  C   UNL     1     -12.184  15.489  70.341  1.00  0.00    -0.406 C  
HETATM   41  O   UNL     1     -11.536  16.523  70.161  1.00  0.00    -0.190 OA 
HETATM   42  C   UNL     1     -13.386  15.487  71.263  1.00  0.00    -0.588 C  
ENDBRANCH  16  40
ENDBRANCH  13  14
ENDBRANCH   4  13
TORSDOF 3
ENDMDL
MODEL        9
REMARK 921   NORMALIZED FREE ENERGY PREDICTED BY IDOCK:   -7.90 KCAL/MOL
REMARK 922        TOTAL FREE ENERGY PREDICTED BY IDOCK:  -10.18 KCAL/MOL
REMARK 923 INTER-LIGAND FREE ENERGY PREDICTED BY IDOCK:   -9.59 KCAL/MOL
REMARK 924 INTRA-LIGAND FREE ENERGY PREDICTED BY IDOCK:   -0.59 KCAL/MOL
REMARK 927      BINDING AFFINITY PREDICTED BY RF-SCORE:    0.00 PKD
ROOT
HETATM    1  C   UNL     1     -11.659   9.093  71.192  1.00  0.00    -0.386 C  
HETATM    2  C   UNL     1     -10.644   9.841  70.324  1.00  0.00    -0.292 C  
HETATM    3  O   UNL     1     -11.040   9.639  68.953  1.00  0.00    -0.170 OA 
HETATM    4  C   UNL     1     -10.115  10.102  67.978  1.00  0.00    -0.157 C  
HETATM    5  H1  UNL     1      -6.557   9.259  70.747  1.00  0.00     0.000 HD 
HETATM    6  C   UNL     1      -8.733   9.482  68.191  1.00  0.00    -0.120 C  
HETATM    7  C   UNL     1      -8.185   9.795  69.583  1.00  0.00    -0.157 C  
HETATM    8  H   UNL     1      -8.231   7.707  71.072  1.00  0.00     0.000 HD 
HETATM    9  H2  UNL     1      -6.233   9.230  69.088  1.00  0.00     0.000 HD 
HETATM   10  N   UNL     1      -6.923   9.050  69.818  1.00  0.00    -0.052 NA 
HETATM   11  C   UNL     1      -9.202   9.400  70.667  1.00  0.00    -0.242 C  
HETATM   12  O   UNL     1      -9.116   7.978  70.861  1.00  0.00    -0.144 OA 
ENDROOT
BRANCH   4  13
HETATM   13  O   UNL     1     -10.019  11.523  67.914  1.00  0.00    -0.176 OA 
BRANCH  13  14
HETATM   14  C   UNL     1      -9.019  12.102  67.048  1.00  0.00    -0.201 C  
HETATM   15  C   UNL     1      -9.432  11.701  65.620  1.00  0.00    -0.228 C  
HETATM   16  C   UNL     1     -10.750  12.395  65.218  1.00  0.00    -0.287 C  
HETATM   17  C   UNL     1     -10.471  13.888  65.077  1.00  0.00    -0.428 C  
HETATM   18  O   UNL     1     -11.795  12.208  66.184  1.00  0.00    -0.543 OA 
HETATM   19  H   UNL     1      -9.739  17.488  65.134  1.00  0.00     0.000 HD 
HETATM   20  O   UNL     1      -9.914  16.555  65.149  1.00  0.00    -0.481 OA 
HETATM   21  C   UNL     1      -9.303  15.830  66.145  1.00  0.00    -0.346 A  
HETATM   22  C   UNL     1      -9.562  14.449  66.167  1.00  0.00    -0.309 A  
HETATM   23  H   UNL     1     -12.607  12.636  65.936  1.00  0.00     0.000 HD 
HETATM   24  C   UNL     1      -8.895  13.624  67.115  1.00  0.00    -0.237 A  
HETATM   25  C   UNL     1      -8.017  14.238  68.037  1.00  0.00    -0.142 A  
HETATM   26  O   UNL     1      -7.299  13.485  68.925  1.00  0.00    -0.146 OA 
HETATM   27  C   UNL     1      -7.789  15.635  68.025  1.00  0.00    -0.135 A  
HETATM   28  C   UNL     1      -6.864  16.288  68.998  1.00  0.00    -0.182 C  
HETATM   29  H   UNL     1      -6.709  13.898  69.545  1.00  0.00     0.000 HD 
HETATM   30  C   UNL     1      -6.685  17.750  68.963  1.00  0.00    -0.246 A  
HETATM   31  O   UNL     1      -6.243  15.662  69.847  1.00  0.00    -0.157 OA 
HETATM   32  C   UNL     1      -5.875  18.375  69.920  1.00  0.00    -0.236 A  
HETATM   33  C   UNL     1      -5.714  19.759  69.918  1.00  0.00    -0.304 A  
HETATM   34  C   UNL     1      -6.359  20.529  68.950  1.00  0.00    -0.296 A  
HETATM   35  C   UNL     1      -7.157  19.919  67.995  1.00  0.00    -0.319 A  
HETATM   36  C   UNL     1      -7.318  18.517  68.004  1.00  0.00    -0.261 A  
HETATM   37  C   UNL     1      -8.167  17.877  66.992  1.00  0.00    -0.226 C  
HETATM   38  C   UNL     1      -8.429  16.425  67.065  1.00  0.00    -0.226 A  
HETATM   39  O   UNL     1      -8.658  18.539  66.078  1.00  0.00    -0.497 OA 
BRANCH  16  40
HETATM   40  C   UNL     1     -11.312  11.813  63.909  1.00  0.00    -0.411 C  
HETATM   41  O   UNL     1     -10.633  11.115  63.152  1.00  0.00    -0.295 OA 
HETATM   42  C   UNL     1     -12.749  12.145  63.565  1.00  0.00    -0.553 C  
ENDBRANCH  16  40
ENDBRANCH  13  14
ENDBRANCH   4  13
TORSDOF 3
ENDMDL
MODEL       10
REMARK 921   NORMALIZED FREE ENERGY PREDICTED BY IDOCK:   -7.87 KCAL/MOL
REMARK 922        TOTAL FREE ENERGY PREDICTED BY IDOCK:  -10.13 KCAL/MOL
REMARK 923 INTER-LIGAND FREE ENERGY PREDICTED BY IDOCK:   -9.27 KCAL/MOL
REMARK 924 INTRA-LIGAND FREE ENERGY PREDICTED BY IDOCK:   -0.87 KCAL/MOL
REMARK 927      BINDING AFFINITY PREDICTED BY RF-SCORE:    0.00 PKD
ROOT
HETATM    1  C   UNL     1     -10.571   7.056  67.249  1.00  0.00    -0.395 C  
HETATM    2  C   UNL     1     -10.515   8.440  67.899  1.00  0.00    -0.193 C  
HETATM    3  O   UNL     1      -9.191   8.957  67.665  1.00  0.00    -0.136 OA 
HETATM    4  C   UNL     1      -8.876  10.160  68.354  1.00  0.00    -0.123 C  
HETATM    5  H1  UNL     1     -11.623   9.042  71.853  1.00  0.00     0.000 HD 
HETATM    6  C   UNL     1      -9.089  10.005  69.861  1.00  0.00    -0.188 C  
HETATM    7  C   UNL     1     -10.528   9.607  70.187  1.00  0.00    -0.273 C  
HETATM    8  H   UNL     1     -10.648   7.160  70.946  1.00  0.00     0.000 HD 
HETATM    9  H2  UNL     1     -10.340  10.082  72.215  1.00  0.00     0.000 HD 
HETATM   10  N   UNL     1     -10.662   9.308  71.635  1.00  0.00    -0.364 NA 
HETATM   11  C   UNL     1     -10.942   8.363  69.384  1.00  0.00    -0.002 C  
HETATM   12  O   UNL     1     -10.386   7.207  70.034  1.00  0.00    -0.199 OA 
ENDROOT
BRANCH   4  13
HETATM   13  O   UNL     1      -9.585  11.296  67.866  1.00  0.00    -0.169 OA 
BRANCH  13  14
HETATM   14  C   UNL     1      -8.927  12.153  66.908  1.00  0.00    -0.201 C  
HETATM   15  C   UNL     1      -9.748  12.028  65.612  1.00  0.00    -0.241 C  
HETATM   16  C   UNL     1     -11.150  12.645  65.793  1.00  0.00    -0.297 C  
HETATM   17  C   UNL     1     -10.985  14.155  65.936  1.00  0.00    -0.297 C  
HETATM   18  O   UNL     1     -11.836  12.143  66.950  1.00  0.00    -0.555 OA 
HETATM   19  H   UNL     1     -10.403  17.716  66.632  1.00  0.00     0.000 HD 
HETATM   20  O   UNL     1     -10.531  16.788  66.475  1.00  0.00    -0.305 OA 
HETATM   21  C   UNL     1      -9.614  15.935  67.044  1.00  0.00    -0.223 A  
HETATM   22  C   UNL     1      -9.802  14.562  66.811  1.00  0.00    -0.271 A  
HETATM   23  H   UNL     1     -12.699  12.523  67.061  1.00  0.00     0.000 HD 
HETATM   24  C   UNL     1      -8.844  13.630  67.296  1.00  0.00    -0.227 A  
HETATM   25  C   UNL     1      -7.746  14.122  68.037  1.00  0.00    -0.147 A  
HETATM   26  O   UNL     1      -6.760  13.277  68.469  1.00  0.00    -0.078 OA 
HETATM   27  C   UNL     1      -7.584  15.504  68.292  1.00  0.00    -0.115 A  
HETATM   28  C   UNL     1      -6.426  16.029  69.076  1.00  0.00    -0.146 C  
HETATM   29  H   UNL     1      -6.022  13.608  68.967  1.00  0.00     0.000 HD 
HETATM   30  C   UNL     1      -6.321  17.474  69.340  1.00  0.00    -0.246 A  
HETATM   31  O   UNL     1      -5.549  15.305  69.531  1.00  0.00    -0.094 OA 
HETATM   32  C   UNL     1      -5.277  17.962  70.136  1.00  0.00    -0.230 A  
HETATM   33  C   UNL     1      -5.176  19.323  70.417  1.00  0.00    -0.221 A  
HETATM   34  C   UNL     1      -6.117  20.210  69.894  1.00  0.00    -0.393 A  
HETATM   35  C   UNL     1      -7.150  19.737  69.100  1.00  0.00    -0.349 A  
HETATM   36  C   UNL     1      -7.248  18.357  68.821  1.00  0.00    -0.300 A  
HETATM   37  C   UNL     1      -8.347  17.862  67.981  1.00  0.00    -0.258 C  
HETATM   38  C   UNL     1      -8.519  16.409  67.781  1.00  0.00    -0.172 A  
HETATM   39  O   UNL     1      -9.121  18.649  67.438  1.00  0.00    -0.276 OA 
BRANCH  16  40
HETATM   40  C   UNL     1     -12.071  12.302  64.608  1.00  0.00    -0.374 C  
HETATM   41  O   UNL     1     -13.281  12.538  64.624  1.00  0.00    -0.848 OA 
HETATM   42  C   UNL     1     -11.432  11.638  63.406  1.00  0.00    -0.360 C  
ENDBRANCH  16  40
ENDBRANCH  13  14
ENDBRANCH   4  13
TORSDOF 3
ENDMDL
MODEL       11
REMARK 921   NORMALIZED FREE ENERGY PREDICTED BY IDOCK:   -7.82 KCAL/MOL
REMARK 922        TOTAL FREE ENERGY PREDICTED BY IDOCK:  -10.07 KCAL/MOL
REMARK 923 INTER-LIGAND FREE ENERGY PREDICTED BY IDOCK:   -9.23 KCAL/MOL
REMARK 924 INTRA-LIGAND FREE ENERGY PREDICTED BY IDOCK:   -0.85 KCAL/MOL
REMARK 927      BINDING AFFINITY PREDICTED BY RF-SCORE:    0.00 PKD
ROOT
HETATM    1  C   UNL     1     -12.235  15.054  64.136  1.00  0.00    -0.234 C  
HETATM    2  C   UNL     1     -11.164  14.462  65.056  1.00  0.00    -0.375 C  
HETATM    3  O   UNL     1     -11.847  13.968  66.224  1.00  0.00    -0.372 OA 
HETATM    4  C   UNL     1     -11.004  13.546  67.289  1.00  0.00    -0.280 C  
HETATM    5  H1  UNL     1      -7.793  16.618  66.155  1.00  0.00     0.000 HD 
HETATM    6  C   UNL     1     -10.045  14.660  67.709  1.00  0.00    -0.228 C  
HETATM    7  C   UNL     1      -9.175  15.123  66.540  1.00  0.00    -0.287 C  
HETATM    8  H   UNL     1      -9.903  17.444  65.726  1.00  0.00     0.000 HD 
HETATM    9  H2  UNL     1      -7.822  16.133  67.774  1.00  0.00     0.000 HD 
HETATM   10  N   UNL     1      -8.374  16.309  66.935  1.00  0.00    -0.207 NA 
HETATM   11  C   UNL     1     -10.048  15.496  65.330  1.00  0.00    -0.352 C  
HETATM   12  O   UNL     1     -10.588  16.809  65.557  1.00  0.00    -0.496 OA 
ENDROOT
BRANCH   4  13
HETATM   13  O   UNL     1     -10.283  12.350  67.002  1.00  0.00    -0.219 OA 
BRANCH  13  14
HETATM   14  C   UNL     1     -11.034  11.149  66.723  1.00  0.00    -0.249 C  
HETATM   15  C   UNL     1     -10.908  10.929  65.204  1.00  0.00    -0.133 C  
HETATM   16  C   UNL     1      -9.454  10.581  64.823  1.00  0.00    -0.259 C  
HETATM   17  C   UNL     1      -9.138   9.199  65.386  1.00  0.00    -0.271 C  
HETATM   18  O   UNL     1      -8.502  11.521  65.341  1.00  0.00    -0.385 OA 
HETATM   19  H   UNL     1      -8.405   6.036  67.107  1.00  0.00     0.000 HD 
HETATM   20  O   UNL     1      -8.606   6.866  66.690  1.00  0.00    -0.116 OA 
HETATM   21  C   UNL     1      -9.383   7.744  67.410  1.00  0.00    -0.141 A  
HETATM   22  C   UNL     1      -9.682   8.971  66.794  1.00  0.00    -0.279 A  
HETATM   23  H   UNL     1      -7.606  11.306  65.106  1.00  0.00     0.000 HD 
HETATM   24  C   UNL     1     -10.551   9.890  67.444  1.00  0.00    -0.338 A  
HETATM   25  C   UNL     1     -11.056   9.548  68.718  1.00  0.00    -0.001 A  
HETATM   26  O   UNL     1     -11.949  10.364  69.358  1.00  0.00    -0.489 OA 
HETATM   27  C   UNL     1     -10.722   8.322  69.342  1.00  0.00    -0.160 A  
HETATM   28  C   UNL     1     -11.253   7.957  70.690  1.00  0.00    -0.263 C  
HETATM   29  H   UNL     1     -12.288  10.134  70.214  1.00  0.00     0.000 HD 
HETATM   30  C   UNL     1     -10.849   6.683  71.310  1.00  0.00    -0.279 A  
HETATM   31  O   UNL     1     -12.009   8.681  71.325  1.00  0.00    -0.284 OA 
HETATM   32  C   UNL     1     -11.285   6.369  72.603  1.00  0.00    -0.290 A  
HETATM   33  C   UNL     1     -10.894   5.180  73.215  1.00  0.00    -0.352 A  
HETATM   34  C   UNL     1     -10.068   4.289  72.530  1.00  0.00    -0.233 A  
HETATM   35  C   UNL     1      -9.636   4.587  71.247  1.00  0.00    -0.240 A  
HETATM   36  C   UNL     1     -10.034   5.795  70.635  1.00  0.00    -0.251 A  
HETATM   37  C   UNL     1      -9.571   6.106  69.276  1.00  0.00    -0.133 C  
HETATM   38  C   UNL     1      -9.892   7.418  68.675  1.00  0.00    -0.165 A  
HETATM   39  O   UNL     1      -8.925   5.282  68.632  1.00  0.00    -0.106 OA 
BRANCH  16  40
HETATM   40  C   UNL     1      -9.252  10.614  63.298  1.00  0.00    -0.278 C  
HETATM   41  O   UNL     1      -9.560  11.592  62.613  1.00  0.00    -0.249 OA 
HETATM   42  C   UNL     1      -8.667   9.376  62.650  1.00  0.00    -0.234 C  
ENDBRANCH  16  40
ENDBRANCH  13  14
ENDBRANCH   4  13
TORSDOF 3
ENDMDL
MODEL       12
REMARK 921   NORMALIZED FREE ENERGY PREDICTED BY IDOCK:   -7.81 KCAL/MOL
REMARK 922        TOTAL FREE ENERGY PREDICTED BY IDOCK:  -10.07 KCAL/MOL
REMARK 923 INTER-LIGAND FREE ENERGY PREDICTED BY IDOCK:   -9.42 KCAL/MOL
REMARK 924 INTRA-LIGAND FREE ENERGY PREDICTED BY IDOCK:   -0.65 KCAL/MOL
REMARK 927      BINDING AFFINITY PREDICTED BY RF-SCORE:    0.00 PKD
ROOT
HETATM    1  C   UNL     1     -10.280  17.419  69.314  1.00  0.00    -0.204 C  
HETATM    2  C   UNL     1      -9.984  16.237  68.386  1.00  0.00    -0.234 C  
HETATM    3  O   UNL     1     -10.493  15.058  69.040  1.00  0.00    -0.229 OA 
HETATM    4  C   UNL     1     -10.149  13.825  68.423  1.00  0.00    -0.241 C  
HETATM    5  H1  UNL     1      -6.177  15.533  66.893  1.00  0.00     0.000 HD 
HETATM    6  C   UNL     1      -8.634  13.689  68.266  1.00  0.00    -0.170 C  
HETATM    7  C   UNL     1      -8.049  14.837  67.441  1.00  0.00    -0.198 C  
HETATM    8  H   UNL     1      -6.729  16.452  68.934  1.00  0.00     0.000 HD 
HETATM    9  H2  UNL     1      -6.228  13.858  67.125  1.00  0.00     0.000 HD 
HETATM   10  N   UNL     1      -6.567  14.767  67.443  1.00  0.00    -0.301 NA 
HETATM   11  C   UNL     1      -8.482  16.194  68.020  1.00  0.00    -0.168 C  
HETATM   12  O   UNL     1      -7.652  16.478  69.159  1.00  0.00    -0.232 OA 
ENDROOT
BRANCH   4  13
HETATM   13  O   UNL     1     -10.800  13.614  67.172  1.00  0.00    -0.281 OA 
BRANCH  13  14
HETATM   14  C   UNL     1     -11.673  12.471  67.040  1.00  0.00    -0.367 C  
HETATM   15  C   UNL     1     -11.837  12.253  65.524  1.00  0.00    -0.420 C  
HETATM   16  C   UNL     1     -10.503  11.805  64.890  1.00  0.00    -0.287 C  
HETATM   17  C   UNL     1     -10.191  10.401  65.396  1.00  0.00    -0.329 C  
HETATM   18  O   UNL     1      -9.409  12.671  65.224  1.00  0.00    -0.439 OA 
HETATM   19  H   UNL     1      -9.389   7.182  66.977  1.00  0.00     0.000 HD 
HETATM   20  O   UNL     1      -9.602   8.026  66.598  1.00  0.00    -0.197 OA 
HETATM   21  C   UNL     1     -10.172   8.952  67.440  1.00  0.00    -0.249 A  
HETATM   22  C   UNL     1     -10.488  10.202  66.880  1.00  0.00    -0.286 A  
HETATM   23  H   UNL     1      -8.587  12.395  64.833  1.00  0.00     0.000 HD 
HETATM   24  C   UNL     1     -11.159  11.176  67.670  1.00  0.00    -0.348 A  
HETATM   25  C   UNL     1     -11.450  10.862  69.016  1.00  0.00    -0.302 A  
HETATM   26  O   UNL     1     -12.154  11.736  69.801  1.00  0.00    -0.297 OA 
HETATM   27  C   UNL     1     -11.099   9.612  69.578  1.00  0.00    -0.198 A  
HETATM   28  C   UNL     1     -11.404   9.276  71.000  1.00  0.00    -0.320 C  
HETATM   29  H   UNL     1     -12.350  11.524  70.705  1.00  0.00     0.000 HD 
HETATM   30  C   UNL     1     -10.988   7.972  71.546  1.00  0.00    -0.279 A  
HETATM   31  O   UNL     1     -11.980  10.047  71.757  1.00  0.00    -0.354 OA 
HETATM   32  C   UNL     1     -11.206   7.681  72.898  1.00  0.00    -0.426 A  
HETATM   33  C   UNL     1     -10.797   6.463  73.438  1.00  0.00    -0.243 A  
HETATM   34  C   UNL     1     -10.173   5.520  72.621  1.00  0.00    -0.222 A  
HETATM   35  C   UNL     1      -9.958   5.796  71.280  1.00  0.00    -0.241 A  
HETATM   36  C   UNL     1     -10.372   7.033  70.741  1.00  0.00    -0.222 A  
HETATM   37  C   UNL     1     -10.140   7.320  69.320  1.00  0.00    -0.183 C  
HETATM   38  C   UNL     1     -10.468   8.655  68.778  1.00  0.00    -0.209 A  
HETATM   39  O   UNL     1      -9.679   6.456  68.575  1.00  0.00    -0.131 OA 
BRANCH  16  40
HETATM   40  C   UNL     1     -10.576  11.834  63.353  1.00  0.00    -0.420 C  
HETATM   41  O   UNL     1     -11.573  12.236  62.748  1.00  0.00     0.122 OA 
HETATM   42  C   UNL     1      -9.368  11.328  62.593  1.00  0.00    -0.313 C  
ENDBRANCH  16  40
ENDBRANCH  13  14
ENDBRANCH   4  13
TORSDOF 3
ENDMDL
MODEL       13
REMARK 921   NORMALIZED FREE ENERGY PREDICTED BY IDOCK:   -7.74 KCAL/MOL
REMARK 922        TOTAL FREE ENERGY PREDICTED BY IDOCK:   -9.98 KCAL/MOL
REMARK 923 INTER-LIGAND FREE ENERGY PREDICTED BY IDOCK:   -9.13 KCAL/MOL
REMARK 924 INTRA-LIGAND FREE ENERGY PREDICTED BY IDOCK:   -0.85 KCAL/MOL
REMARK 927      BINDING AFFINITY PREDICTED BY RF-SCORE:    0.00 PKD
ROOT
HETATM    1  C   UNL     1     -14.410   6.524  72.060  1.00  0.00    -0.066 C  
HETATM    2  C   UNL     1     -13.564   7.537  71.285  1.00  0.00    -0.247 C  
HETATM    3  O   UNL     1     -12.185   7.220  71.555  1.00  0.00    -0.313 OA 
HETATM    4  C   UNL     1     -11.238   8.165  71.074  1.00  0.00    -0.258 C  
HETATM    5  H1  UNL     1     -14.200  11.624  71.617  1.00  0.00     0.000 HD 
HETATM    6  C   UNL     1     -11.538   9.567  71.606  1.00  0.00    -0.451 C  
HETATM    7  C   UNL     1     -12.942  10.028  71.215  1.00  0.00    -0.400 C  
HETATM    8  H   UNL     1     -14.503  10.025  73.251  1.00  0.00     0.000 HD 
HETATM    9  H2  UNL     1     -12.560  12.030  71.684  1.00  0.00     0.000 HD 
HETATM   10  N   UNL     1     -13.262  11.316  71.878  1.00  0.00    -0.461 NA 
HETATM   11  C   UNL     1     -13.990   8.983  71.631  1.00  0.00    -0.332 C  
HETATM   12  O   UNL     1     -14.241   9.137  73.038  1.00  0.00    -0.429 OA 
ENDROOT
BRANCH   4  13
HETATM   13  O   UNL     1     -11.127   8.185  69.653  1.00  0.00    -0.154 OA 
BRANCH  13  14
HETATM   14  C   UNL     1      -9.931   8.745  69.069  1.00  0.00    -0.191 C  
HETATM   15  C   UNL     1      -9.223   7.568  68.373  1.00  0.00    -0.139 C  
HETATM   16  C   UNL     1     -10.051   7.067  67.171  1.00  0.00    -0.217 C  
HETATM   17  C   UNL     1     -10.025   8.150  66.098  1.00  0.00    -0.017 C  
HETATM   18  O   UNL     1     -11.416   6.786  67.513  1.00  0.00    -0.690 OA 
HETATM   19  H   UNL     1     -10.179  10.986  63.766  1.00  0.00     0.000 HD 
HETATM   20  O   UNL     1     -10.148  10.274  64.393  1.00  0.00    -0.324 OA 
HETATM   21  C   UNL     1     -10.222  10.620  65.722  1.00  0.00    -0.252 A  
HETATM   22  C   UNL     1     -10.176   9.566  66.650  1.00  0.00    -0.310 A  
HETATM   23  H   UNL     1     -11.926   6.478  66.772  1.00  0.00     0.000 HD 
HETATM   24  C   UNL     1     -10.161   9.856  68.043  1.00  0.00    -0.202 A  
HETATM   25  C   UNL     1     -10.234  11.208  68.446  1.00  0.00    -0.188 A  
HETATM   26  O   UNL     1     -10.154  11.548  69.769  1.00  0.00    -0.161 OA 
HETATM   27  C   UNL     1     -10.312  12.259  67.502  1.00  0.00    -0.214 A  
HETATM   28  C   UNL     1     -10.391  13.690  67.923  1.00  0.00    -0.249 C  
HETATM   29  H   UNL     1     -10.203  12.457  70.040  1.00  0.00     0.000 HD 
HETATM   30  C   UNL     1     -10.503  14.744  66.901  1.00  0.00    -0.277 A  
HETATM   31  O   UNL     1     -10.380  14.038  69.097  1.00  0.00    -0.171 OA 
HETATM   32  C   UNL     1     -10.650  16.081  67.293  1.00  0.00    -0.313 A  
HETATM   33  C   UNL     1     -10.783  17.089  66.341  1.00  0.00    -0.075 A  
HETATM   34  C   UNL     1     -10.759  16.766  64.983  1.00  0.00    -0.118 A  
HETATM   35  C   UNL     1     -10.607  15.448  64.586  1.00  0.00    -0.122 A  
HETATM   36  C   UNL     1     -10.476  14.431  65.556  1.00  0.00    -0.366 A  
HETATM   37  C   UNL     1     -10.318  13.035  65.128  1.00  0.00    -0.304 C  
HETATM   38  C   UNL     1     -10.294  11.957  66.137  1.00  0.00    -0.261 A  
HETATM   39  O   UNL     1     -10.198  12.757  63.935  1.00  0.00    -0.402 OA 
BRANCH  16  40
HETATM   40  C   UNL     1      -9.499   5.738  66.626  1.00  0.00    -0.149 C  
HETATM   41  O   UNL     1      -9.734   4.655  67.167  1.00  0.00    -0.166 OA 
HETATM   42  C   UNL     1      -8.627   5.807  65.389  1.00  0.00    -0.143 C  
ENDBRANCH  16  40
ENDBRANCH  13  14
ENDBRANCH   4  13
TORSDOF 3
ENDMDL
MODEL       14
REMARK 921   NORMALIZED FREE ENERGY PREDICTED BY IDOCK:   -7.71 KCAL/MOL
REMARK 922        TOTAL FREE ENERGY PREDICTED BY IDOCK:   -9.95 KCAL/MOL
REMARK 923 INTER-LIGAND FREE ENERGY PREDICTED BY IDOCK:   -9.79 KCAL/MOL
REMARK 924 INTRA-LIGAND FREE ENERGY PREDICTED BY IDOCK:   -0.16 KCAL/MOL
REMARK 927      BINDING AFFINITY PREDICTED BY RF-SCORE:    0.00 PKD
ROOT
HETATM    1  C   UNL     1     -11.052  15.995  64.580  1.00  0.00    -0.346 C  
HETATM    2  C   UNL     1     -10.827  15.509  66.014  1.00  0.00    -0.300 C  
HETATM    3  O   UNL     1     -11.640  16.340  66.866  1.00  0.00     0.362 OA 
HETATM    4  C   UNL     1     -11.429  16.170  68.262  1.00  0.00    -0.259 C  
HETATM    5  H1  UNL     1      -7.019  15.095  67.608  1.00  0.00     0.000 HD 
HETATM    6  C   UNL     1      -9.958  16.376  68.627  1.00  0.00    -0.235 C  
HETATM    7  C   UNL     1      -9.050  15.410  67.866  1.00  0.00    -0.178 C  
HETATM    8  H   UNL     1      -7.721  16.644  66.052  1.00  0.00     0.000 HD 
HETATM    9  H2  UNL     1      -7.408  15.762  69.113  1.00  0.00     0.000 HD 
HETATM   10  N   UNL     1      -7.625  15.741  68.116  1.00  0.00    -0.121 NA 
HETATM   11  C   UNL     1      -9.319  15.491  66.354  1.00  0.00    -0.298 C  
HETATM   12  O   UNL     1      -8.648  16.655  65.843  1.00  0.00    -0.473 OA 
ENDROOT
BRANCH   4  13
HETATM   13  O   UNL     1     -11.894  14.918  68.759  1.00  0.00    -0.314 OA 
BRANCH  13  14
HETATM   14  C   UNL     1     -11.078  14.219  69.724  1.00  0.00    -0.128 C  
HETATM   15  C   UNL     1     -11.418  14.854  71.086  1.00  0.00    -0.312 C  
HETATM   16  C   UNL     1     -12.871  14.529  71.490  1.00  0.00    -0.336 C  
HETATM   17  C   UNL     1     -12.952  13.035  71.790  1.00  0.00    -0.420 C  
HETATM   18  O   UNL     1     -13.821  14.847  70.463  1.00  0.00    -0.572 OA 
HETATM   19  H   UNL     1     -13.081   9.378  72.121  1.00  0.00     0.000 HD 
HETATM   20  O   UNL     1     -13.033  10.320  72.006  1.00  0.00    -0.432 OA 
HETATM   21  C   UNL     1     -12.246  10.775  70.974  1.00  0.00    -0.380 A  
HETATM   22  C   UNL     1     -12.174  12.168  70.805  1.00  0.00    -0.367 A  
HETATM   23  H   UNL     1     -14.716  14.647  70.713  1.00  0.00     0.000 HD 
HETATM   24  C   UNL     1     -11.312  12.711  69.812  1.00  0.00    -0.108 A  
HETATM   25  C   UNL     1     -10.581  11.817  68.998  1.00  0.00    -0.136 A  
HETATM   26  O   UNL     1      -9.686  12.287  68.074  1.00  0.00    -0.193 OA 
HETATM   27  C   UNL     1     -10.686  10.415  69.158  1.00  0.00    -0.266 A  
HETATM   28  C   UNL     1      -9.916   9.467  68.298  1.00  0.00    -0.161 C  
HETATM   29  H   UNL     1      -9.195  11.686  67.527  1.00  0.00     0.000 HD 
HETATM   30  C   UNL     1     -10.085   8.016  68.484  1.00  0.00    -0.218 A  
HETATM   31  O   UNL     1      -9.147   9.839  67.421  1.00  0.00    -0.134 OA 
HETATM   32  C   UNL     1      -9.422   7.123  67.632  1.00  0.00    -0.141 A  
HETATM   33  C   UNL     1      -9.589   5.747  67.777  1.00  0.00    -0.121 A  
HETATM   34  C   UNL     1     -10.418   5.253  68.785  1.00  0.00    -0.166 A  
HETATM   35  C   UNL     1     -11.074   6.128  69.636  1.00  0.00    -0.489 A  
HETATM   36  C   UNL     1     -10.902   7.520  69.482  1.00  0.00    -0.184 A  
HETATM   37  C   UNL     1     -11.601   8.443  70.386  1.00  0.00    -0.064 C  
HETATM   38  C   UNL     1     -11.514   9.900  70.158  1.00  0.00    -0.309 A  
HETATM   39  O   UNL     1     -12.254   8.012  71.336  1.00  0.00    -0.302 OA 
BRANCH  16  40
HETATM   40  C   UNL     1     -13.312  15.360  72.708  1.00  0.00    -0.518 C  
HETATM   41  O   UNL     1     -14.350  16.026  72.711  1.00  0.00    -0.405 OA 
HETATM   42  C   UNL     1     -12.404  15.346  73.921  1.00  0.00    -0.764 C  
ENDBRANCH  16  40
ENDBRANCH  13  14
ENDBRANCH   4  13
TORSDOF 3
ENDMDL
MODEL       15
REMARK 921   NORMALIZED FREE ENERGY PREDICTED BY IDOCK:   -7.63 KCAL/MOL
REMARK 922        TOTAL FREE ENERGY PREDICTED BY IDOCK:   -9.86 KCAL/MOL
REMARK 923 INTER-LIGAND FREE ENERGY PREDICTED BY IDOCK:   -9.07 KCAL/MOL
REMARK 924 INTRA-LIGAND FREE ENERGY PREDICTED BY IDOCK:   -0.79 KCAL/MOL
REMARK 927      BINDING AFFINITY PREDICTED BY RF-SCORE:    0.00 PKD
ROOT
HETATM    1  C   UNL     1     -10.388   6.166  68.184  1.00  0.00    -0.242 C  
HETATM    2  C   UNL     1     -10.312   7.600  68.715  1.00  0.00    -0.204 C  
HETATM    3  O   UNL     1      -8.941   8.021  68.580  1.00  0.00    -0.134 OA 
HETATM    4  C   UNL     1      -8.623   9.264  69.192  1.00  0.00    -0.134 C  
HETATM    5  H1  UNL     1     -11.774   8.622  72.462  1.00  0.00     0.000 HD 
HETATM    6  C   UNL     1      -8.996   9.261  70.675  1.00  0.00    -0.296 C  
HETATM    7  C   UNL     1     -10.483   8.972  70.880  1.00  0.00    -0.254 C  
HETATM    8  H   UNL     1     -10.833   6.615  71.829  1.00  0.00     0.000 HD 
HETATM    9  H2  UNL     1     -10.472   9.621  72.868  1.00  0.00     0.000 HD 
HETATM   10  N   UNL     1     -10.781   8.815  72.325  1.00  0.00    -0.318 NA 
HETATM   11  C   UNL     1     -10.891   7.683  70.147  1.00  0.00    -0.248 C  
HETATM   12  O   UNL     1     -10.478   6.564  70.950  1.00  0.00    -0.214 OA 
ENDROOT
BRANCH   4  13
HETATM   13  O   UNL     1      -9.206  10.387  68.535  1.00  0.00    -0.134 OA 
BRANCH  13  14
HETATM   14  C   UNL     1      -8.352  11.226  67.728  1.00  0.00    -0.125 C  
HETATM   15  C   UNL     1      -7.996  10.381  66.491  1.00  0.00    -0.123 C  
HETATM   16  C   UNL     1      -9.245  10.138  65.619  1.00  0.00    -0.187 C  
HETATM   17  C   UNL     1      -9.656  11.472  65.003  1.00  0.00    -0.222 C  
HETATM   18  O   UNL     1     -10.352   9.613  66.366  1.00  0.00    -0.237 OA 
HETATM   19  H   UNL     1     -10.737  14.804  63.893  1.00  0.00     0.000 HD 
HETATM   20  O   UNL     1     -10.455  13.954  64.211  1.00  0.00    -0.313 OA 
HETATM   21  C   UNL     1      -9.977  13.906  65.499  1.00  0.00    -0.251 A  
HETATM   22  C   UNL     1      -9.560  12.650  65.970  1.00  0.00    -0.190 A  
HETATM   23  H   UNL     1     -11.122   9.463  65.828  1.00  0.00     0.000 HD 
HETATM   24  C   UNL     1      -8.975  12.542  67.262  1.00  0.00    -0.192 A  
HETATM   25  C   UNL     1      -8.871  13.711  68.049  1.00  0.00    -0.187 A  
HETATM   26  O   UNL     1      -8.255  13.677  69.271  1.00  0.00    -0.312 OA 
HETATM   27  C   UNL     1      -9.323  14.965  67.576  1.00  0.00    -0.193 A  
HETATM   28  C   UNL     1      -9.216  16.203  68.406  1.00  0.00    -0.203 C  
HETATM   29  H   UNL     1      -8.185  14.462  69.800  1.00  0.00     0.000 HD 
HETATM   30  C   UNL     1      -9.732  17.478  67.879  1.00  0.00    -0.278 A  
HETATM   31  O   UNL     1      -8.724  16.211  69.527  1.00  0.00    -0.173 OA 
HETATM   32  C   UNL     1      -9.700  18.626  68.681  1.00  0.00    -0.418 A  
HETATM   33  C   UNL     1     -10.205  19.836  68.210  1.00  0.00    -0.569 A  
HETATM   34  C   UNL     1     -10.740  19.907  66.923  1.00  0.00    -0.471 A  
HETATM   35  C   UNL     1     -10.770  18.778  66.119  1.00  0.00    -0.320 A  
HETATM   36  C   UNL     1     -10.259  17.556  66.605  1.00  0.00    -0.332 A  
HETATM   37  C   UNL     1     -10.296  16.363  65.749  1.00  0.00    -0.369 C  
HETATM   38  C   UNL     1      -9.867  15.057  66.292  1.00  0.00    -0.307 A  
HETATM   39  O   UNL     1     -10.676  16.442  64.582  1.00  0.00    -0.693 OA 
BRANCH  16  40
HETATM   40  C   UNL     1      -8.970   9.089  64.528  1.00  0.00    -0.019 C  
HETATM   41  O   UNL     1      -8.656   7.927  64.795  1.00  0.00    -0.051 OA 
HETATM   42  C   UNL     1      -9.085   9.542  63.087  1.00  0.00    -0.157 C  
ENDBRANCH  16  40
ENDBRANCH  13  14
ENDBRANCH   4  13
TORSDOF 3
ENDMDL
MODEL       16
REMARK 921   NORMALIZED FREE ENERGY PREDICTED BY IDOCK:   -7.61 KCAL/MOL
REMARK 922        TOTAL FREE ENERGY PREDICTED BY IDOCK:   -9.83 KCAL/MOL
REMARK 923 INTER-LIGAND FREE ENERGY PREDICTED BY IDOCK:   -9.10 KCAL/MOL
REMARK 924 INTRA-LIGAND FREE ENERGY PREDICTED BY IDOCK:   -0.73 KCAL/MOL
REMARK 927      BINDING AFFINITY PREDICTED BY RF-SCORE:    0.00 PKD
ROOT
HETATM    1  C   UNL     1      -9.973  16.847  66.600  1.00  0.00    -0.302 C  
HETATM    2  C   UNL     1     -10.596  15.471  66.354  1.00  0.00    -0.311 C  
HETATM    3  O   UNL     1      -9.506  14.549  66.162  1.00  0.00    -0.294 OA 
HETATM    4  C   UNL     1      -9.880  13.246  65.734  1.00  0.00    -0.197 C  
HETATM    5  H1  UNL     1     -13.515  14.880  63.464  1.00  0.00     0.000 HD 
HETATM    6  C   UNL     1     -10.712  13.304  64.451  1.00  0.00    -0.432 C  
HETATM    7  C   UNL     1     -11.974  14.147  64.638  1.00  0.00    -0.445 C  
HETATM    8  H   UNL     1     -11.768  16.383  63.399  1.00  0.00     0.000 HD 
HETATM    9  H2  UNL     1     -12.875  13.422  62.895  1.00  0.00     0.000 HD 
HETATM   10  N   UNL     1     -12.673  14.318  63.340  1.00  0.00    -0.497 NA 
HETATM   11  C   UNL     1     -11.620  15.535  65.197  1.00  0.00    -0.060 C  
HETATM   12  O   UNL     1     -11.139  16.344  64.110  1.00  0.00    -0.809 OA 
ENDROOT
BRANCH   4  13
HETATM   13  O   UNL     1     -10.560  12.492  66.734  1.00  0.00    -0.231 OA 
BRANCH  13  14
HETATM   14  C   UNL     1      -9.871  12.223  67.974  1.00  0.00    -0.204 C  
HETATM   15  C   UNL     1     -10.303  13.345  68.936  1.00  0.00    -0.089 C  
HETATM   16  C   UNL     1     -11.801  13.217  69.283  1.00  0.00    -0.331 C  
HETATM   17  C   UNL     1     -11.982  11.964  70.133  1.00  0.00    -0.413 C  
HETATM   18  O   UNL     1     -12.636  13.114  68.121  1.00  0.00     0.192 OA 
HETATM   19  H   UNL     1     -12.317   8.733  71.851  1.00  0.00     0.000 HD 
HETATM   20  O   UNL     1     -12.213   9.553  71.384  1.00  0.00    -0.322 OA 
HETATM   21  C   UNL     1     -11.314   9.558  70.343  1.00  0.00    -0.264 A  
HETATM   22  C   UNL     1     -11.159  10.771  69.651  1.00  0.00    -0.339 A  
HETATM   23  H   UNL     1     -13.559  13.035  68.335  1.00  0.00     0.000 HD 
HETATM   24  C   UNL     1     -10.184  10.873  68.620  1.00  0.00    -0.201 A  
HETATM   25  C   UNL     1      -9.426   9.725  68.300  1.00  0.00    -0.139 A  
HETATM   26  O   UNL     1      -8.428   9.785  67.365  1.00  0.00    -0.121 OA 
HETATM   27  C   UNL     1      -9.612   8.500  68.984  1.00  0.00    -0.167 A  
HETATM   28  C   UNL     1      -8.814   7.283  68.648  1.00  0.00    -0.129 C  
HETATM   29  H   UNL     1      -7.918   9.013  67.150  1.00  0.00     0.000 HD 
HETATM   30  C   UNL     1      -9.069   6.024  69.367  1.00  0.00    -0.135 A  
HETATM   31  O   UNL     1      -7.950   7.274  67.780  1.00  0.00    -0.111 OA 
HETATM   32  C   UNL     1      -8.375   4.862  69.007  1.00  0.00    -0.082 A  
HETATM   33  C   UNL     1      -8.621   3.656  69.659  1.00  0.00    -0.109 A  
HETATM   34  C   UNL     1      -9.562   3.606  70.689  1.00  0.00    -0.254 A  
HETATM   35  C   UNL     1     -10.250   4.751  71.057  1.00  0.00    -0.239 A  
HETATM   36  C   UNL     1      -9.997   5.969  70.390  1.00  0.00    -0.233 A  
HETATM   37  C   UNL     1     -10.731   7.178  70.784  1.00  0.00    -0.231 C  
HETATM   38  C   UNL     1     -10.553   8.427  70.014  1.00  0.00    -0.235 A  
HETATM   39  O   UNL     1     -11.489   7.162  71.753  1.00  0.00    -0.252 OA 
BRANCH  16  40
HETATM   40  C   UNL     1     -12.311  14.465  70.026  1.00  0.00    -0.336 C  
HETATM   41  O   UNL     1     -12.141  15.607  69.592  1.00  0.00    -0.364 OA 
HETATM   42  C   UNL     1     -13.028  14.241  71.342  1.00  0.00    -0.411 C  
ENDBRANCH  16  40
ENDBRANCH  13  14
ENDBRANCH   4  13
TORSDOF 3
ENDMDL
MODEL       17
REMARK 921   NORMALIZED FREE ENERGY PREDICTED BY IDOCK:   -7.58 KCAL/MOL
REMARK 922        TOTAL FREE ENERGY PREDICTED BY IDOCK:   -9.80 KCAL/MOL
REMARK 923 INTER-LIGAND FREE ENERGY PREDICTED BY IDOCK:   -8.82 KCAL/MOL
REMARK 924 INTRA-LIGAND FREE ENERGY PREDICTED BY IDOCK:   -0.97 KCAL/MOL
REMARK 927      BINDING AFFINITY PREDICTED BY RF-SCORE:    0.00 PKD
ROOT
HETATM    1  C   UNL     1     -11.688  12.850  63.482  1.00  0.00    -0.576 C  
HETATM    2  C   UNL     1     -11.005  11.789  64.349  1.00  0.00    -0.339 C  
HETATM    3  O   UNL     1     -10.165  12.494  65.284  1.00  0.00    -0.279 OA 
HETATM    4  C   UNL     1      -9.298  11.676  66.059  1.00  0.00    -0.227 C  
HETATM    5  H1  UNL     1      -8.945   8.598  62.677  1.00  0.00     0.000 HD 
HETATM    6  C   UNL     1      -8.418  10.801  65.165  1.00  0.00    -0.102 C  
HETATM    7  C   UNL     1      -9.258   9.909  64.251  1.00  0.00    -0.265 C  
HETATM    8  H   UNL     1      -9.151  10.730  61.823  1.00  0.00     0.000 HD 
HETATM    9  H2  UNL     1      -7.646   8.670  63.758  1.00  0.00     0.000 HD 
HETATM   10  N   UNL     1      -8.384   9.194  63.287  1.00  0.00    -0.183 NA 
HETATM   11  C   UNL     1     -10.280  10.747  63.465  1.00  0.00    -0.250 C  
HETATM   12  O   UNL     1      -9.596  11.370  62.366  1.00  0.00    -0.140 OA 
ENDROOT
BRANCH   4  13
HETATM   13  O   UNL     1      -9.981  10.876  67.021  1.00  0.00    -0.183 OA 
BRANCH  13  14
HETATM   14  C   UNL     1      -9.528  10.920  68.391  1.00  0.00    -0.178 C  
HETATM   15  C   UNL     1      -9.936  12.310  68.914  1.00  0.00     0.046 C  
HETATM   16  C   UNL     1     -11.471  12.429  69.004  1.00  0.00    -0.300 C  
HETATM   17  C   UNL     1     -11.952  11.502  70.116  1.00  0.00    -0.452 C  
HETATM   18  O   UNL     1     -12.131  12.068  67.782  1.00  0.00    -0.537 OA 
HETATM   19  H   UNL     1     -12.991   8.963  72.560  1.00  0.00     0.000 HD 
HETATM   20  O   UNL     1     -12.704   9.597  71.913  1.00  0.00    -0.374 OA 
HETATM   21  C   UNL     1     -11.669   9.213  71.093  1.00  0.00    -0.313 A  
HETATM   22  C   UNL     1     -11.243  10.150  70.136  1.00  0.00    -0.377 A  
HETATM   23  H   UNL     1     -13.077  12.142  67.837  1.00  0.00     0.000 HD 
HETATM   24  C   UNL     1     -10.122   9.854  69.313  1.00  0.00    -0.214 A  
HETATM   25  C   UNL     1      -9.494   8.597  69.463  1.00  0.00    -0.162 A  
HETATM   26  O   UNL     1      -8.371   8.287  68.745  1.00  0.00    -0.122 OA 
HETATM   27  C   UNL     1      -9.951   7.649  70.409  1.00  0.00    -0.188 A  
HETATM   28  C   UNL     1      -9.292   6.319  70.570  1.00  0.00    -0.162 C  
HETATM   29  H   UNL     1      -7.949   7.443  68.846  1.00  0.00     0.000 HD 
HETATM   30  C   UNL     1      -9.827   5.355  71.547  1.00  0.00    -0.221 A  
HETATM   31  O   UNL     1      -8.319   5.975  69.910  1.00  0.00    -0.119 OA 
HETATM   32  C   UNL     1      -9.257   4.079  71.650  1.00  0.00    -0.186 A  
HETATM   33  C   UNL     1      -9.766   3.146  72.551  1.00  0.00    -0.206 A  
HETATM   34  C   UNL     1     -10.846   3.487  73.365  1.00  0.00    -0.312 A  
HETATM   35  C   UNL     1     -11.412   4.749  73.275  1.00  0.00    -0.361 A  
HETATM   36  C   UNL     1     -10.894   5.688  72.358  1.00  0.00    -0.298 A  
HETATM   37  C   UNL     1     -11.500   7.023  72.266  1.00  0.00    -0.270 C  
HETATM   38  C   UNL     1     -11.036   7.970  71.230  1.00  0.00    -0.269 A  
HETATM   39  O   UNL     1     -12.388   7.362  73.047  1.00  0.00     0.347 OA 
BRANCH  16  40
HETATM   40  C   UNL     1     -11.905  13.882  69.272  1.00  0.00    -0.348 C  
HETATM   41  O   UNL     1     -11.655  14.800  68.488  1.00  0.00    -0.293 OA 
HETATM   42  C   UNL     1     -12.648  14.155  70.563  1.00  0.00    -0.410 C  
ENDBRANCH  16  40
ENDBRANCH  13  14
ENDBRANCH   4  13
TORSDOF 3
ENDMDL
MODEL       18
REMARK 921   NORMALIZED FREE ENERGY PREDICTED BY IDOCK:   -7.58 KCAL/MOL
REMARK 922        TOTAL FREE ENERGY PREDICTED BY IDOCK:   -9.80 KCAL/MOL
REMARK 923 INTER-LIGAND FREE ENERGY PREDICTED BY IDOCK:   -8.87 KCAL/MOL
REMARK 924 INTRA-LIGAND FREE ENERGY PREDICTED BY IDOCK:   -0.93 KCAL/MOL
REMARK 927      BINDING AFFINITY PREDICTED BY RF-SCORE:    0.00 PKD
ROOT
HETATM    1  C   UNL     1     -10.904  15.281  66.781  1.00  0.00    -0.312 C  
HETATM    2  C   UNL     1     -11.249  13.811  66.525  1.00  0.00    -0.312 C  
HETATM    3  O   UNL     1     -10.000  13.114  66.356  1.00  0.00    -0.269 OA 
HETATM    4  C   UNL     1     -10.111  11.765  65.922  1.00  0.00    -0.234 C  
HETATM    5  H1  UNL     1     -13.945  12.683  63.579  1.00  0.00     0.000 HD 
HETATM    6  C   UNL     1     -10.913  11.666  64.623  1.00  0.00    -0.363 C  
HETATM    7  C   UNL     1     -12.316  12.253  64.784  1.00  0.00    -0.339 C  
HETATM    8  H   UNL     1     -12.515  14.491  63.546  1.00  0.00     0.000 HD 
HETATM    9  H2  UNL     1     -13.029  11.375  63.025  1.00  0.00     0.000 HD 
HETATM   10  N   UNL     1     -13.009  12.291  63.472  1.00  0.00    -0.775 NA 
HETATM   11  C   UNL     1     -12.244  13.682  65.347  1.00  0.00    -0.444 C  
HETATM   12  O   UNL     1     -11.905  14.570  64.269  1.00  0.00    -0.408 OA 
ENDROOT
BRANCH   4  13
HETATM   13  O   UNL     1     -10.654  10.892  66.910  1.00  0.00    -0.238 OA 
BRANCH  13  14
HETATM   14  C   UNL     1      -9.824  10.533  68.035  1.00  0.00    -0.147 C  
HETATM   15  C   UNL     1     -10.229  11.496  69.167  1.00  0.00    -0.038 C  
HETATM   16  C   UNL     1     -11.671  11.212  69.635  1.00  0.00    -0.339 C  
HETATM   17  C   UNL     1     -11.680   9.856  70.334  1.00  0.00    -0.333 C  
HETATM   18  O   UNL     1     -12.613  11.181  68.553  1.00  0.00    -0.446 OA 
HETATM   19  H   UNL     1     -11.621   6.428  71.656  1.00  0.00     0.000 HD 
HETATM   20  O   UNL     1     -11.621   7.303  71.288  1.00  0.00    -0.266 OA 
HETATM   21  C   UNL     1     -10.836   7.502  70.176  1.00  0.00    -0.249 A  
HETATM   22  C   UNL     1     -10.834   8.797  69.630  1.00  0.00    -0.175 A  
HETATM   23  H   UNL     1     -13.501  11.006  68.841  1.00  0.00     0.000 HD 
HETATM   24  C   UNL     1      -9.979   9.096  68.534  1.00  0.00    -0.192 A  
HETATM   25  C   UNL     1      -9.184   8.057  68.002  1.00  0.00    -0.135 A  
HETATM   26  O   UNL     1      -8.294   8.305  66.992  1.00  0.00    -0.119 OA 
HETATM   27  C   UNL     1      -9.218   6.749  68.540  1.00  0.00    -0.128 A  
HETATM   28  C   UNL     1      -8.379   5.647  67.980  1.00  0.00    -0.100 C  
HETATM   29  H   UNL     1      -7.759   7.607  66.635  1.00  0.00     0.000 HD 
HETATM   30  C   UNL     1      -8.475   4.295  68.557  1.00  0.00    -0.103 A  
HETATM   31  O   UNL     1      -7.611   5.808  67.041  1.00  0.00    -0.096 OA 
HETATM   32  C   UNL     1      -7.746   3.242  67.989  1.00  0.00    -0.063 A  
HETATM   33  C   UNL     1      -7.843   1.952  68.505  1.00  0.00    -0.056 A  
HETATM   34  C   UNL     1      -8.668   1.707  69.604  1.00  0.00    -0.107 A  
HETATM   35  C   UNL     1      -9.388   2.743  70.177  1.00  0.00    -0.199 A  
HETATM   36  C   UNL     1      -9.287   4.047  69.647  1.00  0.00    -0.243 A  
HETATM   37  C   UNL     1     -10.055   5.140  70.257  1.00  0.00    -0.268 C  
HETATM   38  C   UNL     1     -10.040   6.481  69.638  1.00  0.00    -0.209 A  
HETATM   39  O   UNL     1     -10.706   4.949  71.284  1.00  0.00    -0.095 OA 
BRANCH  16  40
HETATM   40  C   UNL     1     -12.184  12.318  70.574  1.00  0.00    -0.300 C  
HETATM   41  O   UNL     1     -12.796  12.068  71.615  1.00  0.00    -0.363 OA 
HETATM   42  C   UNL     1     -11.921  13.752  70.162  1.00  0.00    -0.404 C  
ENDBRANCH  16  40
ENDBRANCH  13  14
ENDBRANCH   4  13
TORSDOF 3
ENDMDL
MODEL       19
REMARK 921   NORMALIZED FREE ENERGY PREDICTED BY IDOCK:   -7.56 KCAL/MOL
REMARK 922        TOTAL FREE ENERGY PREDICTED BY IDOCK:   -9.77 KCAL/MOL
REMARK 923 INTER-LIGAND FREE ENERGY PREDICTED BY IDOCK:   -8.85 KCAL/MOL
REMARK 924 INTRA-LIGAND FREE ENERGY PREDICTED BY IDOCK:   -0.92 KCAL/MOL
REMARK 927      BINDING AFFINITY PREDICTED BY RF-SCORE:    0.00 PKD
ROOT
HETATM    1  C   UNL     1      -9.002   6.523  66.685  1.00  0.00    -0.144 C  
HETATM    2  C   UNL     1      -8.925   8.051  66.634  1.00  0.00    -0.150 C  
HETATM    3  O   UNL     1     -10.189   8.514  66.122  1.00  0.00    -0.173 OA 
HETATM    4  C   UNL     1     -10.252   9.902  65.822  1.00  0.00    -0.181 C  
HETATM    5  H1  UNL     1      -5.795  10.017  64.748  1.00  0.00     0.000 HD 
HETATM    6  C   UNL     1      -9.145  10.307  64.847  1.00  0.00    -0.250 C  
HETATM    7  C   UNL     1      -7.759   9.982  65.405  1.00  0.00    -0.137 C  
HETATM    8  H   UNL     1      -6.723   7.988  64.167  1.00  0.00     0.000 HD 
HETATM    9  H2  UNL     1      -6.770  11.185  64.010  1.00  0.00     0.000 HD 
HETATM   10  N   UNL     1      -6.720  10.235  64.376  1.00  0.00    -0.104 NA 
HETATM   11  C   UNL     1      -7.681   8.508  65.836  1.00  0.00    -0.097 C  
HETATM   12  O   UNL     1      -7.487   7.708  64.657  1.00  0.00    -0.082 OA 
ENDROOT
BRANCH   4  13
HETATM   13  O   UNL     1     -10.227  10.736  66.978  1.00  0.00    -0.200 OA 
BRANCH  13  14
HETATM   14  C   UNL     1     -11.369  11.581  67.236  1.00  0.00    -0.290 C  
HETATM   15  C   UNL     1     -12.160  10.872  68.351  1.00  0.00     0.074 C  
HETATM   16  C   UNL     1     -11.363  10.873  69.671  1.00  0.00    -0.292 C  
HETATM   17  C   UNL     1     -11.293  12.310  70.177  1.00  0.00     0.129 C  
HETATM   18  O   UNL     1     -10.027  10.371  69.517  1.00  0.00    -0.237 OA 
HETATM   19  H   UNL     1     -10.893  15.851  71.076  1.00  0.00     0.000 HD 
HETATM   20  O   UNL     1     -10.986  14.943  70.813  1.00  0.00    -0.181 OA 
HETATM   21  C   UNL     1     -10.898  14.680  69.466  1.00  0.00    -0.217 A  
HETATM   22  C   UNL     1     -11.037  13.337  69.077  1.00  0.00    -0.291 A  
HETATM   23  H   UNL     1      -9.536  10.372  70.331  1.00  0.00     0.000 HD 
HETATM   24  C   UNL     1     -11.043  13.003  67.694  1.00  0.00    -0.296 A  
HETATM   25  C   UNL     1     -10.867  14.043  66.753  1.00  0.00    -0.294 A  
HETATM   26  O   UNL     1     -10.933  13.788  65.410  1.00  0.00    -0.296 OA 
HETATM   27  C   UNL     1     -10.697  15.388  67.159  1.00  0.00    -0.314 A  
HETATM   28  C   UNL     1     -10.510  16.489  66.169  1.00  0.00    -0.294 C  
HETATM   29  H   UNL     1     -10.815  14.487  64.778  1.00  0.00     0.000 HD 
HETATM   30  C   UNL     1     -10.305  17.868  66.644  1.00  0.00    -0.362 A  
HETATM   31  O   UNL     1     -10.505  16.302  64.959  1.00  0.00    -0.621 OA 
HETATM   32  C   UNL     1     -10.057  18.893  65.722  1.00  0.00    -0.092 A  
HETATM   33  C   UNL     1      -9.836  20.199  66.155  1.00  0.00    -0.515 A  
HETATM   34  C   UNL     1      -9.872  20.491  67.519  1.00  0.00    -0.534 A  
HETATM   35  C   UNL     1     -10.124  19.485  68.438  1.00  0.00    -0.546 A  
HETATM   36  C   UNL     1     -10.344  18.165  67.993  1.00  0.00    -0.405 A  
HETATM   37  C   UNL     1     -10.607  17.103  68.973  1.00  0.00    -0.282 C  
HETATM   38  C   UNL     1     -10.725  15.701  68.521  1.00  0.00    -0.264 A  
HETATM   39  O   UNL     1     -10.737  17.371  70.166  1.00  0.00     0.223 OA 
BRANCH  16  40
HETATM   40  C   UNL     1     -12.013   9.951  70.719  1.00  0.00    -0.323 C  
HETATM   41  O   UNL     1     -11.836   8.731  70.723  1.00  0.00    -0.266 OA 
HETATM   42  C   UNL     1     -12.907  10.602  71.753  1.00  0.00    -0.549 C  
ENDBRANCH  16  40
ENDBRANCH  13  14
ENDBRANCH   4  13
TORSDOF 3
ENDMDL
MODEL       20
REMARK 921   NORMALIZED FREE ENERGY PREDICTED BY IDOCK:   -7.49 KCAL/MOL
REMARK 922        TOTAL FREE ENERGY PREDICTED BY IDOCK:   -9.69 KCAL/MOL
REMARK 923 INTER-LIGAND FREE ENERGY PREDICTED BY IDOCK:   -8.89 KCAL/MOL
REMARK 924 INTRA-LIGAND FREE ENERGY PREDICTED BY IDOCK:   -0.80 KCAL/MOL
REMARK 927      BINDING AFFINITY PREDICTED BY RF-SCORE:    0.00 PKD
ROOT
HETATM    1  C   UNL     1      -8.726   8.590  73.329  1.00  0.00    -0.068 C  
HETATM    2  C   UNL     1      -9.609   7.845  72.325  1.00  0.00    -0.195 C  
HETATM    3  O   UNL     1     -10.650   8.759  71.930  1.00  0.00    -0.309 OA 
HETATM    4  C   UNL     1     -11.687   8.193  71.139  1.00  0.00    -0.283 C  
HETATM    5  H1  UNL     1     -11.207   4.110  73.172  1.00  0.00     0.000 HD 
HETATM    6  C   UNL     1     -12.322   6.991  71.838  1.00  0.00    -0.358 C  
HETATM    7  C   UNL     1     -11.287   5.909  72.147  1.00  0.00    -0.288 C  
HETATM    8  H   UNL     1     -10.783   5.819  74.661  1.00  0.00     0.000 HD 
HETATM    9  H2  UNL     1     -12.733   4.446  72.525  1.00  0.00     0.000 HD 
HETATM   10  N   UNL     1     -11.898   4.832  72.966  1.00  0.00    -0.131 NA 
HETATM   11  C   UNL     1     -10.097   6.503  72.919  1.00  0.00    -0.181 C  
HETATM   12  O   UNL     1     -10.483   6.644  74.296  1.00  0.00    -0.344 OA 
ENDROOT
BRANCH   4  13
HETATM   13  O   UNL     1     -11.269   7.839  69.822  1.00  0.00    -0.154 OA 
BRANCH  13  14
HETATM   14  C   UNL     1     -10.045   8.414  69.316  1.00  0.00    -0.202 C  
HETATM   15  C   UNL     1      -9.300   7.253  68.630  1.00  0.00    -0.138 C  
HETATM   16  C   UNL     1     -10.063   6.784  67.374  1.00  0.00    -0.175 C  
HETATM   17  C   UNL     1      -9.981   7.894  66.331  1.00  0.00    -0.192 C  
HETATM   18  O   UNL     1     -11.444   6.495  67.635  1.00  0.00    -0.694 OA 
HETATM   19  H   UNL     1     -10.013  10.787  64.066  1.00  0.00     0.000 HD 
HETATM   20  O   UNL     1     -10.014  10.059  64.676  1.00  0.00    -0.309 OA 
HETATM   21  C   UNL     1     -10.159  10.372  66.008  1.00  0.00    -0.243 A  
HETATM   22  C   UNL     1     -10.161   9.295  66.910  1.00  0.00    -0.327 A  
HETATM   23  H   UNL     1     -11.913   6.206  66.861  1.00  0.00     0.000 HD 
HETATM   24  C   UNL     1     -10.220   9.550  68.308  1.00  0.00    -0.225 A  
HETATM   25  C   UNL     1     -10.315  10.892  68.741  1.00  0.00    -0.198 A  
HETATM   26  O   UNL     1     -10.306  11.198  70.075  1.00  0.00    -0.344 OA 
HETATM   27  C   UNL     1     -10.344  11.966  67.820  1.00  0.00    -0.214 A  
HETATM   28  C   UNL     1     -10.446  13.386  68.273  1.00  0.00    -0.250 C  
HETATM   29  H   UNL     1     -10.370  12.100  70.365  1.00  0.00     0.000 HD 
HETATM   30  C   UNL     1     -10.505  14.466  67.273  1.00  0.00    -0.269 A  
HETATM   31  O   UNL     1     -10.498  13.705  69.454  1.00  0.00     0.009 OA 
HETATM   32  C   UNL     1     -10.674  15.792  67.690  1.00  0.00    -0.310 A  
HETATM   33  C   UNL     1     -10.756  16.824  66.757  1.00  0.00    -0.117 A  
HETATM   34  C   UNL     1     -10.660  16.535  65.396  1.00  0.00    -0.293 A  
HETATM   35  C   UNL     1     -10.486  15.227  64.974  1.00  0.00    -0.411 A  
HETATM   36  C   UNL     1     -10.406  14.187  65.923  1.00  0.00    -0.326 A  
HETATM   37  C   UNL     1     -10.224  12.802  65.469  1.00  0.00    -0.279 C  
HETATM   38  C   UNL     1     -10.254  11.698  66.452  1.00  0.00    -0.256 A  
HETATM   39  O   UNL     1     -10.042  12.553  64.279  1.00  0.00    -0.320 OA 
BRANCH  16  40
HETATM   40  C   UNL     1      -9.481   5.469  66.825  1.00  0.00    -0.140 C  
HETATM   41  O   UNL     1      -9.115   5.347  65.654  1.00  0.00    -0.159 OA 
HETATM   42  C   UNL     1      -9.386   4.301  67.785  1.00  0.00    -0.200 C  
ENDBRANCH  16  40
ENDBRANCH  13  14
ENDBRANCH   4  13
TORSDOF 3
ENDMDL
MODEL       21
REMARK 921   NORMALIZED FREE ENERGY PREDICTED BY IDOCK:   -7.48 KCAL/MOL
REMARK 922        TOTAL FREE ENERGY PREDICTED BY IDOCK:   -9.67 KCAL/MOL
REMARK 923 INTER-LIGAND FREE ENERGY PREDICTED BY IDOCK:   -8.76 KCAL/MOL
REMARK 924 INTRA-LIGAND FREE ENERGY PREDICTED BY IDOCK:   -0.91 KCAL/MOL
REMARK 927      BINDING AFFINITY PREDICTED BY RF-SCORE:    0.00 PKD
ROOT
HETATM    1  C   UNL     1     -10.989   6.169  67.950  1.00  0.00    -0.399 C  
HETATM    2  C   UNL     1     -10.181   7.467  67.880  1.00  0.00    -0.194 C  
HETATM    3  O   UNL     1     -10.740   8.247  66.806  1.00  0.00    -0.267 OA 
HETATM    4  C   UNL     1     -10.007   9.414  66.456  1.00  0.00    -0.269 C  
HETATM    5  H1  UNL     1      -6.038   7.451  67.652  1.00  0.00     0.000 HD 
HETATM    6  C   UNL     1      -8.555   9.072  66.117  1.00  0.00    -0.149 C  
HETATM    7  C   UNL     1      -7.854   8.377  67.285  1.00  0.00    -0.098 C  
HETATM    8  H   UNL     1      -7.491   5.888  66.779  1.00  0.00     0.000 HD 
HETATM    9  H2  UNL     1      -5.943   8.675  66.489  1.00  0.00     0.000 HD 
HETATM   10  N   UNL     1      -6.505   7.915  66.873  1.00  0.00    -0.054 NA 
HETATM   11  C   UNL     1      -8.670   7.163  67.760  1.00  0.00    -0.125 C  
HETATM   12  O   UNL     1      -8.420   6.075  66.853  1.00  0.00    -0.109 OA 
ENDROOT
BRANCH   4  13
HETATM   13  O   UNL     1     -10.060  10.437  67.447  1.00  0.00    -0.180 OA 
BRANCH  13  14
HETATM   14  C   UNL     1     -11.238  11.270  67.507  1.00  0.00    -0.291 C  
HETATM   15  C   UNL     1     -12.153  10.610  68.556  1.00  0.00     0.215 C  
HETATM   16  C   UNL     1     -11.529  10.708  69.963  1.00  0.00    -0.325 C  
HETATM   17  C   UNL     1     -11.545  12.175  70.383  1.00  0.00     0.019 C  
HETATM   18  O   UNL     1     -10.177  10.229  70.009  1.00  0.00    -0.354 OA 
HETATM   19  H   UNL     1     -11.316  15.771  71.103  1.00  0.00     0.000 HD 
HETATM   20  O   UNL     1     -11.362  14.847  70.888  1.00  0.00    -0.273 OA 
HETATM   21  C   UNL     1     -11.100  14.506  69.581  1.00  0.00    -0.228 A  
HETATM   22  C   UNL     1     -11.168  13.139  69.262  1.00  0.00    -0.266 A  
HETATM   23  H   UNL     1      -9.793  10.290  70.876  1.00  0.00     0.000 HD 
HETATM   24  C   UNL     1     -10.994  12.723  67.913  1.00  0.00    -0.262 A  
HETATM   25  C   UNL     1     -10.717  13.709  66.939  1.00  0.00    -0.275 A  
HETATM   26  O   UNL     1     -10.608  13.373  65.617  1.00  0.00    -0.272 OA 
HETATM   27  C   UNL     1     -10.620  15.079  67.278  1.00  0.00    -0.279 A  
HETATM   28  C   UNL     1     -10.326  16.124  66.252  1.00  0.00    -0.328 C  
HETATM   29  H   UNL     1     -10.422  14.035  64.962  1.00  0.00     0.000 HD 
HETATM   30  C   UNL     1     -10.204  17.533  66.663  1.00  0.00    -0.332 A  
HETATM   31  O   UNL     1     -10.165  15.864  65.067  1.00  0.00    -0.484 OA 
HETATM   32  C   UNL     1      -9.857  18.506  65.718  1.00  0.00     0.169 A  
HETATM   33  C   UNL     1      -9.712  19.840  66.093  1.00  0.00    -0.510 A  
HETATM   34  C   UNL     1      -9.925  20.213  67.421  1.00  0.00    -0.570 A  
HETATM   35  C   UNL     1     -10.275  19.258  68.362  1.00  0.00    -0.503 A  
HETATM   36  C   UNL     1     -10.417  17.908  67.975  1.00  0.00    -0.390 A  
HETATM   37  C   UNL     1     -10.786  16.901  68.979  1.00  0.00    -0.308 C  
HETATM   38  C   UNL     1     -10.825  15.472  68.604  1.00  0.00    -0.267 A  
HETATM   39  O   UNL     1     -11.069  17.237  70.128  1.00  0.00     0.338 OA 
BRANCH  16  40
HETATM   40  C   UNL     1     -12.292   9.836  70.976  1.00  0.00    -0.332 C  
HETATM   41  O   UNL     1     -12.128   8.617  71.051  1.00  0.00    -0.287 OA 
HETATM   42  C   UNL     1     -13.282  10.536  71.884  1.00  0.00    -0.526 C  
ENDBRANCH  16  40
ENDBRANCH  13  14
ENDBRANCH   4  13
TORSDOF 3
ENDMDL
MODEL       22
REMARK 921   NORMALIZED FREE ENERGY PREDICTED BY IDOCK:   -7.45 KCAL/MOL
REMARK 922        TOTAL FREE ENERGY PREDICTED BY IDOCK:   -9.64 KCAL/MOL
REMARK 923 INTER-LIGAND FREE ENERGY PREDICTED BY IDOCK:   -8.80 KCAL/MOL
REMARK 924 INTRA-LIGAND FREE ENERGY PREDICTED BY IDOCK:   -0.84 KCAL/MOL
REMARK 927      BINDING AFFINITY PREDICTED BY RF-SCORE:    0.00 PKD
ROOT
HETATM    1  C   UNL     1     -10.269   4.089  64.935  1.00  0.00    -0.211 C  
HETATM    2  C   UNL     1      -9.685   4.298  66.335  1.00  0.00    -0.214 C  
HETATM    3  O   UNL     1      -8.949   5.535  66.298  1.00  0.00    -0.131 OA 
HETATM    4  C   UNL     1      -8.172   5.815  67.455  1.00  0.00    -0.101 C  
HETATM    5  H1  UNL     1      -7.468   1.352  68.238  1.00  0.00     0.000 HD 
HETATM    6  C   UNL     1      -7.204   4.671  67.761  1.00  0.00    -0.066 C  
HETATM    7  C   UNL     1      -7.944   3.350  67.967  1.00  0.00    -0.074 C  
HETATM    8  H   UNL     1      -7.575   1.777  65.975  1.00  0.00     0.000 HD 
HETATM    9  H2  UNL     1      -6.292   2.408  68.839  1.00  0.00     0.000 HD 
HETATM   10  N   UNL     1      -6.974   2.234  68.100  1.00  0.00    -0.046 NA 
HETATM   11  C   UNL     1      -8.874   3.058  66.778  1.00  0.00    -0.147 C  
HETATM   12  O   UNL     1      -8.074   2.538  65.703  1.00  0.00    -0.081 OA 
ENDROOT
BRANCH   4  13
HETATM   13  O   UNL     1      -8.956   6.125  68.605  1.00  0.00    -0.126 OA 
BRANCH  13  14
HETATM   14  C   UNL     1     -10.305   6.600  68.405  1.00  0.00    -0.193 C  
HETATM   15  C   UNL     1     -11.123   6.014  69.571  1.00  0.00    -0.468 C  
HETATM   16  C   UNL     1     -10.681   6.636  70.913  1.00  0.00    -0.235 C  
HETATM   17  C   UNL     1     -11.104   8.101  70.913  1.00  0.00    -0.280 C  
HETATM   18  O   UNL     1      -9.264   6.562  71.122  1.00  0.00    -0.155 OA 
HETATM   19  H   UNL     1     -11.850  11.688  70.623  1.00  0.00     0.000 HD 
HETATM   20  O   UNL     1     -11.643  10.762  70.669  1.00  0.00    -0.322 OA 
HETATM   21  C   UNL     1     -11.180  10.177  69.513  1.00  0.00    -0.238 A  
HETATM   22  C   UNL     1     -10.873   8.808  69.580  1.00  0.00    -0.175 A  
HETATM   23  H   UNL     1      -8.992   6.945  71.948  1.00  0.00     0.000 HD 
HETATM   24  C   UNL     1     -10.472   8.119  68.402  1.00  0.00    -0.205 A  
HETATM   25  C   UNL     1     -10.357   8.856  67.202  1.00  0.00    -0.281 A  
HETATM   26  O   UNL     1     -10.041   8.231  66.026  1.00  0.00    -0.458 OA 
HETATM   27  C   UNL     1     -10.639  10.242  67.154  1.00  0.00    -0.320 A  
HETATM   28  C   UNL     1     -10.517  11.025  65.888  1.00  0.00    -0.240 C  
HETATM   29  H   UNL     1      -9.964   8.727  65.219  1.00  0.00     0.000 HD 
HETATM   30  C   UNL     1     -10.791  12.473  65.899  1.00  0.00    -0.302 A  
HETATM   31  O   UNL     1     -10.183  10.521  64.824  1.00  0.00    -0.341 OA 
HETATM   32  C   UNL     1     -10.609  13.225  64.732  1.00  0.00    -0.402 A  
HETATM   33  C   UNL     1     -10.839  14.599  64.729  1.00  0.00    -0.402 A  
HETATM   34  C   UNL     1     -11.264  15.231  65.898  1.00  0.00    -0.237 A  
HETATM   35  C   UNL     1     -11.454  14.495  67.056  1.00  0.00    -0.383 A  
HETATM   36  C   UNL     1     -11.217  13.104  67.052  1.00  0.00    -0.325 A  
HETATM   37  C   UNL     1     -11.417  12.329  68.284  1.00  0.00    -0.315 C  
HETATM   38  C   UNL     1     -11.062  10.895  68.315  1.00  0.00    -0.324 A  
HETATM   39  O   UNL     1     -11.885  12.863  69.289  1.00  0.00    -0.301 OA 
BRANCH  16  40
HETATM   40  C   UNL     1     -11.297   5.884  72.107  1.00  0.00    -0.288 C  
HETATM   41  O   UNL     1     -12.492   5.973  72.396  1.00  0.00    -0.177 OA 
HETATM   42  C   UNL     1     -10.365   5.030  72.941  1.00  0.00    -0.238 C  
ENDBRANCH  16  40
ENDBRANCH  13  14
ENDBRANCH   4  13
TORSDOF 3
ENDMDL
MODEL       23
REMARK 921   NORMALIZED FREE ENERGY PREDICTED BY IDOCK:   -7.36 KCAL/MOL
REMARK 922        TOTAL FREE ENERGY PREDICTED BY IDOCK:   -9.53 KCAL/MOL
REMARK 923 INTER-LIGAND FREE ENERGY PREDICTED BY IDOCK:   -8.76 KCAL/MOL
REMARK 924 INTRA-LIGAND FREE ENERGY PREDICTED BY IDOCK:   -0.77 KCAL/MOL
REMARK 927      BINDING AFFINITY PREDICTED BY RF-SCORE:    0.00 PKD
ROOT
HETATM    1  C   UNL     1     -10.614  16.293  70.023  1.00  0.00    -0.239 C  
HETATM    2  C   UNL     1     -10.382  16.132  68.519  1.00  0.00    -0.254 C  
HETATM    3  O   UNL     1      -9.008  15.734  68.351  1.00  0.00    -0.178 OA 
HETATM    4  C   UNL     1      -8.540  15.714  67.008  1.00  0.00    -0.224 C  
HETATM    5  H1  UNL     1     -11.356  19.135  65.825  1.00  0.00     0.000 HD 
HETATM    6  C   UNL     1      -8.750  17.068  66.330  1.00  0.00    -0.308 C  
HETATM    7  C   UNL     1     -10.222  17.478  66.337  1.00  0.00    -0.354 C  
HETATM    8  H   UNL     1     -10.630  19.389  67.999  1.00  0.00     0.000 HD 
HETATM    9  H2  UNL     1      -9.951  18.972  64.899  1.00  0.00     0.000 HD 
HETATM   10  N   UNL     1     -10.372  18.862  65.821  1.00  0.00    -0.573 NA 
HETATM   11  C   UNL     1     -10.795  17.417  67.763  1.00  0.00    -0.257 C  
HETATM   12  O   UNL     1     -10.376  18.600  68.463  1.00  0.00    -0.360 OA 
ENDROOT
BRANCH   4  13
HETATM   13  O   UNL     1      -9.112  14.670  66.223  1.00  0.00    -0.251 OA 
BRANCH  13  14
HETATM   14  C   UNL     1      -9.915  13.673  66.891  1.00  0.00    -0.260 C  
HETATM   15  C   UNL     1     -11.209  13.567  66.063  1.00  0.00    -0.305 C  
HETATM   16  C   UNL     1     -10.919  12.970  64.671  1.00  0.00    -0.342 C  
HETATM   17  C   UNL     1     -10.524  11.508  64.859  1.00  0.00    -0.345 C  
HETATM   18  O   UNL     1      -9.859  13.650  63.982  1.00  0.00    -0.608 OA 
HETATM   19  H   UNL     1      -9.242   8.124  65.495  1.00  0.00     0.000 HD 
HETATM   20  O   UNL     1      -9.553   9.010  65.353  1.00  0.00    -0.191 OA 
HETATM   21  C   UNL     1      -9.140   9.959  66.260  1.00  0.00    -0.155 A  
HETATM   22  C   UNL     1      -9.600  11.270  66.050  1.00  0.00    -0.245 A  
HETATM   23  H   UNL     1      -9.681  13.282  63.125  1.00  0.00     0.000 HD 
HETATM   24  C   UNL     1      -9.284  12.285  66.997  1.00  0.00    -0.205 A  
HETATM   25  C   UNL     1      -8.477  11.940  68.104  1.00  0.00    -0.163 A  
HETATM   26  O   UNL     1      -8.199  12.859  69.079  1.00  0.00    -0.336 OA 
HETATM   27  C   UNL     1      -7.994  10.622  68.287  1.00  0.00    -0.116 A  
HETATM   28  C   UNL     1      -7.140  10.254  69.454  1.00  0.00    -0.094 C  
HETATM   29  H   UNL     1      -7.657  12.627  69.823  1.00  0.00     0.000 HD 
HETATM   30  C   UNL     1      -6.636   8.875  69.582  1.00  0.00    -0.043 A  
HETATM   31  O   UNL     1      -6.818  11.056  70.322  1.00  0.00    -0.217 OA 
HETATM   32  C   UNL     1      -5.775   8.542  70.635  1.00  0.00    -0.028 A  
HETATM   33  C   UNL     1      -5.269   7.250  70.758  1.00  0.00    -0.023 A  
HETATM   34  C   UNL     1      -5.631   6.275  69.827  1.00  0.00    -0.014 A  
HETATM   35  C   UNL     1      -6.487   6.593  68.785  1.00  0.00    -0.046 A  
HETATM   36  C   UNL     1      -6.994   7.904  68.666  1.00  0.00    -0.071 A  
HETATM   37  C   UNL     1      -7.899   8.235  67.557  1.00  0.00    -0.106 C  
HETATM   38  C   UNL     1      -8.340   9.632  67.363  1.00  0.00    -0.114 A  
HETATM   39  O   UNL     1      -8.297   7.358  66.793  1.00  0.00    -0.117 OA 
BRANCH  16  40
HETATM   40  C   UNL     1     -12.139  13.096  63.742  1.00  0.00    -0.495 C  
HETATM   41  O   UNL     1     -12.546  14.185  63.331  1.00  0.00    -0.818 OA 
HETATM   42  C   UNL     1     -12.849  11.815  63.354  1.00  0.00    -0.310 C  
ENDBRANCH  16  40
ENDBRANCH  13  14
ENDBRANCH   4  13
TORSDOF 3
ENDMDL
MODEL       24
REMARK 921   NORMALIZED FREE ENERGY PREDICTED BY IDOCK:   -7.27 KCAL/MOL
REMARK 922        TOTAL FREE ENERGY PREDICTED BY IDOCK:   -9.43 KCAL/MOL
REMARK 923 INTER-LIGAND FREE ENERGY PREDICTED BY IDOCK:   -8.65 KCAL/MOL
REMARK 924 INTRA-LIGAND FREE ENERGY PREDICTED BY IDOCK:   -0.78 KCAL/MOL
REMARK 927      BINDING AFFINITY PREDICTED BY RF-SCORE:    0.00 PKD
ROOT
HETATM    1  C   UNL     1     -13.134  12.057  63.573  1.00  0.00    -0.154 C  
HETATM    2  C   UNL     1     -11.962  12.346  64.514  1.00  0.00    -0.402 C  
HETATM    3  O   UNL     1     -12.401  12.003  65.842  1.00  0.00    -0.463 OA 
HETATM    4  C   UNL     1     -11.516  12.377  66.891  1.00  0.00    -0.360 C  
HETATM    5  H1  UNL     1     -10.032  16.020  64.534  1.00  0.00     0.000 HD 
HETATM    6  C   UNL     1     -11.204  13.873  66.843  1.00  0.00    -0.324 C  
HETATM    7  C   UNL     1     -10.586  14.276  65.504  1.00  0.00    -0.340 C  
HETATM    8  H   UNL     1     -12.258  15.613  64.093  1.00  0.00     0.000 HD 
HETATM    9  H2  UNL     1      -9.920  16.126  66.218  1.00  0.00     0.000 HD 
HETATM   10  N   UNL     1     -10.445  15.751  65.428  1.00  0.00    -0.394 NA 
HETATM   11  C   UNL     1     -11.466  13.801  64.337  1.00  0.00    -0.372 C  
HETATM   12  O   UNL     1     -12.563  14.720  64.202  1.00  0.00    -0.784 OA 
ENDROOT
BRANCH   4  13
HETATM   13  O   UNL     1     -10.310  11.617  66.914  1.00  0.00    -0.210 OA 
BRANCH  13  14
HETATM   14  C   UNL     1     -10.405  10.180  66.816  1.00  0.00    -0.222 C  
HETATM   15  C   UNL     1      -9.722   9.814  65.484  1.00  0.00    -0.382 C  
HETATM   16  C   UNL     1      -8.208  10.105  65.550  1.00  0.00    -0.156 C  
HETATM   17  C   UNL     1      -7.582   9.115  66.527  1.00  0.00    -0.093 C  
HETATM   18  O   UNL     1      -7.915  11.439  65.990  1.00  0.00    -0.352 OA 
HETATM   19  H   UNL     1      -6.278   6.922  69.171  1.00  0.00     0.000 HD 
HETATM   20  O   UNL     1      -6.639   7.498  68.508  1.00  0.00    -0.046 OA 
HETATM   21  C   UNL     1      -7.881   8.030  68.765  1.00  0.00    -0.114 A  
HETATM   22  C   UNL     1      -8.416   8.882  67.784  1.00  0.00    -0.125 A  
HETATM   23  H   UNL     1      -6.983  11.617  66.030  1.00  0.00     0.000 HD 
HETATM   24  C   UNL     1      -9.732   9.398  67.944  1.00  0.00    -0.177 A  
HETATM   25  C   UNL     1     -10.445   9.062  69.116  1.00  0.00    -0.225 A  
HETATM   26  O   UNL     1     -11.738   9.475  69.289  1.00  0.00    -0.380 OA 
HETATM   27  C   UNL     1      -9.883   8.228  70.112  1.00  0.00    -0.184 A  
HETATM   28  C   UNL     1     -10.633   7.871  71.353  1.00  0.00    -0.211 C  
HETATM   29  H   UNL     1     -12.218   9.249  70.077  1.00  0.00     0.000 HD 
HETATM   30  C   UNL     1      -9.991   7.025  72.373  1.00  0.00    -0.184 A  
HETATM   31  O   UNL     1     -11.772   8.264  71.578  1.00  0.00    -0.271 OA 
HETATM   32  C   UNL     1     -10.662   6.748  73.571  1.00  0.00    -0.319 A  
HETATM   33  C   UNL     1     -10.061   5.970  74.558  1.00  0.00    -0.328 A  
HETATM   34  C   UNL     1      -8.782   5.454  74.348  1.00  0.00    -0.118 A  
HETATM   35  C   UNL     1      -8.112   5.717  73.164  1.00  0.00    -0.117 A  
HETATM   36  C   UNL     1      -8.726   6.508  72.170  1.00  0.00    -0.131 A  
HETATM   37  C   UNL     1      -8.010   6.786  70.918  1.00  0.00    -0.106 C  
HETATM   38  C   UNL     1      -8.601   7.705  69.923  1.00  0.00    -0.138 A  
HETATM   39  O   UNL     1      -6.925   6.254  70.688  1.00  0.00    -0.060 OA 
BRANCH  16  40
HETATM   40  C   UNL     1      -7.557   9.994  64.160  1.00  0.00    -0.140 C  
HETATM   41  O   UNL     1      -8.210   9.748  63.143  1.00  0.00    -0.133 OA 
HETATM   42  C   UNL     1      -6.056  10.183  64.083  1.00  0.00    -0.137 C  
ENDBRANCH  16  40
ENDBRANCH  13  14
ENDBRANCH   4  13
TORSDOF 3
ENDMDL
MODEL       25
REMARK 921   NORMALIZED FREE ENERGY PREDICTED BY IDOCK:   -7.23 KCAL/MOL
REMARK 922        TOTAL FREE ENERGY PREDICTED BY IDOCK:   -9.39 KCAL/MOL
REMARK 923 INTER-LIGAND FREE ENERGY PREDICTED BY IDOCK:   -8.51 KCAL/MOL
REMARK 924 INTRA-LIGAND FREE ENERGY PREDICTED BY IDOCK:   -0.88 KCAL/MOL
REMARK 927      BINDING AFFINITY PREDICTED BY RF-SCORE:    0.00 PKD
ROOT
HETATM    1  C   UNL     1     -11.036  15.649  67.029  1.00  0.00    -0.261 C  
HETATM    2  C   UNL     1     -11.278  14.176  66.686  1.00  0.00    -0.325 C  
HETATM    3  O   UNL     1      -9.982  13.577  66.490  1.00  0.00    -0.272 OA 
HETATM    4  C   UNL     1      -9.997  12.251  65.978  1.00  0.00    -0.252 C  
HETATM    5  H1  UNL     1     -13.872  13.036  63.655  1.00  0.00     0.000 HD 
HETATM    6  C   UNL     1     -10.783  12.172  64.669  1.00  0.00    -0.346 C  
HETATM    7  C   UNL     1     -12.223  12.651  64.849  1.00  0.00    -0.471 C  
HETATM    8  H   UNL     1     -12.570  14.937  63.739  1.00  0.00     0.000 HD 
HETATM    9  H2  UNL     1     -12.864  11.828  63.036  1.00  0.00     0.000 HD 
HETATM   10  N   UNL     1     -12.910  12.717  63.535  1.00  0.00    -0.701 NA 
HETATM   11  C   UNL     1     -12.254  14.047  65.494  1.00  0.00    -0.439 C  
HETATM   12  O   UNL     1     -11.971  15.017  64.471  1.00  0.00    -0.440 OA 
ENDROOT
BRANCH   4  13
HETATM   13  O   UNL     1     -10.484  11.288  66.910  1.00  0.00    -0.224 OA 
BRANCH  13  14
HETATM   14  C   UNL     1      -9.529  10.423  67.561  1.00  0.00    -0.149 C  
HETATM   15  C   UNL     1      -9.821  10.550  69.068  1.00  0.00    -0.224 C  
HETATM   16  C   UNL     1     -11.198   9.944  69.410  1.00  0.00    -0.153 C  
HETATM   17  C   UNL     1     -11.108   8.434  69.215  1.00  0.00     0.142 C  
HETATM   18  O   UNL     1     -12.253  10.456  68.582  1.00  0.00    -0.750 OA 
HETATM   19  H   UNL     1     -10.850   4.871  68.354  1.00  0.00     0.000 HD 
HETATM   20  O   UNL     1     -10.904   5.799  68.547  1.00  0.00    -0.247 OA 
HETATM   21  C   UNL     1     -10.250   6.647  67.684  1.00  0.00    -0.177 A  
HETATM   22  C   UNL     1     -10.329   8.020  67.970  1.00  0.00    -0.262 A  
HETATM   23  H   UNL     1     -13.101  10.082  68.793  1.00  0.00     0.000 HD 
HETATM   24  C   UNL     1      -9.606   8.947  67.169  1.00  0.00    -0.225 A  
HETATM   25  C   UNL     1      -8.858   8.449  66.078  1.00  0.00    -0.167 A  
HETATM   26  O   UNL     1      -8.089   9.288  65.317  1.00  0.00    -0.112 OA 
HETATM   27  C   UNL     1      -8.811   7.066  65.782  1.00  0.00    -0.088 A  
HETATM   28  C   UNL     1      -8.023   6.536  64.630  1.00  0.00    -0.116 C  
HETATM   29  H   UNL     1      -7.587   8.953  64.585  1.00  0.00     0.000 HD 
HETATM   30  C   UNL     1      -8.034   5.091  64.345  1.00  0.00    -0.104 A  
HETATM   31  O   UNL     1      -7.366   7.254  63.887  1.00  0.00    -0.075 OA 
HETATM   32  C   UNL     1      -7.355   4.597  63.223  1.00  0.00    -0.053 A  
HETATM   33  C   UNL     1      -7.375   3.236  62.923  1.00  0.00    -0.053 A  
HETATM   34  C   UNL     1      -8.069   2.355  63.754  1.00  0.00    -0.081 A  
HETATM   35  C   UNL     1      -8.737   2.833  64.870  1.00  0.00    -0.113 A  
HETATM   36  C   UNL     1      -8.715   4.213  65.165  1.00  0.00    -0.123 A  
HETATM   37  C   UNL     1      -9.428   4.713  66.348  1.00  0.00    -0.166 C  
HETATM   38  C   UNL     1      -9.503   6.167  66.598  1.00  0.00    -0.173 A  
HETATM   39  O   UNL     1      -9.958   3.931  67.136  1.00  0.00    -0.134 OA 
BRANCH  16  40
HETATM   40  C   UNL     1     -11.620  10.290  70.849  1.00  0.00    -0.365 C  
HETATM   41  O   UNL     1     -11.181   9.683  71.828  1.00  0.00    -0.323 OA 
HETATM   42  C   UNL     1     -12.623  11.411  71.025  1.00  0.00    -0.487 C  
ENDBRANCH  16  40
ENDBRANCH  13  14
ENDBRANCH   4  13
TORSDOF 3
ENDMDL
MODEL       26
REMARK 921   NORMALIZED FREE ENERGY PREDICTED BY IDOCK:   -7.07 KCAL/MOL
REMARK 922        TOTAL FREE ENERGY PREDICTED BY IDOCK:   -9.20 KCAL/MOL
REMARK 923 INTER-LIGAND FREE ENERGY PREDICTED BY IDOCK:   -8.27 KCAL/MOL
REMARK 924 INTRA-LIGAND FREE ENERGY PREDICTED BY IDOCK:   -0.94 KCAL/MOL
REMARK 927      BINDING AFFINITY PREDICTED BY RF-SCORE:    0.00 PKD
ROOT
HETATM    1  C   UNL     1     -10.033   4.739  71.130  1.00  0.00    -0.273 C  
HETATM    2  C   UNL     1      -9.512   6.179  71.133  1.00  0.00    -0.167 C  
HETATM    3  O   UNL     1      -9.509   6.622  69.762  1.00  0.00    -0.148 OA 
HETATM    4  C   UNL     1      -8.880   7.876  69.530  1.00  0.00    -0.142 C  
HETATM    5  H1  UNL     1      -5.950   7.210  72.994  1.00  0.00     0.000 HD 
HETATM    6  C   UNL     1      -7.444   7.880  70.055  1.00  0.00    -0.079 C  
HETATM    7  C   UNL     1      -7.393   7.568  71.551  1.00  0.00    -0.075 C  
HETATM    8  H   UNL     1      -6.459   5.214  71.959  1.00  0.00     0.000 HD 
HETATM    9  H2  UNL     1      -5.421   8.235  71.757  1.00  0.00     0.000 HD 
HETATM   10  N   UNL     1      -5.984   7.419  71.996  1.00  0.00    -0.037 NA 
HETATM   11  C   UNL     1      -8.150   6.265  71.859  1.00  0.00    -0.109 C  
HETATM   12  O   UNL     1      -7.296   5.161  71.514  1.00  0.00    -0.080 OA 
ENDROOT
BRANCH   4  13
HETATM   13  O   UNL     1      -9.607   8.983  70.059  1.00  0.00    -0.169 OA 
BRANCH  13  14
HETATM   14  C   UNL     1     -10.677   9.541  69.266  1.00  0.00    -0.222 C  
HETATM   15  C   UNL     1     -11.972   8.938  69.843  1.00  0.00     0.582 C  
HETATM   16  C   UNL     1     -12.227   9.462  71.271  1.00  0.00    -0.345 C  
HETATM   17  C   UNL     1     -12.565  10.946  71.175  1.00  0.00    -0.532 C  
HETATM   18  O   UNL     1     -11.093   9.300  72.135  1.00  0.00    -0.247 OA 
HETATM   19  H   UNL     1     -13.000  14.578  70.824  1.00  0.00     0.000 HD 
HETATM   20  O   UNL     1     -12.860  13.641  70.896  1.00  0.00    -0.307 OA 
HETATM   21  C   UNL     1     -11.905  13.095  70.071  1.00  0.00    -0.290 A  
HETATM   22  C   UNL     1     -11.699  11.710  70.177  1.00  0.00    -0.381 A  
HETATM   23  H   UNL     1     -11.251   9.623  73.015  1.00  0.00     0.000 HD 
HETATM   24  C   UNL     1     -10.789  11.065  69.294  1.00  0.00    -0.285 A  
HETATM   25  C   UNL     1     -10.088  11.858  68.358  1.00  0.00    -0.206 A  
HETATM   26  O   UNL     1      -9.253  11.282  67.440  1.00  0.00    -0.159 OA 
HETATM   27  C   UNL     1     -10.282  13.258  68.282  1.00  0.00    -0.250 A  
HETATM   28  C   UNL     1      -9.542  14.101  67.295  1.00  0.00    -0.234 C  
HETATM   29  H   UNL     1      -8.782  11.815  66.811  1.00  0.00     0.000 HD 
HETATM   30  C   UNL     1      -9.756  15.558  67.278  1.00  0.00    -0.218 A  
HETATM   31  O   UNL     1      -8.742  13.637  66.492  1.00  0.00    -0.068 OA 
HETATM   32  C   UNL     1      -9.012  16.361  66.404  1.00  0.00    -0.340 A  
HETATM   33  C   UNL     1      -9.182  17.744  66.392  1.00  0.00    -0.257 A  
HETATM   34  C   UNL     1     -10.110  18.334  67.251  1.00  0.00    -0.366 A  
HETATM   35  C   UNL     1     -10.856  17.548  68.114  1.00  0.00    -0.246 A  
HETATM   36  C   UNL     1     -10.676  16.148  68.123  1.00  0.00    -0.315 A  
HETATM   37  C   UNL     1     -11.468  15.320  69.042  1.00  0.00    -0.324 C  
HETATM   38  C   UNL     1     -11.203  13.870  69.136  1.00  0.00    -0.311 A  
HETATM   39  O   UNL     1     -12.355  15.824  69.731  1.00  0.00    -0.319 OA 
BRANCH  16  40
HETATM   40  C   UNL     1     -13.362   8.682  71.958  1.00  0.00    -0.392 C  
HETATM   41  O   UNL     1     -14.104   9.199  72.797  1.00  0.00    -0.518 OA 
HETATM   42  C   UNL     1     -13.532   7.226  71.576  1.00  0.00    -0.439 C  
ENDBRANCH  16  40
ENDBRANCH  13  14
ENDBRANCH   4  13
TORSDOF 3
ENDMDL
MODEL       27
REMARK 921   NORMALIZED FREE ENERGY PREDICTED BY IDOCK:   -7.04 KCAL/MOL
REMARK 922        TOTAL FREE ENERGY PREDICTED BY IDOCK:   -9.17 KCAL/MOL
REMARK 923 INTER-LIGAND FREE ENERGY PREDICTED BY IDOCK:   -8.64 KCAL/MOL
REMARK 924 INTRA-LIGAND FREE ENERGY PREDICTED BY IDOCK:   -0.53 KCAL/MOL
REMARK 927      BINDING AFFINITY PREDICTED BY RF-SCORE:    0.00 PKD
ROOT
HETATM    1  C   UNL     1     -11.327  11.531  63.898  1.00  0.00    -0.400 C  
HETATM    2  C   UNL     1     -10.877  12.310  65.137  1.00  0.00    -0.301 C  
HETATM    3  O   UNL     1     -11.729  11.895  66.221  1.00  0.00    -0.506 OA 
HETATM    4  C   UNL     1     -11.594  12.644  67.422  1.00  0.00    -0.360 C  
HETATM    5  H1  UNL     1     -10.497  16.442  65.098  1.00  0.00     0.000 HD 
HETATM    6  C   UNL     1     -11.807  14.137  67.169  1.00  0.00    -0.454 C  
HETATM    7  C   UNL     1     -10.821  14.677  66.133  1.00  0.00    -0.321 C  
HETATM    8  H   UNL     1     -12.008  15.167  63.912  1.00  0.00     0.000 HD 
HETATM    9  H2  UNL     1     -11.201  16.676  66.618  1.00  0.00     0.000 HD 
HETATM   10  N   UNL     1     -11.155  16.082  65.790  1.00  0.00    -0.114 NA 
HETATM   11  C   UNL     1     -10.864  13.830  64.850  1.00  0.00    -0.391 C  
HETATM   12  O   UNL     1     -12.015  14.234  64.088  1.00  0.00    -0.435 OA 
ENDROOT
BRANCH   4  13
HETATM   13  O   UNL     1     -10.355  12.424  68.093  1.00  0.00    -0.212 OA 
BRANCH  13  14
HETATM   14  C   UNL     1      -9.636  11.203  67.818  1.00  0.00    -0.172 C  
HETATM   15  C   UNL     1      -8.295  11.645  67.204  1.00  0.00    -0.164 C  
HETATM   16  C   UNL     1      -7.433  12.382  68.250  1.00  0.00    -0.124 C  
HETATM   17  C   UNL     1      -6.998  11.365  69.301  1.00  0.00    -0.115 C  
HETATM   18  O   UNL     1      -8.138  13.448  68.902  1.00  0.00    -0.335 OA 
HETATM   19  H   UNL     1      -6.337   8.894  71.939  1.00  0.00     0.000 HD 
HETATM   20  O   UNL     1      -6.540   9.524  71.258  1.00  0.00    -0.233 OA 
HETATM   21  C   UNL     1      -7.800   9.456  70.711  1.00  0.00    -0.118 A  
HETATM   22  C   UNL     1      -8.100  10.388  69.703  1.00  0.00    -0.116 A  
HETATM   23  H   UNL     1      -7.607  13.902  69.546  1.00  0.00     0.000 HD 
HETATM   24  C   UNL     1      -9.353  10.320  69.033  1.00  0.00    -0.195 A  
HETATM   25  C   UNL     1     -10.275   9.329  69.438  1.00  0.00    -0.210 A  
HETATM   26  O   UNL     1     -11.467   9.175  68.783  1.00  0.00    -0.268 OA 
HETATM   27  C   UNL     1      -9.973   8.416  70.476  1.00  0.00    -0.205 A  
HETATM   28  C   UNL     1     -10.946   7.368  70.908  1.00  0.00    -0.253 C  
HETATM   29  H   UNL     1     -12.087   8.509  69.055  1.00  0.00     0.000 HD 
HETATM   30  C   UNL     1     -10.596   6.462  72.015  1.00  0.00    -0.244 A  
HETATM   31  O   UNL     1     -12.047   7.229  70.389  1.00  0.00    -0.162 OA 
HETATM   32  C   UNL     1     -11.532   5.526  72.472  1.00  0.00    -0.303 A  
HETATM   33  C   UNL     1     -11.228   4.677  73.534  1.00  0.00    -0.400 A  
HETATM   34  C   UNL     1      -9.974   4.754  74.143  1.00  0.00    -0.210 A  
HETATM   35  C   UNL     1      -9.039   5.672  73.693  1.00  0.00    -0.127 A  
HETATM   36  C   UNL     1      -9.355   6.530  72.619  1.00  0.00    -0.145 A  
HETATM   37  C   UNL     1      -8.360   7.502  72.149  1.00  0.00    -0.110 C  
HETATM   38  C   UNL     1      -8.725   8.478  71.102  1.00  0.00    -0.215 A  
HETATM   39  O   UNL     1      -7.222   7.507  72.616  1.00  0.00    -0.070 OA 
BRANCH  16  40
HETATM   40  C   UNL     1      -6.213  13.055  67.597  1.00  0.00    -0.157 C  
HETATM   41  O   UNL     1      -5.477  12.460  66.806  1.00  0.00    -0.335 OA 
HETATM   42  C   UNL     1      -5.931  14.494  67.976  1.00  0.00    -0.158 C  
ENDBRANCH  16  40
ENDBRANCH  13  14
ENDBRANCH   4  13
TORSDOF 3
ENDMDL
MODEL       28
REMARK 921   NORMALIZED FREE ENERGY PREDICTED BY IDOCK:   -7.02 KCAL/MOL
REMARK 922        TOTAL FREE ENERGY PREDICTED BY IDOCK:   -9.13 KCAL/MOL
REMARK 923 INTER-LIGAND FREE ENERGY PREDICTED BY IDOCK:   -8.22 KCAL/MOL
REMARK 924 INTRA-LIGAND FREE ENERGY PREDICTED BY IDOCK:   -0.91 KCAL/MOL
REMARK 927      BINDING AFFINITY PREDICTED BY RF-SCORE:    0.00 PKD
ROOT
HETATM    1  C   UNL     1     -10.521  18.228  66.503  1.00  0.00    -0.378 C  
HETATM    2  C   UNL     1      -9.783  16.986  67.009  1.00  0.00    -0.263 C  
HETATM    3  O   UNL     1     -10.723  16.240  67.806  1.00  0.00    -0.315 OA 
HETATM    4  C   UNL     1     -10.175  15.141  68.523  1.00  0.00    -0.231 C  
HETATM    5  H1  UNL     1      -6.130  17.259  68.958  1.00  0.00     0.000 HD 
HETATM    6  C   UNL     1      -9.014  15.587  69.413  1.00  0.00    -0.275 C  
HETATM    7  C   UNL     1      -7.904  16.252  68.598  1.00  0.00    -0.202 C  
HETATM    8  H   UNL     1      -7.860  18.783  69.012  1.00  0.00     0.000 HD 
HETATM    9  H2  UNL     1      -6.503  16.114  70.145  1.00  0.00     0.000 HD 
HETATM   10  N   UNL     1      -6.871  16.815  69.502  1.00  0.00    -0.204 NA 
HETATM   11  C   UNL     1      -8.474  17.385  67.730  1.00  0.00    -0.223 C  
HETATM   12  O   UNL     1      -8.663  18.537  68.569  1.00  0.00    -0.321 OA 
ENDROOT
BRANCH   4  13
HETATM   13  O   UNL     1      -9.773  14.060  67.685  1.00  0.00    -0.220 OA 
BRANCH  13  14
HETATM   14  C   UNL     1     -10.630  12.900  67.609  1.00  0.00    -0.223 C  
HETATM   15  C   UNL     1     -11.664  13.226  66.514  1.00  0.00    -0.423 C  
HETATM   16  C   UNL     1     -10.986  13.306  65.131  1.00  0.00    -0.299 C  
HETATM   17  C   UNL     1     -10.529  11.902  64.749  1.00  0.00    -0.333 C  
HETATM   18  O   UNL     1      -9.850  14.182  65.117  1.00  0.00    -0.566 OA 
HETATM   19  H   UNL     1      -9.164   8.546  64.132  1.00  0.00     0.000 HD 
HETATM   20  O   UNL     1      -9.504   9.413  64.321  1.00  0.00    -0.052 OA 
HETATM   21  C   UNL     1      -9.412   9.838  65.626  1.00  0.00    -0.246 A  
HETATM   22  C   UNL     1      -9.914  11.120  65.907  1.00  0.00    -0.285 A  
HETATM   23  H   UNL     1      -9.433  14.232  64.264  1.00  0.00     0.000 HD 
HETATM   24  C   UNL     1      -9.931  11.589  67.250  1.00  0.00    -0.212 A  
HETATM   25  C   UNL     1      -9.399  10.754  68.258  1.00  0.00    -0.161 A  
HETATM   26  O   UNL     1      -9.452  11.127  69.573  1.00  0.00    -0.394 OA 
HETATM   27  C   UNL     1      -8.867   9.477  67.958  1.00  0.00    -0.123 A  
HETATM   28  C   UNL     1      -8.303   8.592  69.020  1.00  0.00    -0.119 C  
HETATM   29  H   UNL     1      -9.094  10.566  70.251  1.00  0.00     0.000 HD 
HETATM   30  C   UNL     1      -7.732   7.285  68.650  1.00  0.00    -0.120 A  
HETATM   31  O   UNL     1      -8.276   8.907  70.203  1.00  0.00    -0.104 OA 
HETATM   32  C   UNL     1      -7.136   6.483  69.631  1.00  0.00    -0.072 A  
HETATM   33  C   UNL     1      -6.569   5.255  69.297  1.00  0.00    -0.047 A  
HETATM   34  C   UNL     1      -6.603   4.816  67.973  1.00  0.00    -0.046 A  
HETATM   35  C   UNL     1      -7.197   5.599  66.996  1.00  0.00    -0.075 A  
HETATM   36  C   UNL     1      -7.767   6.843  67.342  1.00  0.00    -0.110 A  
HETATM   37  C   UNL     1      -8.392   7.670  66.301  1.00  0.00    -0.133 C  
HETATM   38  C   UNL     1      -8.887   9.020  66.637  1.00  0.00    -0.152 A  
HETATM   39  O   UNL     1      -8.511   7.244  65.153  1.00  0.00    -0.115 OA 
BRANCH  16  40
HETATM   40  C   UNL     1     -11.943  13.881  64.071  1.00  0.00    -0.387 C  
HETATM   41  O   UNL     1     -12.499  13.171  63.231  1.00  0.00    -0.720 OA 
HETATM   42  C   UNL     1     -12.171  15.378  64.084  1.00  0.00    -0.075 C  
ENDBRANCH  16  40
ENDBRANCH  13  14
ENDBRANCH   4  13
TORSDOF 3
ENDMDL
MODEL       29
REMARK 921   NORMALIZED FREE ENERGY PREDICTED BY IDOCK:   -6.90 KCAL/MOL
REMARK 922        TOTAL FREE ENERGY PREDICTED BY IDOCK:   -9.00 KCAL/MOL
REMARK 923 INTER-LIGAND FREE ENERGY PREDICTED BY IDOCK:   -8.13 KCAL/MOL
REMARK 924 INTRA-LIGAND FREE ENERGY PREDICTED BY IDOCK:   -0.86 KCAL/MOL
REMARK 927      BINDING AFFINITY PREDICTED BY RF-SCORE:    0.00 PKD
ROOT
HETATM    1  C   UNL     1     -10.013  10.600  62.433  1.00  0.00     0.154 C  
HETATM    2  C   UNL     1     -10.077  11.454  63.702  1.00  0.00    -0.377 C  
HETATM    3  O   UNL     1     -10.048  10.544  64.817  1.00  0.00    -0.318 OA 
HETATM    4  C   UNL     1     -10.288  11.132  66.089  1.00  0.00    -0.250 C  
HETATM    5  H1  UNL     1     -13.023  14.324  64.256  1.00  0.00     0.000 HD 
HETATM    6  C   UNL     1     -11.615  11.892  66.105  1.00  0.00    -0.299 C  
HETATM    7  C   UNL     1     -11.649  12.985  65.037  1.00  0.00    -0.325 C  
HETATM    8  H   UNL     1     -13.211  12.331  63.111  1.00  0.00     0.000 HD 
HETATM    9  H2  UNL     1     -13.310  13.939  65.877  1.00  0.00     0.000 HD 
HETATM   10  N   UNL     1     -13.001  13.594  64.969  1.00  0.00    -0.744 NA 
HETATM   11  C   UNL     1     -11.296  12.406  63.657  1.00  0.00    -0.482 C  
HETATM   12  O   UNL     1     -12.463  11.747  63.138  1.00  0.00    -0.490 OA 
ENDROOT
BRANCH   4  13
HETATM   13  O   UNL     1      -9.227  11.974  66.535  1.00  0.00    -0.209 OA 
BRANCH  13  14
HETATM   14  C   UNL     1      -9.398  12.688  67.778  1.00  0.00    -0.198 C  
HETATM   15  C   UNL     1      -9.110  11.658  68.886  1.00  0.00     0.060 C  
HETATM   16  C   UNL     1      -7.625  11.242  68.872  1.00  0.00    -0.126 C  
HETATM   17  C   UNL     1      -6.796  12.445  69.314  1.00  0.00    -0.028 C  
HETATM   18  O   UNL     1      -7.176  10.821  67.576  1.00  0.00    -0.087 OA 
HETATM   19  H   UNL     1      -4.914  15.517  70.034  1.00  0.00     0.000 HD 
HETATM   20  O   UNL     1      -5.418  14.740  69.825  1.00  0.00    -0.093 OA 
HETATM   21  C   UNL     1      -6.525  14.919  69.030  1.00  0.00    -0.102 A  
HETATM   22  C   UNL     1      -7.271  13.769  68.721  1.00  0.00    -0.106 A  
HETATM   23  H   UNL     1      -6.260  10.565  67.568  1.00  0.00     0.000 HD 
HETATM   24  C   UNL     1      -8.476  13.892  67.976  1.00  0.00    -0.173 A  
HETATM   25  C   UNL     1      -8.862  15.178  67.534  1.00  0.00    -0.182 A  
HETATM   26  O   UNL     1     -10.046  15.363  66.873  1.00  0.00    -0.249 OA 
HETATM   27  C   UNL     1      -8.086  16.325  67.825  1.00  0.00    -0.160 A  
HETATM   28  C   UNL     1      -8.489  17.685  67.359  1.00  0.00    -0.221 C  
HETATM   29  H   UNL     1     -10.305  16.227  66.576  1.00  0.00     0.000 HD 
HETATM   30  C   UNL     1      -7.629  18.842  67.661  1.00  0.00    -0.247 A  
HETATM   31  O   UNL     1      -9.510  17.892  66.715  1.00  0.00    -0.269 OA 
HETATM   32  C   UNL     1      -7.964  20.108  67.164  1.00  0.00    -0.363 A  
HETATM   33  C   UNL     1      -7.150  21.209  67.418  1.00  0.00    -0.323 A  
HETATM   34  C   UNL     1      -5.993  21.052  68.183  1.00  0.00    -0.394 A  
HETATM   35  C   UNL     1      -5.656  19.805  68.684  1.00  0.00    -0.236 A  
HETATM   36  C   UNL     1      -6.484  18.694  68.420  1.00  0.00    -0.236 A  
HETATM   37  C   UNL     1      -6.119  17.374  68.952  1.00  0.00    -0.189 C  
HETATM   38  C   UNL     1      -6.921  16.188  68.585  1.00  0.00    -0.141 A  
HETATM   39  O   UNL     1      -5.156  17.249  69.707  1.00  0.00    -0.157 OA 
BRANCH  16  40
HETATM   40  C   UNL     1      -7.373  10.033  69.790  1.00  0.00    -0.141 C  
HETATM   41  O   UNL     1      -6.971  10.158  70.949  1.00  0.00    -0.341 OA 
HETATM   42  C   UNL     1      -7.625   8.658  69.208  1.00  0.00    -0.094 C  
ENDBRANCH  16  40
ENDBRANCH  13  14
ENDBRANCH   4  13
TORSDOF 3
ENDMDL
MODEL       30
REMARK 921   NORMALIZED FREE ENERGY PREDICTED BY IDOCK:   -6.90 KCAL/MOL
REMARK 922        TOTAL FREE ENERGY PREDICTED BY IDOCK:   -8.99 KCAL/MOL
REMARK 923 INTER-LIGAND FREE ENERGY PREDICTED BY IDOCK:   -8.14 KCAL/MOL
REMARK 924 INTRA-LIGAND FREE ENERGY PREDICTED BY IDOCK:   -0.85 KCAL/MOL
REMARK 927      BINDING AFFINITY PREDICTED BY RF-SCORE:    0.00 PKD
ROOT
HETATM    1  C   UNL     1     -13.101  14.243  71.642  1.00  0.00    -0.417 C  
HETATM    2  C   UNL     1     -12.477  14.464  70.261  1.00  0.00    -0.354 C  
HETATM    3  O   UNL     1     -11.370  13.548  70.155  1.00  0.00    -0.081 OA 
HETATM    4  C   UNL     1     -10.540  13.727  69.014  1.00  0.00    -0.139 C  
HETATM    5  H1  UNL     1     -11.364  18.238  68.945  1.00  0.00     0.000 HD 
HETATM    6  C   UNL     1     -10.009  15.159  68.937  1.00  0.00    -0.227 C  
HETATM    7  C   UNL     1     -11.147  16.179  68.889  1.00  0.00    -0.347 C  
HETATM    8  H   UNL     1     -11.330  17.447  71.111  1.00  0.00     0.000 HD 
HETATM    9  H2  UNL     1      -9.901  17.737  68.261  1.00  0.00     0.000 HD 
HETATM   10  N   UNL     1     -10.604  17.558  68.978  1.00  0.00    -0.244 NA 
HETATM   11  C   UNL     1     -12.124  15.955  70.054  1.00  0.00    -0.244 C  
HETATM   12  O   UNL     1     -11.546  16.531  71.238  1.00  0.00    -0.350 OA 
ENDROOT
BRANCH   4  13
HETATM   13  O   UNL     1     -11.173  13.364  67.789  1.00  0.00    -0.259 OA 
BRANCH  13  14
HETATM   14  C   UNL     1     -11.437  11.966  67.544  1.00  0.00    -0.326 C  
HETATM   15  C   UNL     1     -11.678  11.854  66.027  1.00  0.00    -0.209 C  
HETATM   16  C   UNL     1     -10.382  12.152  65.246  1.00  0.00    -0.277 C  
HETATM   17  C   UNL     1      -9.400  11.015  65.511  1.00  0.00    -0.242 C  
HETATM   18  O   UNL     1      -9.770  13.391  65.632  1.00  0.00    -0.450 OA 
HETATM   19  H   UNL     1      -7.022   8.406  66.532  1.00  0.00     0.000 HD 
HETATM   20  O   UNL     1      -7.644   9.086  66.299  1.00  0.00    -0.090 OA 
HETATM   21  C   UNL     1      -8.459   9.543  67.308  1.00  0.00    -0.128 A  
HETATM   22  C   UNL     1      -9.380  10.548  66.965  1.00  0.00    -0.176 A  
HETATM   23  H   UNL     1      -8.971  13.574  65.151  1.00  0.00     0.000 HD 
HETATM   24  C   UNL     1     -10.313  11.007  67.936  1.00  0.00    -0.213 A  
HETATM   25  C   UNL     1     -10.252  10.457  69.235  1.00  0.00    -0.230 A  
HETATM   26  O   UNL     1     -11.169  10.812  70.188  1.00  0.00    -0.298 OA 
HETATM   27  C   UNL     1      -9.300   9.467  69.577  1.00  0.00    -0.199 A  
HETATM   28  C   UNL     1      -9.231   8.884  70.950  1.00  0.00    -0.231 C  
HETATM   29  H   UNL     1     -11.128  10.442  71.061  1.00  0.00     0.000 HD 
HETATM   30  C   UNL     1      -8.200   7.880  71.263  1.00  0.00    -0.107 A  
HETATM   31  O   UNL     1      -9.993   9.212  71.851  1.00  0.00    -0.308 OA 
HETATM   32  C   UNL     1      -8.085   7.383  72.568  1.00  0.00    -0.117 A  
HETATM   33  C   UNL     1      -7.100   6.452  72.889  1.00  0.00    -0.079 A  
HETATM   34  C   UNL     1      -6.225   6.002  71.899  1.00  0.00    -0.041 A  
HETATM   35  C   UNL     1      -6.335   6.482  70.604  1.00  0.00    -0.040 A  
HETATM   36  C   UNL     1      -7.334   7.427  70.287  1.00  0.00    -0.078 A  
HETATM   37  C   UNL     1      -7.443   7.934  68.913  1.00  0.00    -0.094 C  
HETATM   38  C   UNL     1      -8.411   9.007  68.602  1.00  0.00    -0.128 A  
HETATM   39  O   UNL     1      -6.740   7.469  68.017  1.00  0.00    -0.055 OA 
BRANCH  16  40
HETATM   40  C   UNL     1     -10.658  12.300  63.739  1.00  0.00    -0.451 C  
HETATM   41  O   UNL     1      -9.830  11.980  62.882  1.00  0.00    -0.307 OA 
HETATM   42  C   UNL     1     -11.998  12.879  63.335  1.00  0.00    -0.612 C  
ENDBRANCH  16  40
ENDBRANCH  13  14
ENDBRANCH   4  13
TORSDOF 3
ENDMDL
MODEL       31
REMARK 921   NORMALIZED FREE ENERGY PREDICTED BY IDOCK:   -6.89 KCAL/MOL
REMARK 922        TOTAL FREE ENERGY PREDICTED BY IDOCK:   -8.98 KCAL/MOL
REMARK 923 INTER-LIGAND FREE ENERGY PREDICTED BY IDOCK:   -8.33 KCAL/MOL
REMARK 924 INTRA-LIGAND FREE ENERGY PREDICTED BY IDOCK:   -0.65 KCAL/MOL
REMARK 927      BINDING AFFINITY PREDICTED BY RF-SCORE:    0.00 PKD
ROOT
HETATM    1  C   UNL     1     -11.557  16.819  73.143  1.00  0.00     0.221 C  
HETATM    2  C   UNL     1     -11.798  15.598  72.252  1.00  0.00    -0.481 C  
HETATM    3  O   UNL     1     -12.301  16.093  70.996  1.00  0.00    -0.321 OA 
HETATM    4  C   UNL     1     -12.765  15.098  70.092  1.00  0.00    -0.235 C  
HETATM    5  H1  UNL     1     -14.058  12.365  73.541  1.00  0.00     0.000 HD 
HETATM    6  C   UNL     1     -13.834  14.218  70.741  1.00  0.00     0.232 C  
HETATM    7  C   UNL     1     -13.308  13.535  72.004  1.00  0.00    -0.475 C  
HETATM    8  H   UNL     1     -14.342  14.583  74.105  1.00  0.00     0.000 HD 
HETATM    9  H2  UNL     1     -14.885  12.164  72.080  1.00  0.00     0.000 HD 
HETATM   10  N   UNL     1     -14.409  12.821  72.698  1.00  0.00    -0.156 NA 
HETATM   11  C   UNL     1     -12.705  14.570  72.968  1.00  0.00    -0.396 C  
HETATM   12  O   UNL     1     -13.785  15.214  73.665  1.00  0.00    -0.049 OA 
ENDROOT
BRANCH   4  13
HETATM   13  O   UNL     1     -11.721  14.294  69.547  1.00  0.00    -0.276 OA 
BRANCH  13  14
HETATM   14  C   UNL     1     -12.084  13.206  68.670  1.00  0.00    -0.187 C  
HETATM   15  C   UNL     1     -11.842  13.731  67.242  1.00  0.00    -0.436 C  
HETATM   16  C   UNL     1     -10.336  13.953  66.992  1.00  0.00    -0.267 C  
HETATM   17  C   UNL     1      -9.658  12.588  66.962  1.00  0.00    -0.216 C  
HETATM   18  O   UNL     1      -9.715  14.757  68.005  1.00  0.00    -0.207 OA 
HETATM   19  H   UNL     1      -8.112   9.269  67.283  1.00  0.00     0.000 HD 
HETATM   20  O   UNL     1      -8.528  10.122  67.228  1.00  0.00    -0.124 OA 
HETATM   21  C   UNL     1      -9.551  10.366  68.115  1.00  0.00    -0.144 A  
HETATM   22  C   UNL     1     -10.166  11.626  68.034  1.00  0.00    -0.202 A  
HETATM   23  H   UNL     1      -8.787  14.894  67.850  1.00  0.00     0.000 HD 
HETATM   24  C   UNL     1     -11.287  11.915  68.860  1.00  0.00    -0.335 A  
HETATM   25  C   UNL     1     -11.720  10.926  69.771  1.00  0.00    -0.338 A  
HETATM   26  O   UNL     1     -12.834  11.125  70.541  1.00  0.00    -0.235 OA 
HETATM   27  C   UNL     1     -11.073   9.671  69.865  1.00  0.00    -0.268 A  
HETATM   28  C   UNL     1     -11.526   8.623  70.827  1.00  0.00    -0.259 C  
HETATM   29  H   UNL     1     -13.125  10.460  71.153  1.00  0.00     0.000 HD 
HETATM   30  C   UNL     1     -10.798   7.345  70.908  1.00  0.00    -0.255 A  
HETATM   31  O   UNL     1     -12.483   8.777  71.576  1.00  0.00    -0.307 OA 
HETATM   32  C   UNL     1     -11.174   6.388  71.859  1.00  0.00    -0.325 A  
HETATM   33  C   UNL     1     -10.481   5.184  71.967  1.00  0.00    -0.278 A  
HETATM   34  C   UNL     1      -9.408   4.925  71.114  1.00  0.00    -0.204 A  
HETATM   35  C   UNL     1      -9.032   5.863  70.166  1.00  0.00    -0.148 A  
HETATM   36  C   UNL     1      -9.737   7.081  70.064  1.00  0.00    -0.171 A  
HETATM   37  C   UNL     1      -9.332   8.072  69.058  1.00  0.00    -0.147 C  
HETATM   38  C   UNL     1      -9.992   9.393  69.023  1.00  0.00    -0.182 A  
HETATM   39  O   UNL     1      -8.451   7.809  68.241  1.00  0.00    -0.124 OA 
BRANCH  16  40
HETATM   40  C   UNL     1     -10.094  14.717  65.677  1.00  0.00    -0.363 C  
HETATM   41  O   UNL     1     -10.452  14.275  64.583  1.00  0.00    -0.425 OA 
HETATM   42  C   UNL     1      -9.374  16.046  65.771  1.00  0.00    -0.250 C  
ENDBRANCH  16  40
ENDBRANCH  13  14
ENDBRANCH   4  13
TORSDOF 3
ENDMDL
MODEL       32
REMARK 921   NORMALIZED FREE ENERGY PREDICTED BY IDOCK:   -6.87 KCAL/MOL
REMARK 922        TOTAL FREE ENERGY PREDICTED BY IDOCK:   -8.96 KCAL/MOL
REMARK 923 INTER-LIGAND FREE ENERGY PREDICTED BY IDOCK:   -8.05 KCAL/MOL
REMARK 924 INTRA-LIGAND FREE ENERGY PREDICTED BY IDOCK:   -0.91 KCAL/MOL
REMARK 927      BINDING AFFINITY PREDICTED BY RF-SCORE:    0.00 PKD
ROOT
HETATM    1  C   UNL     1      -9.160   5.328  72.595  1.00  0.00    -0.141 C  
HETATM    2  C   UNL     1      -9.682   6.378  71.611  1.00  0.00    -0.160 C  
HETATM    3  O   UNL     1      -8.622   7.336  71.425  1.00  0.00    -0.115 OA 
HETATM    4  C   UNL     1      -8.975   8.499  70.686  1.00  0.00    -0.160 C  
HETATM    5  H1  UNL     1     -13.299   8.323  72.204  1.00  0.00     0.000 HD 
HETATM    6  C   UNL     1     -10.178   9.206  71.312  1.00  0.00    -0.400 C  
HETATM    7  C   UNL     1     -11.393   8.282  71.395  1.00  0.00    -0.262 C  
HETATM    8  H   UNL     1     -11.836   7.571  73.819  1.00  0.00     0.000 HD 
HETATM    9  H2  UNL     1     -12.729   9.850  71.756  1.00  0.00     0.000 HD 
HETATM   10  N   UNL     1     -12.488   8.940  72.149  1.00  0.00    -0.380 NA 
HETATM   11  C   UNL     1     -11.026   6.966  72.101  1.00  0.00    -0.236 C  
HETATM   12  O   UNL     1     -11.010   7.210  73.518  1.00  0.00    -0.328 OA 
ENDROOT
BRANCH   4  13
HETATM   13  O   UNL     1      -9.211   8.244  69.304  1.00  0.00    -0.150 OA 
BRANCH  13  14
HETATM   14  C   UNL     1      -8.339   8.865  68.335  1.00  0.00    -0.125 C  
HETATM   15  C   UNL     1      -7.918   7.734  67.378  1.00  0.00    -0.119 C  
HETATM   16  C   UNL     1      -9.126   7.237  66.557  1.00  0.00    -0.155 C  
HETATM   17  C   UNL     1      -9.533   8.350  65.598  1.00  0.00     0.015 C  
HETATM   18  O   UNL     1     -10.254   6.896  67.376  1.00  0.00    -0.162 OA 
HETATM   19  H   UNL     1     -10.624  11.243  63.611  1.00  0.00     0.000 HD 
HETATM   20  O   UNL     1     -10.341  10.514  64.151  1.00  0.00    -0.313 OA 
HETATM   21  C   UNL     1      -9.916  10.820  65.423  1.00  0.00    -0.271 A  
HETATM   22  C   UNL     1      -9.498   9.743  66.222  1.00  0.00    -0.250 A  
HETATM   23  H   UNL     1     -10.998   6.589  66.870  1.00  0.00     0.000 HD 
HETATM   24  C   UNL     1      -8.965   9.995  67.517  1.00  0.00    -0.141 A  
HETATM   25  C   UNL     1      -8.913  11.331  67.972  1.00  0.00    -0.156 A  
HETATM   26  O   UNL     1      -8.348  11.636  69.180  1.00  0.00    -0.369 OA 
HETATM   27  C   UNL     1      -9.367  12.405  67.169  1.00  0.00    -0.199 A  
HETATM   28  C   UNL     1      -9.315  13.819  67.646  1.00  0.00    -0.213 C  
HETATM   29  H   UNL     1      -8.313  12.535  69.486  1.00  0.00     0.000 HD 
HETATM   30  C   UNL     1      -9.830  14.897  66.785  1.00  0.00    -0.254 A  
HETATM   31  O   UNL     1      -8.870  14.134  68.743  1.00  0.00    -0.154 OA 
HETATM   32  C   UNL     1      -9.851  16.216  67.256  1.00  0.00    -0.241 A  
HETATM   33  C   UNL     1     -10.357  17.245  66.465  1.00  0.00    -0.308 A  
HETATM   34  C   UNL     1     -10.839  16.961  65.187  1.00  0.00    -0.105 A  
HETATM   35  C   UNL     1     -10.817  15.660  64.709  1.00  0.00    -0.377 A  
HETATM   36  C   UNL     1     -10.305  14.623  65.517  1.00  0.00    -0.383 A  
HETATM   37  C   UNL     1     -10.287  13.246  65.005  1.00  0.00    -0.340 C  
HETATM   38  C   UNL     1      -9.858  12.141  65.888  1.00  0.00    -0.265 A  
HETATM   39  O   UNL     1     -10.620  13.006  63.845  1.00  0.00    -0.396 OA 
BRANCH  16  40
HETATM   40  C   UNL     1      -8.788   5.946  65.791  1.00  0.00    -0.139 C  
HETATM   41  O   UNL     1      -7.731   5.803  65.173  1.00  0.00    -0.085 OA 
HETATM   42  C   UNL     1      -9.824   4.840  65.808  1.00  0.00    -0.214 C  
ENDBRANCH  16  40
ENDBRANCH  13  14
ENDBRANCH   4  13
TORSDOF 3
ENDMDL
MODEL       33
REMARK 921   NORMALIZED FREE ENERGY PREDICTED BY IDOCK:   -6.86 KCAL/MOL
REMARK 922        TOTAL FREE ENERGY PREDICTED BY IDOCK:   -8.95 KCAL/MOL
REMARK 923 INTER-LIGAND FREE ENERGY PREDICTED BY IDOCK:   -8.03 KCAL/MOL
REMARK 924 INTRA-LIGAND FREE ENERGY PREDICTED BY IDOCK:   -0.91 KCAL/MOL
REMARK 927      BINDING AFFINITY PREDICTED BY RF-SCORE:    0.00 PKD
ROOT
HETATM    1  C   UNL     1      -5.773   8.922  65.282  1.00  0.00    -0.047 C  
HETATM    2  C   UNL     1      -6.975   9.870  65.299  1.00  0.00    -0.122 C  
HETATM    3  O   UNL     1      -7.921   9.325  66.239  1.00  0.00    -0.105 OA 
HETATM    4  C   UNL     1      -9.191   9.962  66.263  1.00  0.00    -0.168 C  
HETATM    5  H1  UNL     1      -8.905  11.014  61.808  1.00  0.00     0.000 HD 
HETATM    6  C   UNL     1      -9.828   9.976  64.872  1.00  0.00    -0.352 C  
HETATM    7  C   UNL     1      -8.935  10.685  63.853  1.00  0.00    -0.192 C  
HETATM    8  H   UNL     1      -7.875   8.996  62.239  1.00  0.00     0.000 HD 
HETATM    9  H2  UNL     1     -10.466  10.866  62.439  1.00  0.00     0.000 HD 
HETATM   10  N   UNL     1      -9.501  10.541  62.488  1.00  0.00    -0.278 NA 
HETATM   11  C   UNL     1      -7.518  10.089  63.867  1.00  0.00    -0.134 C  
HETATM   12  O   UNL     1      -7.542   8.862  63.118  1.00  0.00    -0.099 OA 
ENDROOT
BRANCH   4  13
HETATM   13  O   UNL     1      -9.157  11.279  66.807  1.00  0.00    -0.165 OA 
BRANCH  13  14
HETATM   14  C   UNL     1      -9.005  11.424  68.236  1.00  0.00    -0.175 C  
HETATM   15  C   UNL     1      -9.513  12.841  68.561  1.00  0.00    -0.094 C  
HETATM   16  C   UNL     1     -11.032  12.946  68.315  1.00  0.00    -0.256 C  
HETATM   17  C   UNL     1     -11.738  12.091  69.363  1.00  0.00    -0.402 C  
HETATM   18  O   UNL     1     -11.418  12.490  67.010  1.00  0.00    -0.313 OA 
HETATM   19  H   UNL     1     -13.274   9.714  71.706  1.00  0.00     0.000 HD 
HETATM   20  O   UNL     1     -12.856  10.305  71.091  1.00  0.00    -0.351 OA 
HETATM   21  C   UNL     1     -11.671   9.880  70.538  1.00  0.00    -0.295 A  
HETATM   22  C   UNL     1     -11.052  10.754  69.629  1.00  0.00    -0.339 A  
HETATM   23  H   UNL     1     -12.354  12.555  66.858  1.00  0.00     0.000 HD 
HETATM   24  C   UNL     1      -9.781  10.417  69.085  1.00  0.00    -0.234 A  
HETATM   25  C   UNL     1      -9.201   9.183  69.453  1.00  0.00    -0.156 A  
HETATM   26  O   UNL     1      -7.951   8.839  69.013  1.00  0.00    -0.106 OA 
HETATM   27  C   UNL     1      -9.849   8.296  70.345  1.00  0.00    -0.194 A  
HETATM   28  C   UNL     1      -9.240   6.990  70.736  1.00  0.00    -0.157 C  
HETATM   29  H   UNL     1      -7.561   8.010  69.260  1.00  0.00     0.000 HD 
HETATM   30  C   UNL     1      -9.971   6.089  71.644  1.00  0.00    -0.211 A  
HETATM   31  O   UNL     1      -8.150   6.615  70.323  1.00  0.00    -0.116 OA 
HETATM   32  C   UNL     1      -9.438   4.832  71.955  1.00  0.00    -0.186 A  
HETATM   33  C   UNL     1     -10.126   3.956  72.792  1.00  0.00    -0.223 A  
HETATM   34  C   UNL     1     -11.355   4.338  73.333  1.00  0.00    -0.324 A  
HETATM   35  C   UNL     1     -11.887   5.583  73.036  1.00  0.00    -0.055 A  
HETATM   36  C   UNL     1     -11.186   6.463  72.185  1.00  0.00    -0.319 A  
HETATM   37  C   UNL     1     -11.757   7.779  71.872  1.00  0.00    -0.292 C  
HETATM   38  C   UNL     1     -11.083   8.658  70.894  1.00  0.00    -0.310 A  
HETATM   39  O   UNL     1     -12.790   8.159  72.422  1.00  0.00    -0.264 OA 
BRANCH  16  40
HETATM   40  C   UNL     1     -11.511  14.407  68.382  1.00  0.00    -0.301 C  
HETATM   41  O   UNL     1     -11.558  15.131  67.385  1.00  0.00    -0.328 OA 
HETATM   42  C   UNL     1     -11.915  14.941  69.740  1.00  0.00    -0.366 C  
ENDBRANCH  16  40
ENDBRANCH  13  14
ENDBRANCH   4  13
TORSDOF 3
ENDMDL
MODEL       34
REMARK 921   NORMALIZED FREE ENERGY PREDICTED BY IDOCK:   -6.85 KCAL/MOL
REMARK 922        TOTAL FREE ENERGY PREDICTED BY IDOCK:   -8.93 KCAL/MOL
REMARK 923 INTER-LIGAND FREE ENERGY PREDICTED BY IDOCK:   -8.34 KCAL/MOL
REMARK 924 INTRA-LIGAND FREE ENERGY PREDICTED BY IDOCK:   -0.60 KCAL/MOL
REMARK 927      BINDING AFFINITY PREDICTED BY RF-SCORE:    0.00 PKD
ROOT
HETATM    1  C   UNL     1     -13.517  12.023  71.895  1.00  0.00    -0.305 C  
HETATM    2  C   UNL     1     -13.251  13.474  71.488  1.00  0.00    -0.322 C  
HETATM    3  O   UNL     1     -11.915  13.518  70.953  1.00  0.00    -0.280 OA 
HETATM    4  C   UNL     1     -11.407  14.820  70.689  1.00  0.00    -0.188 C  
HETATM    5  H1  UNL     1     -13.861  16.626  74.117  1.00  0.00     0.000 HD 
HETATM    6  C   UNL     1     -11.471  15.701  71.938  1.00  0.00    -0.501 C  
HETATM    7  C   UNL     1     -12.900  15.822  72.467  1.00  0.00    -0.458 C  
HETATM    8  H   UNL     1     -13.186  14.484  74.636  1.00  0.00     0.000 HD 
HETATM    9  H2  UNL     1     -12.447  17.453  73.696  1.00  0.00     0.000 HD 
HETATM   10  N   UNL     1     -12.907  16.545  73.763  1.00  0.00    -0.552 NA 
HETATM   11  C   UNL     1     -13.522  14.431  72.672  1.00  0.00    -0.509 C  
HETATM   12  O   UNL     1     -13.020  13.896  73.909  1.00  0.00     0.300 OA 
ENDROOT
BRANCH   4  13
HETATM   13  O   UNL     1     -12.045  15.466  69.590  1.00  0.00    -0.338 OA 
BRANCH  13  14
HETATM   14  C   UNL     1     -11.629  15.113  68.254  1.00  0.00    -0.339 C  
HETATM   15  C   UNL     1     -11.518  16.447  67.492  1.00  0.00     0.221 C  
HETATM   16  C   UNL     1     -10.360  17.299  68.052  1.00  0.00    -0.353 C  
HETATM   17  C   UNL     1      -9.050  16.604  67.697  1.00  0.00    -0.207 C  
HETATM   18  O   UNL     1     -10.426  17.463  69.476  1.00  0.00    -0.328 OA 
HETATM   19  H   UNL     1      -6.005  14.636  67.095  1.00  0.00     0.000 HD 
HETATM   20  O   UNL     1      -6.806  15.118  67.263  1.00  0.00    -0.233 OA 
HETATM   21  C   UNL     1      -7.908  14.375  67.619  1.00  0.00    -0.181 A  
HETATM   22  C   UNL     1      -9.093  15.088  67.868  1.00  0.00    -0.180 A  
HETATM   23  H   UNL     1      -9.713  17.988  69.821  1.00  0.00     0.000 HD 
HETATM   24  C   UNL     1     -10.292  14.377  68.155  1.00  0.00    -0.231 A  
HETATM   25  C   UNL     1     -10.236  12.967  68.220  1.00  0.00    -0.246 A  
HETATM   26  O   UNL     1     -11.372  12.232  68.426  1.00  0.00    -0.245 OA 
HETATM   27  C   UNL     1      -9.028  12.263  67.999  1.00  0.00    -0.190 A  
HETATM   28  C   UNL     1      -8.964  10.773  68.068  1.00  0.00    -0.139 C  
HETATM   29  H   UNL     1     -11.334  11.284  68.470  1.00  0.00     0.000 HD 
HETATM   30  C   UNL     1      -7.676  10.089  67.861  1.00  0.00    -0.090 A  
HETATM   31  O   UNL     1      -9.943  10.076  68.305  1.00  0.00    -0.147 OA 
HETATM   32  C   UNL     1      -7.596   8.698  67.997  1.00  0.00    -0.098 A  
HETATM   33  C   UNL     1      -6.381   8.036  67.829  1.00  0.00    -0.052 A  
HETATM   34  C   UNL     1      -5.234   8.766  67.514  1.00  0.00    -0.034 A  
HETATM   35  C   UNL     1      -5.305  10.143  67.371  1.00  0.00    -0.041 A  
HETATM   36  C   UNL     1      -6.538  10.806  67.545  1.00  0.00    -0.059 A  
HETATM   37  C   UNL     1      -6.605  12.266  67.395  1.00  0.00    -0.154 C  
HETATM   38  C   UNL     1      -7.867  12.976  67.687  1.00  0.00    -0.166 A  
HETATM   39  O   UNL     1      -5.620  12.901  67.022  1.00  0.00    -0.335 OA 
BRANCH  16  40
HETATM   40  C   UNL     1     -10.395  18.730  67.487  1.00  0.00    -0.416 C  
HETATM   41  O   UNL     1     -10.360  19.727  68.213  1.00  0.00    -0.435 OA 
HETATM   42  C   UNL     1     -10.492  18.878  65.983  1.00  0.00    -0.507 C  
ENDBRANCH  16  40
ENDBRANCH  13  14
ENDBRANCH   4  13
TORSDOF 3
ENDMDL
MODEL       35
REMARK 921   NORMALIZED FREE ENERGY PREDICTED BY IDOCK:   -6.79 KCAL/MOL
REMARK 922        TOTAL FREE ENERGY PREDICTED BY IDOCK:   -8.87 KCAL/MOL
REMARK 923 INTER-LIGAND FREE ENERGY PREDICTED BY IDOCK:   -8.01 KCAL/MOL
REMARK 924 INTRA-LIGAND FREE ENERGY PREDICTED BY IDOCK:   -0.86 KCAL/MOL
REMARK 927      BINDING AFFINITY PREDICTED BY RF-SCORE:    0.00 PKD
ROOT
HETATM    1  C   UNL     1      -8.733   8.168  73.759  1.00  0.00    -0.292 C  
HETATM    2  C   UNL     1      -9.084   7.144  72.676  1.00  0.00    -0.134 C  
HETATM    3  O   UNL     1     -10.100   7.744  71.850  1.00  0.00    -0.174 OA 
HETATM    4  C   UNL     1     -10.697   6.877  70.894  1.00  0.00    -0.230 C  
HETATM    5  H1  UNL     1     -10.105   3.234  73.616  1.00  0.00     0.000 HD 
HETATM    6  C   UNL     1     -11.275   5.630  71.564  1.00  0.00    -0.182 C  
HETATM    7  C   UNL     1     -10.202   4.858  72.334  1.00  0.00    -0.199 C  
HETATM    8  H   UNL     1     -10.525   5.127  74.865  1.00  0.00     0.000 HD 
HETATM    9  H2  UNL     1     -11.377   3.136  72.507  1.00  0.00     0.000 HD 
HETATM   10  N   UNL     1     -10.821   3.749  73.103  1.00  0.00    -0.180 NA 
HETATM   11  C   UNL     1      -9.463   5.787  73.312  1.00  0.00    -0.142 C  
HETATM   12  O   UNL     1     -10.291   5.960  74.474  1.00  0.00    -0.276 OA 
ENDROOT
BRANCH   4  13
HETATM   13  O   UNL     1      -9.818   6.511  69.833  1.00  0.00    -0.165 OA 
BRANCH  13  14
HETATM   14  C   UNL     1      -8.884   7.498  69.347  1.00  0.00    -0.136 C  
HETATM   15  C   UNL     1      -7.617   6.711  68.963  1.00  0.00    -0.101 C  
HETATM   16  C   UNL     1      -7.890   5.797  67.751  1.00  0.00    -0.098 C  
HETATM   17  C   UNL     1      -8.110   6.687  66.532  1.00  0.00    -0.111 C  
HETATM   18  O   UNL     1      -9.043   4.963  67.930  1.00  0.00    -0.108 OA 
HETATM   19  H   UNL     1      -8.979   8.954  63.773  1.00  0.00     0.000 HD 
HETATM   20  O   UNL     1      -8.776   8.384  64.506  1.00  0.00    -0.060 OA 
HETATM   21  C   UNL     1      -9.258   8.766  65.735  1.00  0.00    -0.206 A  
HETATM   22  C   UNL     1      -8.957   7.924  66.819  1.00  0.00    -0.169 A  
HETATM   23  H   UNL     1      -9.211   4.400  67.182  1.00  0.00     0.000 HD 
HETATM   24  C   UNL     1      -9.350   8.302  68.133  1.00  0.00    -0.140 A  
HETATM   25  C   UNL     1     -10.072   9.505  68.296  1.00  0.00    -0.183 A  
HETATM   26  O   UNL     1     -10.416   9.950  69.544  1.00  0.00    -0.210 OA 
HETATM   27  C   UNL     1     -10.397  10.330  67.192  1.00  0.00    -0.292 A  
HETATM   28  C   UNL     1     -11.161  11.602  67.360  1.00  0.00    -0.281 C  
HETATM   29  H   UNL     1     -10.901  10.759  69.653  1.00  0.00     0.000 HD 
HETATM   30  C   UNL     1     -11.501  12.408  66.175  1.00  0.00    -0.430 A  
HETATM   31  O   UNL     1     -11.538  12.012  68.451  1.00  0.00    -0.267 OA 
HETATM   32  C   UNL     1     -12.279  13.563  66.319  1.00  0.00    -0.468 A  
HETATM   33  C   UNL     1     -12.632  14.325  65.207  1.00  0.00    -0.405 A  
HETATM   34  C   UNL     1     -12.197  13.938  63.938  1.00  0.00    -0.375 A  
HETATM   35  C   UNL     1     -11.421  12.801  63.786  1.00  0.00    -0.533 A  
HETATM   36  C   UNL     1     -11.070  12.033  64.917  1.00  0.00    -0.368 A  
HETATM   37  C   UNL     1     -10.250  10.826  64.749  1.00  0.00    -0.334 C  
HETATM   38  C   UNL     1      -9.975   9.958  65.913  1.00  0.00    -0.347 A  
HETATM   39  O   UNL     1      -9.783  10.536  63.648  1.00  0.00    -0.291 OA 
BRANCH  16  40
HETATM   40  C   UNL     1      -6.726   4.818  67.515  1.00  0.00    -0.055 C  
HETATM   41  O   UNL     1      -5.680   5.159  66.957  1.00  0.00    -0.016 OA 
HETATM   42  C   UNL     1      -6.917   3.391  67.985  1.00  0.00    -0.050 C  
ENDBRANCH  16  40
ENDBRANCH  13  14
ENDBRANCH   4  13
TORSDOF 3
ENDMDL
MODEL       36
REMARK 921   NORMALIZED FREE ENERGY PREDICTED BY IDOCK:   -6.76 KCAL/MOL
REMARK 922        TOTAL FREE ENERGY PREDICTED BY IDOCK:   -8.83 KCAL/MOL
REMARK 923 INTER-LIGAND FREE ENERGY PREDICTED BY IDOCK:   -8.75 KCAL/MOL
REMARK 924 INTRA-LIGAND FREE ENERGY PREDICTED BY IDOCK:   -0.09 KCAL/MOL
REMARK 927      BINDING AFFINITY PREDICTED BY RF-SCORE:    0.00 PKD
ROOT
HETATM    1  C   UNL     1     -13.231  11.054  71.934  1.00  0.00    -0.503 C  
HETATM    2  C   UNL     1     -13.229  12.343  71.108  1.00  0.00     0.119 C  
HETATM    3  O   UNL     1     -11.919  12.458  70.520  1.00  0.00    -0.330 OA 
HETATM    4  C   UNL     1     -11.653  13.691  69.863  1.00  0.00    -0.211 C  
HETATM    5  H1  UNL     1     -14.412  15.976  72.727  1.00  0.00     0.000 HD 
HETATM    6  C   UNL     1     -11.882  14.877  70.801  1.00  0.00    -0.368 C  
HETATM    7  C   UNL     1     -13.312  14.899  71.340  1.00  0.00    -0.413 C  
HETATM    8  H   UNL     1     -13.365  14.235  73.817  1.00  0.00     0.000 HD 
HETATM    9  H2  UNL     1     -13.168  16.874  72.015  1.00  0.00     0.000 HD 
HETATM   10  N   UNL     1     -13.457  15.961  72.367  1.00  0.00    -0.429 NA 
HETATM   11  C   UNL     1     -13.674  13.545  71.972  1.00  0.00    -0.478 C  
HETATM   12  O   UNL     1     -13.091  13.497  73.286  1.00  0.00    -0.271 OA 
ENDROOT
BRANCH   4  13
HETATM   13  O   UNL     1     -12.391  13.861  68.655  1.00  0.00    -0.278 OA 
BRANCH  13  14
HETATM   14  C   UNL     1     -12.001  13.087  67.501  1.00  0.00    -0.306 C  
HETATM   15  C   UNL     1     -11.794  14.113  66.370  1.00  0.00    -0.440 C  
HETATM   16  C   UNL     1     -10.578  15.015  66.668  1.00  0.00    -0.301 C  
HETATM   17  C   UNL     1      -9.321  14.157  66.573  1.00  0.00    -0.285 C  
HETATM   18  O   UNL     1     -10.633  15.612  67.972  1.00  0.00    -0.256 OA 
HETATM   19  H   UNL     1      -6.425  11.897  66.669  1.00  0.00     0.000 HD 
HETATM   20  O   UNL     1      -7.190  12.460  66.664  1.00  0.00     0.124 OA 
HETATM   21  C   UNL     1      -8.342  11.939  67.205  1.00  0.00    -0.169 A  
HETATM   22  C   UNL     1      -9.473  12.772  67.197  1.00  0.00    -0.223 A  
HETATM   23  H   UNL     1      -9.885  16.167  68.156  1.00  0.00     0.000 HD 
HETATM   24  C   UNL     1     -10.720  12.268  67.662  1.00  0.00    -0.250 A  
HETATM   25  C   UNL     1     -10.765  10.945  68.156  1.00  0.00    -0.214 A  
HETATM   26  O   UNL     1     -11.951  10.388  68.552  1.00  0.00    -0.747 OA 
HETATM   27  C   UNL     1      -9.611  10.127  68.188  1.00  0.00    -0.151 A  
HETATM   28  C   UNL     1      -9.654   8.729  68.711  1.00  0.00    -0.158 C  
HETATM   29  H   UNL     1     -11.981   9.499  68.884  1.00  0.00     0.000 HD 
HETATM   30  C   UNL     1      -8.418   7.929  68.751  1.00  0.00    -0.128 A  
HETATM   31  O   UNL     1     -10.680   8.206  69.128  1.00  0.00    -0.197 OA 
HETATM   32  C   UNL     1      -8.438   6.644  69.308  1.00  0.00    -0.124 A  
HETATM   33  C   UNL     1      -7.274   5.882  69.378  1.00  0.00    -0.067 A  
HETATM   34  C   UNL     1      -6.078   6.400  68.880  1.00  0.00    -0.029 A  
HETATM   35  C   UNL     1      -6.049   7.668  68.322  1.00  0.00    -0.036 A  
HETATM   36  C   UNL     1      -7.232   8.435  68.257  1.00  0.00    -0.086 A  
HETATM   37  C   UNL     1      -7.194   9.779  67.666  1.00  0.00    -0.089 C  
HETATM   38  C   UNL     1      -8.402  10.629  67.699  1.00  0.00    -0.114 A  
HETATM   39  O   UNL     1      -6.166  10.201  67.138  1.00  0.00    -0.060 OA 
BRANCH  16  40
HETATM   40  C   UNL     1     -10.510  16.203  65.692  1.00  0.00    -0.383 C  
HETATM   41  O   UNL     1     -10.670  16.067  64.477  1.00  0.00    -0.542 OA 
HETATM   42  C   UNL     1     -10.219  17.567  66.282  1.00  0.00    -0.356 C  
ENDBRANCH  16  40
ENDBRANCH  13  14
ENDBRANCH   4  13
TORSDOF 3
ENDMDL
MODEL       37
REMARK 921   NORMALIZED FREE ENERGY PREDICTED BY IDOCK:   -6.71 KCAL/MOL
REMARK 922        TOTAL FREE ENERGY PREDICTED BY IDOCK:   -8.77 KCAL/MOL
REMARK 923 INTER-LIGAND FREE ENERGY PREDICTED BY IDOCK:   -7.76 KCAL/MOL
REMARK 924 INTRA-LIGAND FREE ENERGY PREDICTED BY IDOCK:   -1.01 KCAL/MOL
REMARK 927      BINDING AFFINITY PREDICTED BY RF-SCORE:    0.00 PKD
ROOT
HETATM    1  C   UNL     1      -6.264   6.701  71.618  1.00  0.00    -0.042 C  
HETATM    2  C   UNL     1      -7.053   7.663  70.725  1.00  0.00    -0.054 C  
HETATM    3  O   UNL     1      -8.298   7.010  70.409  1.00  0.00    -0.126 OA 
HETATM    4  C   UNL     1      -9.098   7.664  69.433  1.00  0.00    -0.142 C  
HETATM    5  H1  UNL     1      -5.391   9.337  67.312  1.00  0.00     0.000 HD 
HETATM    6  C   UNL     1      -8.314   7.891  68.139  1.00  0.00    -0.124 C  
HETATM    7  C   UNL     1      -7.052   8.719  68.384  1.00  0.00    -0.077 C  
HETATM    8  H   UNL     1      -4.953   7.256  68.204  1.00  0.00     0.000 HD 
HETATM    9  H2  UNL     1      -6.770   9.134  66.354  1.00  0.00     0.000 HD 
HETATM   10  N   UNL     1      -6.233   8.784  67.148  1.00  0.00    -0.058 NA 
HETATM   11  C   UNL     1      -6.206   8.096  69.507  1.00  0.00    -0.033 C  
HETATM   12  O   UNL     1      -5.473   6.991  68.952  1.00  0.00    -0.016 OA 
ENDROOT
BRANCH   4  13
HETATM   13  O   UNL     1      -9.666   8.889  69.892  1.00  0.00    -0.169 OA 
BRANCH  13  14
HETATM   14  C   UNL     1     -10.748   9.468  69.130  1.00  0.00    -0.210 C  
HETATM   15  C   UNL     1     -12.036   8.871  69.728  1.00  0.00     0.734 C  
HETATM   16  C   UNL     1     -12.253   9.378  71.169  1.00  0.00    -0.323 C  
HETATM   17  C   UNL     1     -12.578  10.866  71.100  1.00  0.00    -0.532 C  
HETATM   18  O   UNL     1     -11.102   9.193  72.005  1.00  0.00    -0.357 OA 
HETATM   19  H   UNL     1     -12.982  14.507  70.807  1.00  0.00     0.000 HD 
HETATM   20  O   UNL     1     -12.851  13.568  70.864  1.00  0.00    -0.294 OA 
HETATM   21  C   UNL     1     -11.920  13.024  70.010  1.00  0.00    -0.312 A  
HETATM   22  C   UNL     1     -11.726  11.635  70.093  1.00  0.00    -0.381 A  
HETATM   23  H   UNL     1     -11.236   9.505  72.892  1.00  0.00     0.000 HD 
HETATM   24  C   UNL     1     -10.843  10.993  69.181  1.00  0.00    -0.283 A  
HETATM   25  C   UNL     1     -10.155  11.792  68.240  1.00  0.00    -0.197 A  
HETATM   26  O   UNL     1      -9.347  11.219  67.296  1.00  0.00    -0.164 OA 
HETATM   27  C   UNL     1     -10.336  13.194  68.187  1.00  0.00    -0.247 A  
HETATM   28  C   UNL     1      -9.610  14.042  67.195  1.00  0.00    -0.245 C  
HETATM   29  H   UNL     1      -8.885  11.756  66.664  1.00  0.00     0.000 HD 
HETATM   30  C   UNL     1      -9.809  15.502  67.202  1.00  0.00    -0.236 A  
HETATM   31  O   UNL     1      -8.833  13.581  66.368  1.00  0.00    -0.054 OA 
HETATM   32  C   UNL     1      -9.076  16.309  66.323  1.00  0.00    -0.366 A  
HETATM   33  C   UNL     1      -9.232  17.694  66.332  1.00  0.00    -0.263 A  
HETATM   34  C   UNL     1     -10.134  18.282  67.220  1.00  0.00    -0.366 A  
HETATM   35  C   UNL     1     -10.869  17.491  68.089  1.00  0.00    -0.246 A  
HETATM   36  C   UNL     1     -10.703  16.090  68.076  1.00  0.00    -0.309 A  
HETATM   37  C   UNL     1     -11.483  15.258  69.002  1.00  0.00    -0.324 C  
HETATM   38  C   UNL     1     -11.231  13.803  69.070  1.00  0.00    -0.313 A  
HETATM   39  O   UNL     1     -12.349  15.761  69.716  1.00  0.00    -0.319 OA 
BRANCH  16  40
HETATM   40  C   UNL     1     -13.380   8.600  71.871  1.00  0.00    -0.382 C  
HETATM   41  O   UNL     1     -14.111   9.119  72.718  1.00  0.00    -0.518 OA 
HETATM   42  C   UNL     1     -13.557   7.144  71.492  1.00  0.00    -0.408 C  
ENDBRANCH  16  40
ENDBRANCH  13  14
ENDBRANCH   4  13
TORSDOF 3
ENDMDL
MODEL       38
REMARK 921   NORMALIZED FREE ENERGY PREDICTED BY IDOCK:   -6.65 KCAL/MOL
REMARK 922        TOTAL FREE ENERGY PREDICTED BY IDOCK:   -8.70 KCAL/MOL
REMARK 923 INTER-LIGAND FREE ENERGY PREDICTED BY IDOCK:   -7.75 KCAL/MOL
REMARK 924 INTRA-LIGAND FREE ENERGY PREDICTED BY IDOCK:   -0.95 KCAL/MOL
REMARK 927      BINDING AFFINITY PREDICTED BY RF-SCORE:    0.00 PKD
ROOT
HETATM    1  C   UNL     1     -12.004  16.663  73.380  1.00  0.00    -0.357 C  
HETATM    2  C   UNL     1     -11.677  15.673  72.259  1.00  0.00    -0.481 C  
HETATM    3  O   UNL     1     -12.095  16.288  71.026  1.00  0.00    -0.295 OA 
HETATM    4  C   UNL     1     -12.048  15.448  69.880  1.00  0.00    -0.355 C  
HETATM    5  H1  UNL     1     -12.932  11.720  72.401  1.00  0.00     0.000 HD 
HETATM    6  C   UNL     1     -12.861  14.171  70.098  1.00  0.00    -0.107 C  
HETATM    7  C   UNL     1     -12.361  13.386  71.310  1.00  0.00    -0.194 C  
HETATM    8  H   UNL     1     -14.019  13.563  73.259  1.00  0.00     0.000 HD 
HETATM    9  H2  UNL     1     -13.389  11.645  70.775  1.00  0.00     0.000 HD 
HETATM   10  N   UNL     1     -13.266  12.244  71.591  1.00  0.00    -0.351 NA 
HETATM   11  C   UNL     1     -12.302  14.289  72.553  1.00  0.00    -0.059 C  
HETATM   12  O   UNL     1     -13.635  14.412  73.078  1.00  0.00    -0.619 OA 
ENDROOT
BRANCH   4  13
HETATM   13  O   UNL     1     -10.723  15.129  69.463  1.00  0.00    -0.244 OA 
BRANCH  13  14
HETATM   14  C   UNL     1     -10.504  14.797  68.075  1.00  0.00    -0.246 C  
HETATM   15  C   UNL     1      -9.741  15.996  67.482  1.00  0.00    -0.228 C  
HETATM   16  C   UNL     1      -8.326  16.097  68.090  1.00  0.00    -0.166 C  
HETATM   17  C   UNL     1      -7.514  14.907  67.591  1.00  0.00    -0.205 C  
HETATM   18  O   UNL     1      -8.334  16.083  69.525  1.00  0.00    -0.199 OA 
HETATM   19  H   UNL     1      -5.802  11.807  66.607  1.00  0.00     0.000 HD 
HETATM   20  O   UNL     1      -6.271  12.591  66.871  1.00  0.00    -0.216 OA 
HETATM   21  C   UNL     1      -7.601  12.437  67.182  1.00  0.00    -0.104 A  
HETATM   22  C   UNL     1      -8.294  13.595  67.572  1.00  0.00    -0.191 A  
HETATM   23  H   UNL     1      -7.463  16.145  69.900  1.00  0.00     0.000 HD 
HETATM   24  C   UNL     1      -9.693  13.526  67.824  1.00  0.00    -0.226 A  
HETATM   25  C   UNL     1     -10.333  12.271  67.709  1.00  0.00    -0.207 A  
HETATM   26  O   UNL     1     -11.687  12.160  67.874  1.00  0.00    -0.334 OA 
HETATM   27  C   UNL     1      -9.617  11.105  67.346  1.00  0.00    -0.183 A  
HETATM   28  C   UNL     1     -10.289   9.777  67.225  1.00  0.00    -0.248 C  
HETATM   29  H   UNL     1     -12.117  11.317  67.796  1.00  0.00     0.000 HD 
HETATM   30  C   UNL     1      -9.493   8.588  66.875  1.00  0.00    -0.237 A  
HETATM   31  O   UNL     1     -11.488   9.619  67.418  1.00  0.00     0.189 OA 
HETATM   32  C   UNL     1     -10.105   7.329  66.831  1.00  0.00    -0.317 A  
HETATM   33  C   UNL     1      -9.363   6.190  66.526  1.00  0.00    -0.171 A  
HETATM   34  C   UNL     1      -7.999   6.305  66.252  1.00  0.00    -0.110 A  
HETATM   35  C   UNL     1      -7.387   7.548  66.286  1.00  0.00    -0.082 A  
HETATM   36  C   UNL     1      -8.144   8.697  66.598  1.00  0.00    -0.100 A  
HETATM   37  C   UNL     1      -7.488  10.010  66.635  1.00  0.00    -0.104 C  
HETATM   38  C   UNL     1      -8.250  11.199  67.072  1.00  0.00    -0.146 A  
HETATM   39  O   UNL     1      -6.311  10.131  66.300  1.00  0.00    -0.073 OA 
BRANCH  16  40
HETATM   40  C   UNL     1      -7.648  17.425  67.711  1.00  0.00    -0.194 C  
HETATM   41  O   UNL     1      -7.725  18.431  68.420  1.00  0.00    -0.278 OA 
HETATM   42  C   UNL     1      -6.880  17.462  66.406  1.00  0.00    -0.310 C  
ENDBRANCH  16  40
ENDBRANCH  13  14
ENDBRANCH   4  13
TORSDOF 3
ENDMDL
MODEL       39
REMARK 921   NORMALIZED FREE ENERGY PREDICTED BY IDOCK:   -6.56 KCAL/MOL
REMARK 922        TOTAL FREE ENERGY PREDICTED BY IDOCK:   -8.60 KCAL/MOL
REMARK 923 INTER-LIGAND FREE ENERGY PREDICTED BY IDOCK:   -7.65 KCAL/MOL
REMARK 924 INTRA-LIGAND FREE ENERGY PREDICTED BY IDOCK:   -0.94 KCAL/MOL
REMARK 927      BINDING AFFINITY PREDICTED BY RF-SCORE:    0.00 PKD
ROOT
HETATM    1  C   UNL     1      -5.877   3.825  68.150  1.00  0.00    -0.026 C  
HETATM    2  C   UNL     1      -6.529   4.992  67.405  1.00  0.00    -0.045 C  
HETATM    3  O   UNL     1      -7.928   4.672  67.274  1.00  0.00    -0.100 OA 
HETATM    4  C   UNL     1      -8.677   5.549  66.442  1.00  0.00    -0.123 C  
HETATM    5  H1  UNL     1      -5.025   6.395  63.801  1.00  0.00     0.000 HD 
HETATM    6  C   UNL     1      -8.059   5.649  65.047  1.00  0.00    -0.122 C  
HETATM    7  C   UNL     1      -6.612   6.137  65.107  1.00  0.00    -0.043 C  
HETATM    8  H   UNL     1      -4.982   4.227  64.584  1.00  0.00     0.000 HD 
HETATM    9  H2  UNL     1      -6.535   6.577  63.064  1.00  0.00     0.000 HD 
HETATM   10  N   UNL     1      -5.991   6.069  63.761  1.00  0.00    -0.022 NA 
HETATM   11  C   UNL     1      -5.788   5.273  66.076  1.00  0.00    -0.018 C  
HETATM   12  O   UNL     1      -5.437   4.055  65.400  1.00  0.00    -0.009 OA 
ENDROOT
BRANCH   4  13
HETATM   13  O   UNL     1      -8.857   6.848  67.001  1.00  0.00    -0.116 OA 
BRANCH  13  14
HETATM   14  C   UNL     1     -10.191   7.399  67.035  1.00  0.00    -0.287 C  
HETATM   15  C   UNL     1     -10.947   6.576  68.095  1.00  0.00    -0.365 C  
HETATM   16  C   UNL     1     -10.375   6.843  69.503  1.00  0.00    -0.207 C  
HETATM   17  C   UNL     1     -10.722   8.278  69.887  1.00  0.00    -0.234 C  
HETATM   18  O   UNL     1      -8.952   6.677  69.566  1.00  0.00    -0.138 OA 
HETATM   19  H   UNL     1     -11.305  11.851  70.520  1.00  0.00     0.000 HD 
HETATM   20  O   UNL     1     -11.142  10.935  70.327  1.00  0.00    -0.248 OA 
HETATM   21  C   UNL     1     -10.797  10.631  69.030  1.00  0.00    -0.235 A  
HETATM   22  C   UNL     1     -10.556   9.277  68.744  1.00  0.00    -0.220 A  
HETATM   23  H   UNL     1      -8.600   6.841  70.434  1.00  0.00     0.000 HD 
HETATM   24  C   UNL     1     -10.280   8.880  67.406  1.00  0.00    -0.313 A  
HETATM   25  C   UNL     1     -10.219   9.880  66.410  1.00  0.00    -0.222 A  
HETATM   26  O   UNL     1     -10.025   9.546  65.097  1.00  0.00    -0.429 OA 
HETATM   27  C   UNL     1     -10.433  11.245  66.717  1.00  0.00    -0.291 A  
HETATM   28  C   UNL     1     -10.367  12.305  65.667  1.00  0.00    -0.257 C  
HETATM   29  H   UNL     1      -9.983  10.218  64.428  1.00  0.00     0.000 HD 
HETATM   30  C   UNL     1     -10.566  13.715  66.044  1.00  0.00    -0.290 A  
HETATM   31  O   UNL     1     -10.140  12.061  64.489  1.00  0.00    -0.271 OA 
HETATM   32  C   UNL     1     -10.433  14.720  65.077  1.00  0.00    -0.443 A  
HETATM   33  C   UNL     1     -10.593  16.060  65.420  1.00  0.00    -0.428 A  
HETATM   34  C   UNL     1     -10.897  16.406  66.737  1.00  0.00    -0.098 A  
HETATM   35  C   UNL     1     -11.036  15.419  67.700  1.00  0.00    -0.316 A  
HETATM   36  C   UNL     1     -10.870  14.063  67.346  1.00  0.00    -0.288 A  
HETATM   37  C   UNL     1     -11.017  13.022  68.371  1.00  0.00    -0.262 C  
HETATM   38  C   UNL     1     -10.733  11.612  68.031  1.00  0.00    -0.246 A  
HETATM   39  O   UNL     1     -11.380  13.313  69.510  1.00  0.00    -0.240 OA 
BRANCH  16  40
HETATM   40  C   UNL     1     -10.936   5.847  70.532  1.00  0.00    -0.292 C  
HETATM   41  O   UNL     1     -11.889   6.122  71.266  1.00  0.00    -0.254 OA 
HETATM   42  C   UNL     1     -10.257   4.496  70.630  1.00  0.00    -0.158 C  
ENDBRANCH  16  40
ENDBRANCH  13  14
ENDBRANCH   4  13
TORSDOF 3
ENDMDL
MODEL       40
REMARK 921   NORMALIZED FREE ENERGY PREDICTED BY IDOCK:   -6.52 KCAL/MOL
REMARK 922        TOTAL FREE ENERGY PREDICTED BY IDOCK:   -8.55 KCAL/MOL
REMARK 923 INTER-LIGAND FREE ENERGY PREDICTED BY IDOCK:   -7.66 KCAL/MOL
REMARK 924 INTRA-LIGAND FREE ENERGY PREDICTED BY IDOCK:   -0.89 KCAL/MOL
REMARK 927      BINDING AFFINITY PREDICTED BY RF-SCORE:    0.00 PKD
ROOT
HETATM    1  C   UNL     1      -9.399  15.933  66.234  1.00  0.00    -0.357 C  
HETATM    2  C   UNL     1      -9.684  15.070  67.466  1.00  0.00    -0.215 C  
HETATM    3  O   UNL     1     -10.475  13.953  67.016  1.00  0.00    -0.274 OA 
HETATM    4  C   UNL     1     -11.004  13.128  68.046  1.00  0.00    -0.247 C  
HETATM    5  H1  UNL     1     -11.295  16.678  70.935  1.00  0.00     0.000 HD 
HETATM    6  C   UNL     1     -11.825  13.948  69.043  1.00  0.00    -0.397 C  
HETATM    7  C   UNL     1     -10.991  15.061  69.677  1.00  0.00    -0.279 C  
HETATM    8  H   UNL     1     -11.689  17.356  68.767  1.00  0.00     0.000 HD 
HETATM    9  H2  UNL     1     -12.371  15.403  71.211  1.00  0.00     0.000 HD 
HETATM   10  N   UNL     1     -11.852  15.935  70.512  1.00  0.00    -0.361 NA 
HETATM   11  C   UNL     1     -10.319  15.919  68.592  1.00  0.00    -0.229 C  
HETATM   12  O   UNL     1     -11.300  16.834  68.075  1.00  0.00    -0.224 OA 
ENDROOT
BRANCH   4  13
HETATM   13  O   UNL     1     -10.012  12.364  68.728  1.00  0.00    -0.152 OA 
BRANCH  13  14
HETATM   14  C   UNL     1      -9.669  11.064  68.201  1.00  0.00    -0.174 C  
HETATM   15  C   UNL     1      -8.442  11.298  67.299  1.00  0.00    -0.144 C  
HETATM   16  C   UNL     1      -7.219  11.717  68.141  1.00  0.00    -0.085 C  
HETATM   17  C   UNL     1      -6.792  10.516  68.979  1.00  0.00    -0.068 C  
HETATM   18  O   UNL     1      -7.497  12.818  69.018  1.00  0.00    -0.287 OA 
HETATM   19  H   UNL     1      -6.109   7.667  71.196  1.00  0.00     0.000 HD 
HETATM   20  O   UNL     1      -6.317   8.402  70.632  1.00  0.00    -0.035 OA 
HETATM   21  C   UNL     1      -7.652   8.653  70.416  1.00  0.00    -0.075 A  
HETATM   22  C   UNL     1      -7.960   9.740  69.581  1.00  0.00    -0.152 A  
HETATM   23  H   UNL     1      -6.743  13.076  69.537  1.00  0.00     0.000 HD 
HETATM   24  C   UNL     1      -9.317  10.004  69.245  1.00  0.00    -0.224 A  
HETATM   25  C   UNL     1     -10.319   9.179  69.802  1.00  0.00    -0.215 A  
HETATM   26  O   UNL     1     -11.633   9.346  69.459  1.00  0.00    -0.437 OA 
HETATM   27  C   UNL     1      -9.997   8.106  70.668  1.00  0.00    -0.204 A  
HETATM   28  C   UNL     1     -11.052   7.232  71.261  1.00  0.00    -0.247 C  
HETATM   29  H   UNL     1     -12.306   8.791  69.834  1.00  0.00     0.000 HD 
HETATM   30  C   UNL     1     -10.667   6.148  72.182  1.00  0.00    -0.277 A  
HETATM   31  O   UNL     1     -12.246   7.379  71.028  1.00  0.00    -0.315 OA 
HETATM   32  C   UNL     1     -11.657   5.372  72.797  1.00  0.00    -0.293 A  
HETATM   33  C   UNL     1     -11.313   4.360  73.690  1.00  0.00    -0.287 A  
HETATM   34  C   UNL     1      -9.969   4.110  73.967  1.00  0.00    -0.182 A  
HETATM   35  C   UNL     1      -8.981   4.868  73.358  1.00  0.00    -0.112 A  
HETATM   36  C   UNL     1      -9.338   5.893  72.457  1.00  0.00    -0.146 A  
HETATM   37  C   UNL     1      -8.286   6.695  71.817  1.00  0.00    -0.111 C  
HETATM   38  C   UNL     1      -8.657   7.842  70.962  1.00  0.00    -0.128 A  
HETATM   39  O   UNL     1      -7.100   6.416  71.982  1.00  0.00    -0.078 OA 
BRANCH  16  40
HETATM   40  C   UNL     1      -6.065  12.204  67.248  1.00  0.00    -0.153 C  
HETATM   41  O   UNL     1      -5.631  13.357  67.302  1.00  0.00    -0.354 OA 
HETATM   42  C   UNL     1      -5.479  11.207  66.270  1.00  0.00    -0.142 C  
ENDBRANCH  16  40
ENDBRANCH  13  14
ENDBRANCH   4  13
TORSDOF 3
ENDMDL
MODEL       41
REMARK 921   NORMALIZED FREE ENERGY PREDICTED BY IDOCK:   -6.42 KCAL/MOL
REMARK 922        TOTAL FREE ENERGY PREDICTED BY IDOCK:   -8.43 KCAL/MOL
REMARK 923 INTER-LIGAND FREE ENERGY PREDICTED BY IDOCK:   -7.52 KCAL/MOL
REMARK 924 INTRA-LIGAND FREE ENERGY PREDICTED BY IDOCK:   -0.91 KCAL/MOL
REMARK 927      BINDING AFFINITY PREDICTED BY RF-SCORE:    0.00 PKD
ROOT
HETATM    1  C   UNL     1      -9.140   6.415  66.473  1.00  0.00    -0.162 C  
HETATM    2  C   UNL     1      -8.621   7.757  65.951  1.00  0.00    -0.153 C  
HETATM    3  O   UNL     1      -9.771   8.608  65.779  1.00  0.00    -0.167 OA 
HETATM    4  C   UNL     1      -9.519   9.844  65.121  1.00  0.00    -0.275 C  
HETATM    5  H1  UNL     1      -6.134   7.998  62.638  1.00  0.00     0.000 HD 
HETATM    6  C   UNL     1      -8.859   9.621  63.760  1.00  0.00    -0.257 C  
HETATM    7  C   UNL     1      -7.544   8.852  63.892  1.00  0.00    -0.121 C  
HETATM    8  H   UNL     1      -7.800   6.452  63.025  1.00  0.00     0.000 HD 
HETATM    9  H2  UNL     1      -6.912   9.337  61.958  1.00  0.00     0.000 HD 
HETATM   10  N   UNL     1      -7.012   8.511  62.550  1.00  0.00    -0.094 NA 
HETATM   11  C   UNL     1      -7.754   7.552  64.686  1.00  0.00    -0.122 C  
HETATM   12  O   UNL     1      -8.332   6.578  63.802  1.00  0.00     0.004 OA 
ENDROOT
BRANCH   4  13
HETATM   13  O   UNL     1      -8.753  10.757  65.903  1.00  0.00    -0.170 OA 
BRANCH  13  14
HETATM   14  C   UNL     1      -9.394  11.404  67.023  1.00  0.00    -0.174 C  
HETATM   15  C   UNL     1      -9.015  10.562  68.256  1.00  0.00    -0.139 C  
HETATM   16  C   UNL     1      -7.504  10.675  68.548  1.00  0.00    -0.093 C  
HETATM   17  C   UNL     1      -7.221  12.098  69.019  1.00  0.00    -0.037 C  
HETATM   18  O   UNL     1      -6.691  10.396  67.399  1.00  0.00    -0.070 OA 
HETATM   19  H   UNL     1      -6.634  15.645  69.779  1.00  0.00     0.000 HD 
HETATM   20  O   UNL     1      -6.802  14.737  69.556  1.00  0.00    -0.146 OA 
HETATM   21  C   UNL     1      -7.724  14.509  68.560  1.00  0.00    -0.129 A  
HETATM   22  C   UNL     1      -7.974  13.166  68.230  1.00  0.00    -0.148 A  
HETATM   23  H   UNL     1      -5.761  10.466  67.580  1.00  0.00     0.000 HD 
HETATM   24  C   UNL     1      -8.977  12.854  67.271  1.00  0.00    -0.208 A  
HETATM   25  C   UNL     1      -9.665  13.920  66.650  1.00  0.00    -0.289 A  
HETATM   26  O   UNL     1     -10.686  13.676  65.771  1.00  0.00    -0.273 OA 
HETATM   27  C   UNL     1      -9.382  15.270  66.968  1.00  0.00    -0.238 A  
HETATM   28  C   UNL     1     -10.106  16.400  66.313  1.00  0.00    -0.331 C  
HETATM   29  H   UNL     1     -11.148  14.392  65.354  1.00  0.00     0.000 HD 
HETATM   30  C   UNL     1      -9.751  17.788  66.657  1.00  0.00    -0.314 A  
HETATM   31  O   UNL     1     -10.987  16.231  65.480  1.00  0.00    -0.258 OA 
HETATM   32  C   UNL     1     -10.375  18.851  65.993  1.00  0.00    -0.485 A  
HETATM   33  C   UNL     1     -10.035  20.170  66.286  1.00  0.00    -0.557 A  
HETATM   34  C   UNL     1      -9.069  20.434  67.258  1.00  0.00    -0.500 A  
HETATM   35  C   UNL     1      -8.450  19.389  67.926  1.00  0.00    -0.348 A  
HETATM   36  C   UNL     1      -8.798  18.056  67.621  1.00  0.00    -0.254 A  
HETATM   37  C   UNL     1      -8.137  16.953  68.330  1.00  0.00    -0.237 C  
HETATM   38  C   UNL     1      -8.415  15.557  67.936  1.00  0.00    -0.146 A  
HETATM   39  O   UNL     1      -7.358  17.182  69.254  1.00  0.00    -0.211 OA 
BRANCH  16  40
HETATM   40  C   UNL     1      -7.061   9.647  69.605  1.00  0.00    -0.075 C  
HETATM   41  O   UNL     1      -7.053   9.903  70.811  1.00  0.00    -0.294 OA 
HETATM   42  C   UNL     1      -6.611   8.290  69.104  1.00  0.00    -0.043 C  
ENDBRANCH  16  40
ENDBRANCH  13  14
ENDBRANCH   4  13
TORSDOF 3
ENDMDL
MODEL       42
REMARK 921   NORMALIZED FREE ENERGY PREDICTED BY IDOCK:   -6.40 KCAL/MOL
REMARK 922        TOTAL FREE ENERGY PREDICTED BY IDOCK:   -8.41 KCAL/MOL
REMARK 923 INTER-LIGAND FREE ENERGY PREDICTED BY IDOCK:   -7.46 KCAL/MOL
REMARK 924 INTRA-LIGAND FREE ENERGY PREDICTED BY IDOCK:   -0.95 KCAL/MOL
REMARK 927      BINDING AFFINITY PREDICTED BY RF-SCORE:    0.00 PKD
ROOT
HETATM    1  C   UNL     1     -10.080   3.227  71.937  1.00  0.00    -0.153 C  
HETATM    2  C   UNL     1     -10.133   4.635  71.339  1.00  0.00    -0.178 C  
HETATM    3  O   UNL     1      -8.796   5.166  71.407  1.00  0.00    -0.129 OA 
HETATM    4  C   UNL     1      -8.669   6.542  71.071  1.00  0.00    -0.138 C  
HETATM    5  H1  UNL     1     -12.878   7.461  72.642  1.00  0.00     0.000 HD 
HETATM    6  C   UNL     1      -9.591   7.408  71.930  1.00  0.00    -0.174 C  
HETATM    7  C   UNL     1     -11.054   6.992  71.780  1.00  0.00    -0.239 C  
HETATM    8  H   UNL     1     -11.885   5.797  73.892  1.00  0.00     0.000 HD 
HETATM    9  H2  UNL     1     -11.781   8.747  72.654  1.00  0.00     0.000 HD 
HETATM   10  N   UNL     1     -11.901   7.738  72.743  1.00  0.00    -0.258 NA 
HETATM   11  C   UNL     1     -11.219   5.485  72.039  1.00  0.00    -0.156 C  
HETATM   12  O   UNL     1     -11.218   5.275  73.461  1.00  0.00    -0.296 OA 
ENDROOT
BRANCH   4  13
HETATM   13  O   UNL     1      -8.882   6.810  69.687  1.00  0.00    -0.142 OA 
BRANCH  13  14
HETATM   14  C   UNL     1      -8.069   7.821  69.053  1.00  0.00    -0.125 C  
HETATM   15  C   UNL     1      -6.848   7.072  68.488  1.00  0.00    -0.073 C  
HETATM   16  C   UNL     1      -7.269   6.130  67.341  1.00  0.00    -0.076 C  
HETATM   17  C   UNL     1      -7.705   6.992  66.161  1.00  0.00    -0.095 C  
HETATM   18  O   UNL     1      -8.351   5.260  67.703  1.00  0.00    -0.106 OA 
HETATM   19  H   UNL     1      -9.065   9.185  63.545  1.00  0.00     0.000 HD 
HETATM   20  O   UNL     1      -8.732   8.634  64.243  1.00  0.00    -0.093 OA 
HETATM   21  C   UNL     1      -9.035   9.018  65.528  1.00  0.00    -0.204 A  
HETATM   22  C   UNL     1      -8.542   8.204  66.562  1.00  0.00    -0.146 A  
HETATM   23  H   UNL     1      -8.610   4.680  66.996  1.00  0.00     0.000 HD 
HETATM   24  C   UNL     1      -8.744   8.589  67.916  1.00  0.00    -0.138 A  
HETATM   25  C   UNL     1      -9.476   9.769  68.175  1.00  0.00    -0.135 A  
HETATM   26  O   UNL     1      -9.641  10.222  69.456  1.00  0.00    -0.230 OA 
HETATM   27  C   UNL     1      -9.994  10.565  67.126  1.00  0.00    -0.234 A  
HETATM   28  C   UNL     1     -10.769  11.812  67.395  1.00  0.00    -0.236 C  
HETATM   29  H   UNL     1     -10.132  11.015  69.630  1.00  0.00     0.000 HD 
HETATM   30  C   UNL     1     -11.315  12.588  66.268  1.00  0.00    -0.386 A  
HETATM   31  O   UNL     1     -10.991  12.226  68.526  1.00  0.00    -0.216 OA 
HETATM   32  C   UNL     1     -12.104  13.718  66.517  1.00  0.00    -0.483 A  
HETATM   33  C   UNL     1     -12.649  14.449  65.464  1.00  0.00    -0.345 A  
HETATM   34  C   UNL     1     -12.399  14.058  64.148  1.00  0.00    -0.374 A  
HETATM   35  C   UNL     1     -11.615  12.945  63.891  1.00  0.00    -0.515 A  
HETATM   36  C   UNL     1     -11.068  12.208  64.963  1.00  0.00    -0.368 A  
HETATM   37  C   UNL     1     -10.239  11.027  64.684  1.00  0.00    -0.330 C  
HETATM   38  C   UNL     1      -9.759  10.187  65.801  1.00  0.00    -0.307 A  
HETATM   39  O   UNL     1      -9.936  10.736  63.528  1.00  0.00    -0.323 OA 
BRANCH  16  40
HETATM   40  C   UNL     1      -6.120   5.188  66.941  1.00  0.00    -0.031 C  
HETATM   41  O   UNL     1      -5.550   4.459  67.756  1.00  0.00    -0.015 OA 
HETATM   42  C   UNL     1      -5.693   5.196  65.488  1.00  0.00    -0.014 C  
ENDBRANCH  16  40
ENDBRANCH  13  14
ENDBRANCH   4  13
TORSDOF 3
ENDMDL
MODEL       43
REMARK 921   NORMALIZED FREE ENERGY PREDICTED BY IDOCK:   -6.38 KCAL/MOL
REMARK 922        TOTAL FREE ENERGY PREDICTED BY IDOCK:   -8.39 KCAL/MOL
REMARK 923 INTER-LIGAND FREE ENERGY PREDICTED BY IDOCK:   -8.23 KCAL/MOL
REMARK 924 INTRA-LIGAND FREE ENERGY PREDICTED BY IDOCK:   -0.16 KCAL/MOL
REMARK 927      BINDING AFFINITY PREDICTED BY RF-SCORE:    0.00 PKD
ROOT
HETATM    1  C   UNL     1     -12.338  10.086  71.675  1.00  0.00    -0.486 C  
HETATM    2  C   UNL     1     -11.334   8.932  71.623  1.00  0.00    -0.337 C  
HETATM    3  O   UNL     1     -11.111   8.637  70.231  1.00  0.00    -0.247 OA 
HETATM    4  C   UNL     1     -10.346   7.467  69.972  1.00  0.00    -0.219 C  
HETATM    5  H1  UNL     1     -11.919   5.427  73.767  1.00  0.00     0.000 HD 
HETATM    6  C   UNL     1     -10.968   6.242  70.644  1.00  0.00    -0.370 C  
HETATM    7  C   UNL     1     -11.088   6.432  72.156  1.00  0.00    -0.263 C  
HETATM    8  H   UNL     1     -13.536   6.785  72.839  1.00  0.00     0.000 HD 
HETATM    9  H2  UNL     1     -11.425   4.399  72.519  1.00  0.00     0.000 HD 
HETATM   10  N   UNL     1     -11.838   5.301  72.757  1.00  0.00    -0.177 NA 
HETATM   11  C   UNL     1     -11.824   7.742  72.481  1.00  0.00    -0.302 C  
HETATM   12  O   UNL     1     -13.234   7.515  72.313  1.00  0.00    -0.082 OA 
ENDROOT
BRANCH   4  13
HETATM   13  O   UNL     1      -8.974   7.592  70.336  1.00  0.00    -0.150 OA 
BRANCH  13  14
HETATM   14  C   UNL     1      -8.140   8.481  69.562  1.00  0.00    -0.111 C  
HETATM   15  C   UNL     1      -6.881   7.665  69.214  1.00  0.00    -0.052 C  
HETATM   16  C   UNL     1      -7.228   6.512  68.249  1.00  0.00    -0.085 C  
HETATM   17  C   UNL     1      -7.610   7.123  66.905  1.00  0.00    -0.101 C  
HETATM   18  O   UNL     1      -8.318   5.703  68.716  1.00  0.00    -0.102 OA 
HETATM   19  H   UNL     1      -8.853   8.745  63.851  1.00  0.00     0.000 HD 
HETATM   20  O   UNL     1      -8.551   8.345  64.658  1.00  0.00    -0.131 OA 
HETATM   21  C   UNL     1      -8.928   8.961  65.828  1.00  0.00    -0.203 A  
HETATM   22  C   UNL     1      -8.482   8.370  67.022  1.00  0.00    -0.122 A  
HETATM   23  H   UNL     1      -8.532   4.993  68.121  1.00  0.00     0.000 HD 
HETATM   24  C   UNL     1      -8.761   9.002  68.266  1.00  0.00    -0.130 A  
HETATM   25  C   UNL     1      -9.520  10.194  68.256  1.00  0.00    -0.140 A  
HETATM   26  O   UNL     1      -9.759  10.879  69.417  1.00  0.00    -0.402 OA 
HETATM   27  C   UNL     1      -9.990  10.763  67.049  1.00  0.00    -0.236 A  
HETATM   28  C   UNL     1     -10.793  12.022  67.034  1.00  0.00    -0.253 C  
HETATM   29  H   UNL     1     -10.269  11.680  69.410  1.00  0.00     0.000 HD 
HETATM   30  C   UNL     1     -11.286  12.555  65.753  1.00  0.00    -0.373 A  
HETATM   31  O   UNL     1     -11.080  12.639  68.052  1.00  0.00    -0.227 OA 
HETATM   32  C   UNL     1     -12.101  13.695  65.740  1.00  0.00    -0.463 A  
HETATM   33  C   UNL     1     -12.597  14.199  64.540  1.00  0.00    -0.242 A  
HETATM   34  C   UNL     1     -12.272  13.570  63.338  1.00  0.00    -0.338 A  
HETATM   35  C   UNL     1     -11.461  12.446  63.339  1.00  0.00    -0.526 A  
HETATM   36  C   UNL     1     -10.965  11.939  64.559  1.00  0.00    -0.376 A  
HETATM   37  C   UNL     1     -10.108  10.745  64.554  1.00  0.00    -0.350 C  
HETATM   38  C   UNL     1      -9.680  10.145  65.834  1.00  0.00    -0.292 A  
HETATM   39  O   UNL     1      -9.739  10.245  63.492  1.00  0.00    -0.298 OA 
BRANCH  16  40
HETATM   40  C   UNL     1      -6.049   5.536  68.096  1.00  0.00    -0.026 C  
HETATM   41  O   UNL     1      -5.365   5.172  69.056  1.00  0.00    -0.003 OA 
HETATM   42  C   UNL     1      -5.738   5.039  66.699  1.00  0.00    -0.018 C  
ENDBRANCH  16  40
ENDBRANCH  13  14
ENDBRANCH   4  13
TORSDOF 3
ENDMDL
MODEL       44
REMARK 921   NORMALIZED FREE ENERGY PREDICTED BY IDOCK:   -6.36 KCAL/MOL
REMARK 922        TOTAL FREE ENERGY PREDICTED BY IDOCK:   -8.36 KCAL/MOL
REMARK 923 INTER-LIGAND FREE ENERGY PREDICTED BY IDOCK:   -7.49 KCAL/MOL
REMARK 924 INTRA-LIGAND FREE ENERGY PREDICTED BY IDOCK:   -0.88 KCAL/MOL
REMARK 927      BINDING AFFINITY PREDICTED BY RF-SCORE:    0.00 PKD
ROOT
HETATM    1  C   UNL     1     -12.732  14.438  70.452  1.00  0.00    -0.362 C  
HETATM    2  C   UNL     1     -11.753  14.554  69.281  1.00  0.00    -0.310 C  
HETATM    3  O   UNL     1     -10.674  13.638  69.549  1.00  0.00    -0.033 OA 
HETATM    4  C   UNL     1      -9.562  13.732  68.667  1.00  0.00    -0.121 C  
HETATM    5  H1  UNL     1     -10.261  18.220  68.034  1.00  0.00     0.000 HD 
HETATM    6  C   UNL     1      -9.006  15.156  68.629  1.00  0.00    -0.191 C  
HETATM    7  C   UNL     1     -10.071  16.164  68.195  1.00  0.00    -0.237 C  
HETATM    8  H   UNL     1     -10.831  17.600  70.181  1.00  0.00     0.000 HD 
HETATM    9  H2  UNL     1      -8.676  17.675  67.814  1.00  0.00     0.000 HD 
HETATM   10  N   UNL     1      -9.551  17.548  68.324  1.00  0.00    -0.287 NA 
HETATM   11  C   UNL     1     -11.332  16.027  69.064  1.00  0.00    -0.363 C  
HETATM   12  O   UNL     1     -11.089  16.695  70.313  1.00  0.00    -0.297 OA 
ENDROOT
BRANCH   4  13
HETATM   13  O   UNL     1      -9.844  13.272  67.348  1.00  0.00    -0.220 OA 
BRANCH  13  14
HETATM   14  C   UNL     1     -10.505  11.997  67.195  1.00  0.00    -0.220 C  
HETATM   15  C   UNL     1     -11.636  12.241  66.178  1.00  0.00    -0.450 C  
HETATM   16  C   UNL     1     -11.056  12.554  64.783  1.00  0.00    -0.301 C  
HETATM   17  C   UNL     1     -10.399  11.284  64.251  1.00  0.00    -0.399 C  
HETATM   18  O   UNL     1     -10.080  13.605  64.808  1.00  0.00    -0.574 OA 
HETATM   19  H   UNL     1      -8.545   8.269  63.263  1.00  0.00     0.000 HD 
HETATM   20  O   UNL     1      -9.009   9.048  63.548  1.00  0.00    -0.087 OA 
HETATM   21  C   UNL     1      -8.917   9.366  64.882  1.00  0.00    -0.209 A  
HETATM   22  C   UNL     1      -9.604  10.517  65.304  1.00  0.00    -0.303 A  
HETATM   23  H   UNL     1      -9.723  13.797  63.948  1.00  0.00     0.000 HD 
HETATM   24  C   UNL     1      -9.623  10.857  66.685  1.00  0.00    -0.213 A  
HETATM   25  C   UNL     1      -8.908  10.037  67.587  1.00  0.00    -0.121 A  
HETATM   26  O   UNL     1      -8.949  10.279  68.933  1.00  0.00    -0.145 OA 
HETATM   27  C   UNL     1      -8.194   8.898  67.145  1.00  0.00    -0.103 A  
HETATM   28  C   UNL     1      -7.437   8.029  68.095  1.00  0.00    -0.101 C  
HETATM   29  H   UNL     1      -8.469   9.728  69.539  1.00  0.00     0.000 HD 
HETATM   30  C   UNL     1      -6.683   6.873  67.580  1.00  0.00    -0.067 A  
HETATM   31  O   UNL     1      -7.397   8.239  69.301  1.00  0.00    -0.072 OA 
HETATM   32  C   UNL     1      -5.913   6.098  68.456  1.00  0.00    -0.016 A  
HETATM   33  C   UNL     1      -5.173   5.016  67.984  1.00  0.00    -0.010 A  
HETATM   34  C   UNL     1      -5.208   4.694  66.626  1.00  0.00    -0.009 A  
HETATM   35  C   UNL     1      -5.973   5.451  65.753  1.00  0.00    -0.025 A  
HETATM   36  C   UNL     1      -6.717   6.547  66.238  1.00  0.00    -0.053 A  
HETATM   37  C   UNL     1      -7.523   7.347  65.307  1.00  0.00    -0.085 C  
HETATM   38  C   UNL     1      -8.212   8.562  65.789  1.00  0.00    -0.125 A  
HETATM   39  O   UNL     1      -7.635   7.010  64.129  1.00  0.00    -0.098 OA 
BRANCH  16  40
HETATM   40  C   UNL     1     -12.150  13.052  63.822  1.00  0.00    -0.502 C  
HETATM   41  O   UNL     1     -12.436  14.247  63.711  1.00  0.00    -0.810 OA 
HETATM   42  C   UNL     1     -12.889  12.007  63.012  1.00  0.00     0.033 C  
ENDBRANCH  16  40
ENDBRANCH  13  14
ENDBRANCH   4  13
TORSDOF 3
ENDMDL
MODEL       45
REMARK 921   NORMALIZED FREE ENERGY PREDICTED BY IDOCK:   -6.35 KCAL/MOL
REMARK 922        TOTAL FREE ENERGY PREDICTED BY IDOCK:   -8.36 KCAL/MOL
REMARK 923 INTER-LIGAND FREE ENERGY PREDICTED BY IDOCK:   -7.69 KCAL/MOL
REMARK 924 INTRA-LIGAND FREE ENERGY PREDICTED BY IDOCK:   -0.67 KCAL/MOL
REMARK 927      BINDING AFFINITY PREDICTED BY RF-SCORE:    0.00 PKD
ROOT
HETATM    1  C   UNL     1     -13.125   7.867  71.888  1.00  0.00    -0.316 C  
HETATM    2  C   UNL     1     -11.692   7.372  71.681  1.00  0.00    -0.279 C  
HETATM    3  O   UNL     1     -11.537   7.125  70.270  1.00  0.00    -0.277 OA 
HETATM    4  C   UNL     1     -10.327   6.478  69.895  1.00  0.00    -0.191 C  
HETATM    5  H1  UNL     1     -10.131   4.218  73.881  1.00  0.00     0.000 HD 
HETATM    6  C   UNL     1     -10.146   5.162  70.652  1.00  0.00    -0.309 C  
HETATM    7  C   UNL     1     -10.145   5.379  72.165  1.00  0.00    -0.190 C  
HETATM    8  H   UNL     1     -12.319   4.508  73.213  1.00  0.00     0.000 HD 
HETATM    9  H2  UNL     1      -9.354   3.485  72.570  1.00  0.00     0.000 HD 
HETATM   10  N   UNL     1     -10.132   4.073  72.871  1.00  0.00    -0.148 NA 
HETATM   11  C   UNL     1     -11.393   6.164  72.601  1.00  0.00    -0.259 C  
HETATM   12  O   UNL     1     -12.502   5.250  72.648  1.00  0.00     0.071 OA 
ENDROOT
BRANCH   4  13
HETATM   13  O   UNL     1      -9.172   7.301  70.046  1.00  0.00    -0.149 OA 
BRANCH  13  14
HETATM   14  C   UNL     1      -9.339   8.612  70.629  1.00  0.00    -0.185 C  
HETATM   15  C   UNL     1      -8.272   8.708  71.735  1.00  0.00    -0.184 C  
HETATM   16  C   UNL     1      -6.855   8.726  71.125  1.00  0.00    -0.078 C  
HETATM   17  C   UNL     1      -6.680  10.045  70.380  1.00  0.00    -0.138 C  
HETATM   18  O   UNL     1      -6.628   7.643  70.211  1.00  0.00    -0.038 OA 
HETATM   19  H   UNL     1      -6.536  13.088  68.325  1.00  0.00     0.000 HD 
HETATM   20  O   UNL     1      -6.602  12.294  68.842  1.00  0.00    -0.081 OA 
HETATM   21  C   UNL     1      -7.812  11.640  68.815  1.00  0.00    -0.096 A  
HETATM   22  C   UNL     1      -7.910  10.466  69.580  1.00  0.00    -0.161 A  
HETATM   23  H   UNL     1      -5.755   7.654  69.835  1.00  0.00     0.000 HD 
HETATM   24  C   UNL     1      -9.156   9.786  69.666  1.00  0.00    -0.235 A  
HETATM   25  C   UNL     1     -10.253  10.302  68.939  1.00  0.00    -0.205 A  
HETATM   26  O   UNL     1     -11.491   9.728  69.041  1.00  0.00    -0.463 OA 
HETATM   27  C   UNL     1     -10.133  11.469  68.147  1.00  0.00    -0.201 A  
HETATM   28  C   UNL     1     -11.288  12.016  67.376  1.00  0.00    -0.327 C  
HETATM   29  H   UNL     1     -12.227  10.074  68.552  1.00  0.00     0.000 HD 
HETATM   30  C   UNL     1     -11.103  13.216  66.541  1.00  0.00    -0.317 A  
HETATM   31  O   UNL     1     -12.400  11.504  67.391  1.00  0.00    -0.120 OA 
HETATM   32  C   UNL     1     -12.163  13.691  65.759  1.00  0.00    -0.503 A  
HETATM   33  C   UNL     1     -11.999  14.809  64.944  1.00  0.00    -0.359 A  
HETATM   34  C   UNL     1     -10.770  15.468  64.913  1.00  0.00    -0.415 A  
HETATM   35  C   UNL     1      -9.716  15.009  65.688  1.00  0.00    -0.344 A  
HETATM   36  C   UNL     1      -9.889  13.875  66.509  1.00  0.00    -0.296 A  
HETATM   37  C   UNL     1      -8.767  13.392  67.326  1.00  0.00    -0.218 C  
HETATM   38  C   UNL     1      -8.908  12.140  68.099  1.00  0.00    -0.187 A  
HETATM   39  O   UNL     1      -7.714  14.025  67.377  1.00  0.00    -0.176 OA 
BRANCH  16  40
HETATM   40  C   UNL     1      -5.776   8.559  72.210  1.00  0.00    -0.054 C  
HETATM   41  O   UNL     1      -5.413   9.494  72.928  1.00  0.00    -0.224 OA 
HETATM   42  C   UNL     1      -5.152   7.187  72.361  1.00  0.00    -0.036 C  
ENDBRANCH  16  40
ENDBRANCH  13  14
ENDBRANCH   4  13
TORSDOF 3
ENDMDL
MODEL       46
REMARK 921   NORMALIZED FREE ENERGY PREDICTED BY IDOCK:   -6.35 KCAL/MOL
REMARK 922        TOTAL FREE ENERGY PREDICTED BY IDOCK:   -8.35 KCAL/MOL
REMARK 923 INTER-LIGAND FREE ENERGY PREDICTED BY IDOCK:   -8.17 KCAL/MOL
REMARK 924 INTRA-LIGAND FREE ENERGY PREDICTED BY IDOCK:   -0.18 KCAL/MOL
REMARK 927      BINDING AFFINITY PREDICTED BY RF-SCORE:    0.00 PKD
ROOT
HETATM    1  C   UNL     1      -5.602   5.249  65.267  1.00  0.00    -0.014 C  
HETATM    2  C   UNL     1      -6.930   5.388  66.016  1.00  0.00    -0.066 C  
HETATM    3  O   UNL     1      -6.853   4.520  67.163  1.00  0.00    -0.053 OA 
HETATM    4  C   UNL     1      -8.065   4.362  67.889  1.00  0.00    -0.094 C  
HETATM    5  H1  UNL     1     -10.578   4.923  64.094  1.00  0.00     0.000 HD 
HETATM    6  C   UNL     1      -9.196   3.881  66.979  1.00  0.00    -0.194 C  
HETATM    7  C   UNL     1      -9.433   4.849  65.819  1.00  0.00    -0.164 C  
HETATM    8  H   UNL     1      -8.597   3.848  63.610  1.00  0.00     0.000 HD 
HETATM    9  H2  UNL     1     -11.290   4.018  65.332  1.00  0.00     0.000 HD 
HETATM   10  N   UNL     1     -10.420   4.277  64.868  1.00  0.00    -0.206 NA 
HETATM   11  C   UNL     1      -8.121   5.124  65.066  1.00  0.00    -0.117 C  
HETATM   12  O   UNL     1      -7.865   4.010  64.194  1.00  0.00    -0.082 OA 
ENDROOT
BRANCH   4  13
HETATM   13  O   UNL     1      -8.460   5.536  68.596  1.00  0.00    -0.103 OA 
BRANCH  13  14
HETATM   14  C   UNL     1      -9.861   5.886  68.610  1.00  0.00    -0.136 C  
HETATM   15  C   UNL     1     -10.474   5.080  69.771  1.00  0.00    -0.182 C  
HETATM   16  C   UNL     1      -9.930   5.578  71.126  1.00  0.00    -0.195 C  
HETATM   17  C   UNL     1     -10.481   6.979  71.368  1.00  0.00    -0.225 C  
HETATM   18  O   UNL     1      -8.497   5.630  71.167  1.00  0.00    -0.123 OA 
HETATM   19  H   UNL     1     -11.581  10.475  71.640  1.00  0.00     0.000 HD 
HETATM   20  O   UNL     1     -11.286   9.578  71.539  1.00  0.00    -0.372 OA 
HETATM   21  C   UNL     1     -10.916   9.190  70.273  1.00  0.00    -0.245 A  
HETATM   22  C   UNL     1     -10.480   7.863  70.123  1.00  0.00    -0.231 A  
HETATM   23  H   UNL     1      -8.162   5.936  72.002  1.00  0.00     0.000 HD 
HETATM   24  C   UNL     1     -10.165   7.368  68.827  1.00  0.00    -0.199 A  
HETATM   25  C   UNL     1     -10.266   8.253  67.730  1.00  0.00    -0.223 A  
HETATM   26  O   UNL     1     -10.040   7.813  66.454  1.00  0.00    -0.450 OA 
HETATM   27  C   UNL     1     -10.676   9.597  67.898  1.00  0.00    -0.302 A  
HETATM   28  C   UNL     1     -10.782  10.536  66.742  1.00  0.00    -0.188 C  
HETATM   29  H   UNL     1     -10.108   8.408  65.717  1.00  0.00     0.000 HD 
HETATM   30  C   UNL     1     -11.183  11.935  66.974  1.00  0.00    -0.379 A  
HETATM   31  O   UNL     1     -10.536  10.203  65.589  1.00  0.00    -0.182 OA 
HETATM   32  C   UNL     1     -11.214  12.838  65.904  1.00  0.00    -0.334 A  
HETATM   33  C   UNL     1     -11.567  14.170  66.109  1.00  0.00    -0.377 A  
HETATM   34  C   UNL     1     -11.902  14.607  67.391  1.00  0.00    -0.374 A  
HETATM   35  C   UNL     1     -11.881  13.720  68.456  1.00  0.00    -0.406 A  
HETATM   36  C   UNL     1     -11.520  12.373  68.241  1.00  0.00    -0.360 A  
HETATM   37  C   UNL     1     -11.497  11.438  69.373  1.00  0.00    -0.310 C  
HETATM   38  C   UNL     1     -11.011  10.056  69.175  1.00  0.00    -0.256 A  
HETATM   39  O   UNL     1     -11.885  11.793  70.485  1.00  0.00    -0.330 OA 
BRANCH  16  40
HETATM   40  C   UNL     1     -10.324   4.626  72.270  1.00  0.00    -0.185 C  
HETATM   41  O   UNL     1      -9.939   3.456  72.316  1.00  0.00    -0.152 OA 
HETATM   42  C   UNL     1     -11.230   5.180  73.350  1.00  0.00    -0.358 C  
ENDBRANCH  16  40
ENDBRANCH  13  14
ENDBRANCH   4  13
TORSDOF 3
ENDMDL
MODEL       47
REMARK 921   NORMALIZED FREE ENERGY PREDICTED BY IDOCK:   -6.34 KCAL/MOL
REMARK 922        TOTAL FREE ENERGY PREDICTED BY IDOCK:   -8.34 KCAL/MOL
REMARK 923 INTER-LIGAND FREE ENERGY PREDICTED BY IDOCK:   -7.57 KCAL/MOL
REMARK 924 INTRA-LIGAND FREE ENERGY PREDICTED BY IDOCK:   -0.77 KCAL/MOL
REMARK 927      BINDING AFFINITY PREDICTED BY RF-SCORE:    0.00 PKD
ROOT
HETATM    1  C   UNL     1     -11.755  15.022  67.163  1.00  0.00    -0.227 C  
HETATM    2  C   UNL     1     -11.499  13.625  66.592  1.00  0.00    -0.343 C  
HETATM    3  O   UNL     1     -10.110  13.579  66.213  1.00  0.00    -0.283 OA 
HETATM    4  C   UNL     1      -9.716  12.423  65.486  1.00  0.00    -0.136 C  
HETATM    5  H1  UNL     1     -13.870  12.027  63.585  1.00  0.00     0.000 HD 
HETATM    6  C   UNL     1     -10.576  12.237  64.236  1.00  0.00    -0.387 C  
HETATM    7  C   UNL     1     -12.060  12.121  64.587  1.00  0.00    -0.311 C  
HETATM    8  H   UNL     1     -13.327  14.244  63.906  1.00  0.00     0.000 HD 
HETATM    9  H2  UNL     1     -12.583  11.371  62.706  1.00  0.00     0.000 HD 
HETATM   10  N   UNL     1     -12.880  12.104  63.351  1.00  0.00    -0.777 NA 
HETATM   11  C   UNL     1     -12.504  13.306  65.460  1.00  0.00    -0.474 C  
HETATM   12  O   UNL     1     -12.710  14.440  64.601  1.00  0.00    -0.655 OA 
ENDROOT
BRANCH   4  13
HETATM   13  O   UNL     1      -9.712  11.232  66.270  1.00  0.00    -0.204 OA 
BRANCH  13  14
HETATM   14  C   UNL     1      -8.476  10.495  66.389  1.00  0.00    -0.143 C  
HETATM   15  C   UNL     1      -7.460  11.491  66.980  1.00  0.00    -0.151 C  
HETATM   16  C   UNL     1      -7.839  11.861  68.429  1.00  0.00    -0.141 C  
HETATM   17  C   UNL     1      -7.636  10.625  69.298  1.00  0.00    -0.138 C  
HETATM   18  O   UNL     1      -9.200  12.298  68.555  1.00  0.00    -0.311 OA 
HETATM   19  H   UNL     1      -7.452   7.480  71.191  1.00  0.00     0.000 HD 
HETATM   20  O   UNL     1      -7.517   8.278  70.679  1.00  0.00    -0.057 OA 
HETATM   21  C   UNL     1      -8.013   8.150  69.402  1.00  0.00    -0.114 A  
HETATM   22  C   UNL     1      -8.110   9.329  68.644  1.00  0.00    -0.105 A  
HETATM   23  H   UNL     1      -9.433  12.526  69.448  1.00  0.00     0.000 HD 
HETATM   24  C   UNL     1      -8.532   9.260  67.288  1.00  0.00    -0.125 A  
HETATM   25  C   UNL     1      -8.882   7.997  66.759  1.00  0.00    -0.140 A  
HETATM   26  O   UNL     1      -9.229   7.863  65.442  1.00  0.00    -0.394 OA 
HETATM   27  C   UNL     1      -8.810   6.821  67.542  1.00  0.00    -0.117 A  
HETATM   28  C   UNL     1      -9.180   5.484  66.988  1.00  0.00    -0.116 C  
HETATM   29  H   UNL     1      -9.464   7.014  65.087  1.00  0.00     0.000 HD 
HETATM   30  C   UNL     1      -9.119   4.295  67.855  1.00  0.00    -0.161 A  
HETATM   31  O   UNL     1      -9.551   5.323  65.832  1.00  0.00    -0.159 OA 
HETATM   32  C   UNL     1      -9.534   3.051  67.362  1.00  0.00    -0.155 A  
HETATM   33  C   UNL     1      -9.507   1.920  68.174  1.00  0.00    -0.215 A  
HETATM   34  C   UNL     1      -9.053   2.024  69.490  1.00  0.00    -0.168 A  
HETATM   35  C   UNL     1      -8.634   3.249  69.985  1.00  0.00    -0.111 A  
HETATM   36  C   UNL     1      -8.667   4.391  69.157  1.00  0.00    -0.116 A  
HETATM   37  C   UNL     1      -8.224   5.686  69.689  1.00  0.00    -0.107 C  
HETATM   38  C   UNL     1      -8.363   6.904  68.864  1.00  0.00    -0.121 A  
HETATM   39  O   UNL     1      -7.733   5.765  70.814  1.00  0.00    -0.089 OA 
BRANCH  16  40
HETATM   40  C   UNL     1      -6.996  13.041  68.943  1.00  0.00    -0.088 C  
HETATM   41  O   UNL     1      -6.362  12.987  70.000  1.00  0.00    -0.098 OA 
HETATM   42  C   UNL     1      -6.983  14.301  68.103  1.00  0.00    -0.130 C  
ENDBRANCH  16  40
ENDBRANCH  13  14
ENDBRANCH   4  13
TORSDOF 3
ENDMDL
MODEL       48
REMARK 921   NORMALIZED FREE ENERGY PREDICTED BY IDOCK:   -6.34 KCAL/MOL
REMARK 922        TOTAL FREE ENERGY PREDICTED BY IDOCK:   -8.34 KCAL/MOL
REMARK 923 INTER-LIGAND FREE ENERGY PREDICTED BY IDOCK:   -7.73 KCAL/MOL
REMARK 924 INTRA-LIGAND FREE ENERGY PREDICTED BY IDOCK:   -0.61 KCAL/MOL
REMARK 927      BINDING AFFINITY PREDICTED BY RF-SCORE:    0.00 PKD
ROOT
HETATM    1  C   UNL     1     -12.509  13.066  70.085  1.00  0.00    -0.166 C  
HETATM    2  C   UNL     1     -11.535  13.141  68.907  1.00  0.00    -0.298 C  
HETATM    3  O   UNL     1     -10.231  12.815  69.426  1.00  0.00     0.302 OA 
HETATM    4  C   UNL     1      -9.150  13.012  68.522  1.00  0.00    -0.053 C  
HETATM    5  H1  UNL     1     -11.323  16.483  66.456  1.00  0.00     0.000 HD 
HETATM    6  C   UNL     1      -9.129  14.446  67.991  1.00  0.00    -0.188 C  
HETATM    7  C   UNL     1     -10.438  14.804  67.286  1.00  0.00    -0.264 C  
HETATM    8  H   UNL     1     -11.824  16.429  68.707  1.00  0.00     0.000 HD 
HETATM    9  H2  UNL     1      -9.635  16.505  66.372  1.00  0.00     0.000 HD 
HETATM   10  N   UNL     1     -10.450  16.244  66.927  1.00  0.00    -0.309 NA 
HETATM   11  C   UNL     1     -11.641  14.511  68.197  1.00  0.00    -0.331 C  
HETATM   12  O   UNL     1     -11.758  15.588  69.142  1.00  0.00    -0.328 OA 
ENDROOT
BRANCH   4  13
HETATM   13  O   UNL     1      -9.136  12.081  67.442  1.00  0.00    -0.168 OA 
BRANCH  13  14
HETATM   14  C   UNL     1     -10.261  11.189  67.294  1.00  0.00    -0.193 C  
HETATM   15  C   UNL     1     -10.663  11.279  65.810  1.00  0.00    -0.284 C  
HETATM   16  C   UNL     1      -9.563  10.678  64.910  1.00  0.00    -0.269 C  
HETATM   17  C   UNL     1      -9.525   9.173  65.154  1.00  0.00    -0.097 C  
HETATM   18  O   UNL     1      -8.263  11.223  65.180  1.00  0.00    -0.368 OA 
HETATM   19  H   UNL     1      -9.303   5.632  66.111  1.00  0.00     0.000 HD 
HETATM   20  O   UNL     1      -9.359   6.555  65.895  1.00  0.00    -0.071 OA 
HETATM   21  C   UNL     1      -9.586   7.419  66.942  1.00  0.00    -0.187 A  
HETATM   22  C   UNL     1      -9.670   8.785  66.623  1.00  0.00    -0.309 A  
HETATM   23  H   UNL     1      -7.585  10.853  64.625  1.00  0.00     0.000 HD 
HETATM   24  C   UNL     1      -9.988   9.725  67.642  1.00  0.00    -0.217 A  
HETATM   25  C   UNL     1     -10.171   9.249  68.959  1.00  0.00    -0.206 A  
HETATM   26  O   UNL     1     -10.545  10.100  69.964  1.00  0.00    -0.262 OA 
HETATM   27  C   UNL     1     -10.053   7.874  69.273  1.00  0.00    -0.197 A  
HETATM   28  C   UNL     1     -10.244   7.367  70.665  1.00  0.00    -0.199 C  
HETATM   29  H   UNL     1     -10.668   9.780  70.849  1.00  0.00     0.000 HD 
HETATM   30  C   UNL     1     -10.078   5.930  70.945  1.00  0.00    -0.251 A  
HETATM   31  O   UNL     1     -10.523   8.098  71.606  1.00  0.00    -0.209 OA 
HETATM   32  C   UNL     1     -10.184   5.460  72.260  1.00  0.00    -0.244 A  
HETATM   33  C   UNL     1     -10.006   4.108  72.547  1.00  0.00    -0.222 A  
HETATM   34  C   UNL     1      -9.729   3.213  71.514  1.00  0.00    -0.226 A  
HETATM   35  C   UNL     1      -9.628   3.667  70.208  1.00  0.00    -0.246 A  
HETATM   36  C   UNL     1      -9.807   5.038  69.926  1.00  0.00    -0.296 A  
HETATM   37  C   UNL     1      -9.696   5.513  68.540  1.00  0.00    -0.134 C  
HETATM   38  C   UNL     1      -9.770   6.961  68.254  1.00  0.00    -0.132 A  
HETATM   39  O   UNL     1      -9.549   4.716  67.615  1.00  0.00    -0.144 OA 
BRANCH  16  40
HETATM   40  C   UNL     1      -9.822  10.990  63.426  1.00  0.00    -0.363 C  
HETATM   41  O   UNL     1     -10.380  12.026  63.057  1.00  0.00    -0.333 OA 
HETATM   42  C   UNL     1      -9.377   9.955  62.413  1.00  0.00    -0.270 C  
ENDBRANCH  16  40
ENDBRANCH  13  14
ENDBRANCH   4  13
TORSDOF 3
ENDMDL
MODEL       49
REMARK 921   NORMALIZED FREE ENERGY PREDICTED BY IDOCK:   -6.12 KCAL/MOL
REMARK 922        TOTAL FREE ENERGY PREDICTED BY IDOCK:   -8.08 KCAL/MOL
REMARK 923 INTER-LIGAND FREE ENERGY PREDICTED BY IDOCK:   -7.20 KCAL/MOL
REMARK 924 INTRA-LIGAND FREE ENERGY PREDICTED BY IDOCK:   -0.88 KCAL/MOL
REMARK 927      BINDING AFFINITY PREDICTED BY RF-SCORE:    0.00 PKD
ROOT
HETATM    1  C   UNL     1     -10.259  10.847  62.713  1.00  0.00     0.016 C  
HETATM    2  C   UNL     1     -10.250  11.665  64.007  1.00  0.00    -0.346 C  
HETATM    3  O   UNL     1     -10.503  10.742  65.084  1.00  0.00    -0.285 OA 
HETATM    4  C   UNL     1     -10.721  11.338  66.357  1.00  0.00    -0.267 C  
HETATM    5  H1  UNL     1     -12.572  15.075  64.451  1.00  0.00     0.000 HD 
HETATM    6  C   UNL     1     -11.858  12.358  66.302  1.00  0.00    -0.431 C  
HETATM    7  C   UNL     1     -11.575  13.460  65.280  1.00  0.00    -0.308 C  
HETATM    8  H   UNL     1     -13.073  13.195  63.214  1.00  0.00     0.000 HD 
HETATM    9  H2  UNL     1     -13.066  14.721  66.028  1.00  0.00     0.000 HD 
HETATM   10  N   UNL     1     -12.761  14.340  65.133  1.00  0.00    -0.632 NA 
HETATM   11  C   UNL     1     -11.236  12.852  63.908  1.00  0.00    -0.423 C  
HETATM   12  O   UNL     1     -12.468  12.466  63.275  1.00  0.00    -0.604 OA 
ENDROOT
BRANCH   4  13
HETATM   13  O   UNL     1      -9.549  11.927  66.916  1.00  0.00    -0.193 OA 
BRANCH  13  14
HETATM   14  C   UNL     1      -8.351  11.126  66.992  1.00  0.00    -0.144 C  
HETATM   15  C   UNL     1      -7.201  12.128  67.208  1.00  0.00    -0.144 C  
HETATM   16  C   UNL     1      -7.314  12.797  68.593  1.00  0.00    -0.099 C  
HETATM   17  C   UNL     1      -7.034  11.737  69.653  1.00  0.00     0.094 C  
HETATM   18  O   UNL     1      -8.611  13.362  68.834  1.00  0.00    -0.368 OA 
HETATM   19  H   UNL     1      -6.703   9.007  72.090  1.00  0.00     0.000 HD 
HETATM   20  O   UNL     1      -6.810   9.694  71.443  1.00  0.00    -0.320 OA 
HETATM   21  C   UNL     1      -7.517   9.368  70.310  1.00  0.00    -0.128 A  
HETATM   22  C   UNL     1      -7.676  10.385  69.353  1.00  0.00    -0.158 A  
HETATM   23  H   UNL     1      -8.681  13.775  69.688  1.00  0.00     0.000 HD 
HETATM   24  C   UNL     1      -8.321  10.093  68.119  1.00  0.00    -0.117 A  
HETATM   25  C   UNL     1      -8.818   8.786  67.915  1.00  0.00    -0.136 A  
HETATM   26  O   UNL     1      -9.386   8.433  66.721  1.00  0.00    -0.160 OA 
HETATM   27  C   UNL     1      -8.679   7.779  68.900  1.00  0.00    -0.135 A  
HETATM   28  C   UNL     1      -9.205   6.397  68.689  1.00  0.00    -0.125 C  
HETATM   29  H   UNL     1      -9.720   7.555  66.584  1.00  0.00     0.000 HD 
HETATM   30  C   UNL     1      -9.063   5.394  69.758  1.00  0.00    -0.157 A  
HETATM   31  O   UNL     1      -9.770   6.051  67.660  1.00  0.00    -0.111 OA 
HETATM   32  C   UNL     1      -9.617   4.119  69.595  1.00  0.00    -0.277 A  
HETATM   33  C   UNL     1      -9.515   3.165  70.605  1.00  0.00    -0.233 A  
HETATM   34  C   UNL     1      -8.845   3.480  71.788  1.00  0.00    -0.135 A  
HETATM   35  C   UNL     1      -8.286   4.737  71.957  1.00  0.00    -0.118 A  
HETATM   36  C   UNL     1      -8.397   5.699  70.930  1.00  0.00    -0.124 A  
HETATM   37  C   UNL     1      -7.805   7.030  71.116  1.00  0.00    -0.099 C  
HETATM   38  C   UNL     1      -8.016   8.076  70.093  1.00  0.00    -0.105 A  
HETATM   39  O   UNL     1      -7.131   7.281  72.114  1.00  0.00    -0.066 OA 
BRANCH  16  40
HETATM   40  C   UNL     1      -6.337  13.979  68.725  1.00  0.00    -0.090 C  
HETATM   41  O   UNL     1      -5.472  14.025  69.602  1.00  0.00    -0.091 OA 
HETATM   42  C   UNL     1      -6.486  15.114  67.733  1.00  0.00    -0.182 C  
ENDBRANCH  16  40
ENDBRANCH  13  14
ENDBRANCH   4  13
TORSDOF 3
ENDMDL
MODEL       50
REMARK 921   NORMALIZED FREE ENERGY PREDICTED BY IDOCK:   -6.10 KCAL/MOL
REMARK 922        TOTAL FREE ENERGY PREDICTED BY IDOCK:   -8.05 KCAL/MOL
REMARK 923 INTER-LIGAND FREE ENERGY PREDICTED BY IDOCK:   -7.16 KCAL/MOL
REMARK 924 INTRA-LIGAND FREE ENERGY PREDICTED BY IDOCK:   -0.90 KCAL/MOL
REMARK 927      BINDING AFFINITY PREDICTED BY RF-SCORE:    0.00 PKD
ROOT
HETATM    1  C   UNL     1      -9.679   3.793  71.113  1.00  0.00    -0.245 C  
HETATM    2  C   UNL     1      -9.384   4.703  69.918  1.00  0.00    -0.144 C  
HETATM    3  O   UNL     1     -10.555   5.517  69.716  1.00  0.00    -0.297 OA 
HETATM    4  C   UNL     1     -10.553   6.303  68.531  1.00  0.00    -0.262 C  
HETATM    5  H1  UNL     1      -8.034   3.188  66.298  1.00  0.00     0.000 HD 
HETATM    6  C   UNL     1     -10.333   5.434  67.292  1.00  0.00    -0.273 C  
HETATM    7  C   UNL     1      -9.019   4.658  67.376  1.00  0.00    -0.111 C  
HETATM    8  H   UNL     1      -9.457   2.166  67.798  1.00  0.00     0.000 HD 
HETATM    9  H2  UNL     1      -9.022   4.172  65.342  1.00  0.00     0.000 HD 
HETATM   10  N   UNL     1      -8.912   3.706  66.242  1.00  0.00    -0.135 NA 
HETATM   11  C   UNL     1      -8.939   3.869  68.694  1.00  0.00    -0.121 C  
HETATM   12  O   UNL     1      -9.730   2.678  68.550  1.00  0.00    -0.104 OA 
ENDROOT
BRANCH   4  13
HETATM   13  O   UNL     1      -9.612   7.373  68.561  1.00  0.00    -0.144 OA 
BRANCH  13  14
HETATM   14  C   UNL     1      -9.885   8.499  69.423  1.00  0.00    -0.185 C  
HETATM   15  C   UNL     1      -9.103   8.222  70.721  1.00  0.00    -0.168 C  
HETATM   16  C   UNL     1      -7.582   8.282  70.464  1.00  0.00    -0.076 C  
HETATM   17  C   UNL     1      -7.214   9.730  70.157  1.00  0.00    -0.146 C  
HETATM   18  O   UNL     1      -7.169   7.457  69.365  1.00  0.00    -0.078 OA 
HETATM   19  H   UNL     1      -6.539  13.178  69.079  1.00  0.00     0.000 HD 
HETATM   20  O   UNL     1      -6.738  12.285  69.337  1.00  0.00    -0.102 OA 
HETATM   21  C   UNL     1      -7.921  11.760  68.870  1.00  0.00     0.009 A  
HETATM   22  C   UNL     1      -8.216  10.440  69.250  1.00  0.00    -0.163 A  
HETATM   23  H   UNL     1      -6.233   7.494  69.208  1.00  0.00     0.000 HD 
HETATM   24  C   UNL     1      -9.461   9.863  68.876  1.00  0.00    -0.170 A  
HETATM   25  C   UNL     1     -10.348  10.634  68.092  1.00  0.00    -0.176 A  
HETATM   26  O   UNL     1     -11.586  10.154  67.761  1.00  0.00    -0.627 OA 
HETATM   27  C   UNL     1     -10.025  11.952  67.689  1.00  0.00    -0.197 A  
HETATM   28  C   UNL     1     -10.959  12.770  66.859  1.00  0.00    -0.260 C  
HETATM   29  H   UNL     1     -12.182  10.673  67.235  1.00  0.00     0.000 HD 
HETATM   30  C   UNL     1     -10.562  14.125  66.439  1.00  0.00    -0.280 A  
HETATM   31  O   UNL     1     -12.054  12.362  66.491  1.00  0.00    -0.599 OA 
HETATM   32  C   UNL     1     -11.402  14.869  65.600  1.00  0.00    -0.325 A  
HETATM   33  C   UNL     1     -11.032  16.142  65.172  1.00  0.00    -0.327 A  
HETATM   34  C   UNL     1      -9.817  16.685  65.590  1.00  0.00    -0.147 A  
HETATM   35  C   UNL     1      -8.982  15.960  66.425  1.00  0.00    -0.361 A  
HETATM   36  C   UNL     1      -9.362  14.670  66.852  1.00  0.00    -0.258 A  
HETATM   37  C   UNL     1      -8.471  13.906  67.734  1.00  0.00    -0.183 C  
HETATM   38  C   UNL     1      -8.811  12.513  68.092  1.00  0.00    -0.191 A  
HETATM   39  O   UNL     1      -7.446  14.418  68.183  1.00  0.00    -0.107 OA 
BRANCH  16  40
HETATM   40  C   UNL     1      -6.790   7.756  71.674  1.00  0.00    -0.058 C  
HETATM   41  O   UNL     1      -6.437   8.490  72.600  1.00  0.00    -0.091 OA 
HETATM   42  C   UNL     1      -6.436   6.284  71.682  1.00  0.00    -0.053 C  
ENDBRANCH  16  40
ENDBRANCH  13  14
ENDBRANCH   4  13
TORSDOF 3
ENDMDL
MODEL       51
REMARK 921   NORMALIZED FREE ENERGY PREDICTED BY IDOCK:   -5.96 KCAL/MOL
REMARK 922        TOTAL FREE ENERGY PREDICTED BY IDOCK:   -7.89 KCAL/MOL
REMARK 923 INTER-LIGAND FREE ENERGY PREDICTED BY IDOCK:   -7.81 KCAL/MOL
REMARK 924 INTRA-LIGAND FREE ENERGY PREDICTED BY IDOCK:   -0.08 KCAL/MOL
REMARK 927      BINDING AFFINITY PREDICTED BY RF-SCORE:    0.00 PKD
ROOT
HETATM    1  C   UNL     1     -13.938   7.562  71.990  1.00  0.00    -0.294 C  
HETATM    2  C   UNL     1     -12.659   7.742  71.169  1.00  0.00    -0.198 C  
HETATM    3  O   UNL     1     -12.312   6.445  70.649  1.00  0.00    -0.166 OA 
HETATM    4  C   UNL     1     -11.044   6.364  70.010  1.00  0.00    -0.379 C  
HETATM    5  H1  UNL     1      -9.303   9.614  72.738  1.00  0.00     0.000 HD 
HETATM    6  C   UNL     1      -9.927   6.840  70.939  1.00  0.00    -0.200 C  
HETATM    7  C   UNL     1     -10.158   8.278  71.405  1.00  0.00    -0.200 C  
HETATM    8  H   UNL     1     -10.850   8.336  73.874  1.00  0.00     0.000 HD 
HETATM    9  H2  UNL     1      -8.196   8.510  72.093  1.00  0.00     0.000 HD 
HETATM   10  N   UNL     1      -9.149   8.654  72.427  1.00  0.00    -0.360 NA 
HETATM   11  C   UNL     1     -11.561   8.431  72.014  1.00  0.00    -0.351 C  
HETATM   12  O   UNL     1     -11.524   7.914  73.355  1.00  0.00    -0.211 OA 
ENDROOT
BRANCH   4  13
HETATM   13  O   UNL     1     -10.989   7.060  68.767  1.00  0.00    -0.183 OA 
BRANCH  13  14
HETATM   14  C   UNL     1      -9.787   7.792  68.447  1.00  0.00    -0.168 C  
HETATM   15  C   UNL     1      -8.873   6.785  67.724  1.00  0.00    -0.118 C  
HETATM   16  C   UNL     1      -9.470   6.391  66.357  1.00  0.00    -0.133 C  
HETATM   17  C   UNL     1      -9.404   7.612  65.446  1.00  0.00     0.496 C  
HETATM   18  O   UNL     1     -10.834   5.955  66.449  1.00  0.00    -0.573 OA 
HETATM   19  H   UNL     1      -9.517  10.724  63.495  1.00  0.00     0.000 HD 
HETATM   20  O   UNL     1      -9.502   9.936  64.024  1.00  0.00    -0.277 OA 
HETATM   21  C   UNL     1      -9.795  10.085  65.359  1.00  0.00    -0.314 A  
HETATM   22  C   UNL     1      -9.773   8.919  66.143  1.00  0.00    -0.338 A  
HETATM   23  H   UNL     1     -11.201   5.712  65.607  1.00  0.00     0.000 HD 
HETATM   24  C   UNL     1      -9.981   9.013  67.547  1.00  0.00    -0.262 A  
HETATM   25  C   UNL     1     -10.247  10.285  68.102  1.00  0.00    -0.164 A  
HETATM   26  O   UNL     1     -10.388  10.441  69.454  1.00  0.00    -0.213 OA 
HETATM   27  C   UNL     1     -10.298  11.448  67.297  1.00  0.00    -0.230 A  
HETATM   28  C   UNL     1     -10.579  12.794  67.879  1.00  0.00    -0.221 C  
HETATM   29  H   UNL     1     -10.566  11.296  69.827  1.00  0.00     0.000 HD 
HETATM   30  C   UNL     1     -10.654  13.968  66.993  1.00  0.00    -0.279 A  
HETATM   31  O   UNL     1     -10.768  12.975  69.075  1.00  0.00    -0.201 OA 
HETATM   32  C   UNL     1     -10.989  15.221  67.523  1.00  0.00    -0.315 A  
HETATM   33  C   UNL     1     -11.088  16.338  66.697  1.00  0.00     0.104 A  
HETATM   34  C   UNL     1     -10.843  16.211  65.329  1.00  0.00    -0.349 A  
HETATM   35  C   UNL     1     -10.504  14.977  64.796  1.00  0.00    -0.266 A  
HETATM   36  C   UNL     1     -10.408  13.850  65.639  1.00  0.00    -0.337 A  
HETATM   37  C   UNL     1     -10.051  12.545  65.067  1.00  0.00    -0.236 C  
HETATM   38  C   UNL     1     -10.060  11.341  65.924  1.00  0.00    -0.291 A  
HETATM   39  O   UNL     1      -9.738  12.446  63.881  1.00  0.00    -0.187 OA 
BRANCH  16  40
HETATM   40  C   UNL     1      -8.715   5.201  65.739  1.00  0.00    -0.139 C  
HETATM   41  O   UNL     1      -7.490   5.082  65.823  1.00  0.00    -0.079 OA 
HETATM   42  C   UNL     1      -9.538   4.170  64.995  1.00  0.00    -0.180 C  
ENDBRANCH  16  40
ENDBRANCH  13  14
ENDBRANCH   4  13
TORSDOF 3
ENDMDL
MODEL       52
REMARK 921   NORMALIZED FREE ENERGY PREDICTED BY IDOCK:   -5.83 KCAL/MOL
REMARK 922        TOTAL FREE ENERGY PREDICTED BY IDOCK:   -7.74 KCAL/MOL
REMARK 923 INTER-LIGAND FREE ENERGY PREDICTED BY IDOCK:   -7.49 KCAL/MOL
REMARK 924 INTRA-LIGAND FREE ENERGY PREDICTED BY IDOCK:   -0.25 KCAL/MOL
REMARK 927      BINDING AFFINITY PREDICTED BY RF-SCORE:    0.00 PKD
ROOT
HETATM    1  C   UNL     1     -11.600  13.218  64.068  1.00  0.00    -0.458 C  
HETATM    2  C   UNL     1     -10.933  13.971  65.222  1.00  0.00    -0.334 C  
HETATM    3  O   UNL     1     -11.740  13.737  66.392  1.00  0.00    -0.343 OA 
HETATM    4  C   UNL     1     -11.390  14.507  67.535  1.00  0.00    -0.340 C  
HETATM    5  H1  UNL     1      -9.943  17.989  64.926  1.00  0.00     0.000 HD 
HETATM    6  C   UNL     1     -11.398  16.003  67.218  1.00  0.00     0.053 C  
HETATM    7  C   UNL     1     -10.436  16.340  66.079  1.00  0.00    -0.331 C  
HETATM    8  H   UNL     1     -11.725  16.913  63.936  1.00  0.00     0.000 HD 
HETATM    9  H2  UNL     1     -10.469  18.393  66.482  1.00  0.00     0.000 HD 
HETATM   10  N   UNL     1     -10.585  17.764  65.686  1.00  0.00    -0.579 NA 
HETATM   11  C   UNL     1     -10.718  15.457  64.852  1.00  0.00    -0.393 C  
HETATM   12  O   UNL     1     -11.857  16.000  64.163  1.00  0.00    -0.643 OA 
ENDROOT
BRANCH   4  13
HETATM   13  O   UNL     1     -10.145  14.128  68.116  1.00  0.00    -0.226 OA 
BRANCH  13  14
HETATM   14  C   UNL     1      -9.228  13.348  67.319  1.00  0.00    -0.222 C  
HETATM   15  C   UNL     1      -7.961  14.213  67.186  1.00  0.00    -0.100 C  
HETATM   16  C   UNL     1      -7.261  14.368  68.552  1.00  0.00    -0.119 C  
HETATM   17  C   UNL     1      -6.694  13.008  68.947  1.00  0.00    -0.096 C  
HETATM   18  O   UNL     1      -8.149  14.818  69.586  1.00  0.00    -0.396 OA 
HETATM   19  H   UNL     1      -5.710   9.608  69.934  1.00  0.00     0.000 HD 
HETATM   20  O   UNL     1      -5.994  10.476  69.672  1.00  0.00    -0.043 OA 
HETATM   21  C   UNL     1      -7.210  10.558  69.035  1.00  0.00    -0.090 A  
HETATM   22  C   UNL     1      -7.631  11.842  68.647  1.00  0.00    -0.125 A  
HETATM   23  H   UNL     1      -7.717  14.913  70.427  1.00  0.00     0.000 HD 
HETATM   24  C   UNL     1      -8.837  11.991  67.907  1.00  0.00    -0.174 A  
HETATM   25  C   UNL     1      -9.596  10.834  67.621  1.00  0.00    -0.158 A  
HETATM   26  O   UNL     1     -10.727  10.912  66.855  1.00  0.00    -0.253 OA 
HETATM   27  C   UNL     1      -9.177   9.551  68.045  1.00  0.00    -0.136 A  
HETATM   28  C   UNL     1      -9.976   8.325  67.746  1.00  0.00    -0.186 C  
HETATM   29  H   UNL     1     -11.237  10.135  66.663  1.00  0.00     0.000 HD 
HETATM   30  C   UNL     1      -9.513   7.016  68.237  1.00  0.00    -0.128 A  
HETATM   31  O   UNL     1     -11.024   8.353  67.113  1.00  0.00    -0.123 OA 
HETATM   32  C   UNL     1     -10.295   5.875  68.023  1.00  0.00    -0.257 A  
HETATM   33  C   UNL     1      -9.885   4.632  68.502  1.00  0.00    -0.181 A  
HETATM   34  C   UNL     1      -8.678   4.522  69.194  1.00  0.00    -0.113 A  
HETATM   35  C   UNL     1      -7.894   5.645  69.405  1.00  0.00    -0.088 A  
HETATM   36  C   UNL     1      -8.317   6.900  68.920  1.00  0.00    -0.121 A  
HETATM   37  C   UNL     1      -7.482   8.086  69.150  1.00  0.00    -0.095 C  
HETATM   38  C   UNL     1      -7.974   9.419  68.744  1.00  0.00    -0.092 A  
HETATM   39  O   UNL     1      -6.373   7.979  69.672  1.00  0.00    -0.033 OA 
BRANCH  16  40
HETATM   40  C   UNL     1      -6.150  15.432  68.494  1.00  0.00    -0.093 C  
HETATM   41  O   UNL     1      -5.411  15.561  67.516  1.00  0.00    -0.286 OA 
HETATM   42  C   UNL     1      -5.981  16.322  69.708  1.00  0.00    -0.189 C  
ENDBRANCH  16  40
ENDBRANCH  13  14
ENDBRANCH   4  13
TORSDOF 3
ENDMDL
MODEL       53
REMARK 921   NORMALIZED FREE ENERGY PREDICTED BY IDOCK:   -5.81 KCAL/MOL
REMARK 922        TOTAL FREE ENERGY PREDICTED BY IDOCK:   -7.72 KCAL/MOL
REMARK 923 INTER-LIGAND FREE ENERGY PREDICTED BY IDOCK:   -6.90 KCAL/MOL
REMARK 924 INTRA-LIGAND FREE ENERGY PREDICTED BY IDOCK:   -0.82 KCAL/MOL
REMARK 927      BINDING AFFINITY PREDICTED BY RF-SCORE:    0.00 PKD
ROOT
HETATM    1  C   UNL     1      -7.280   3.363  69.247  1.00  0.00    -0.049 C  
HETATM    2  C   UNL     1      -7.781   3.937  67.919  1.00  0.00    -0.067 C  
HETATM    3  O   UNL     1      -9.047   4.567  68.189  1.00  0.00    -0.112 OA 
HETATM    4  C   UNL     1      -9.768   5.001  67.043  1.00  0.00    -0.165 C  
HETATM    5  H1  UNL     1      -8.024   1.614  64.489  1.00  0.00     0.000 HD 
HETATM    6  C   UNL     1      -9.987   3.850  66.060  1.00  0.00    -0.077 C  
HETATM    7  C   UNL     1      -8.661   3.235  65.611  1.00  0.00    -0.124 C  
HETATM    8  H   UNL     1      -8.322   0.923  66.668  1.00  0.00     0.000 HD 
HETATM    9  H2  UNL     1      -9.526   2.219  64.000  1.00  0.00     0.000 HD 
HETATM   10  N   UNL     1      -8.909   2.024  64.789  1.00  0.00    -0.110 NA 
HETATM   11  C   UNL     1      -7.806   2.842  66.827  1.00  0.00    -0.076 C  
HETATM   12  O   UNL     1      -8.306   1.596  67.339  1.00  0.00    -0.069 OA 
ENDROOT
BRANCH   4  13
HETATM   13  O   UNL     1      -9.169   6.113  66.382  1.00  0.00    -0.148 OA 
BRANCH  13  14
HETATM   14  C   UNL     1      -8.434   7.067  67.179  1.00  0.00    -0.121 C  
HETATM   15  C   UNL     1      -7.187   7.422  66.347  1.00  0.00    -0.079 C  
HETATM   16  C   UNL     1      -7.584   8.196  65.073  1.00  0.00    -0.096 C  
HETATM   17  C   UNL     1      -8.102   9.567  65.498  1.00  0.00    -0.116 C  
HETATM   18  O   UNL     1      -8.603   7.532  64.312  1.00  0.00    -0.362 OA 
HETATM   19  H   UNL     1      -9.660  12.675  66.687  1.00  0.00     0.000 HD 
HETATM   20  O   UNL     1      -9.276  11.855  66.401  1.00  0.00    -0.210 OA 
HETATM   21  C   UNL     1      -9.566  10.743  67.156  1.00  0.00    -0.161 A  
HETATM   22  C   UNL     1      -8.998   9.529  66.733  1.00  0.00    -0.157 A  
HETATM   23  H   UNL     1      -8.848   8.009  63.527  1.00  0.00     0.000 HD 
HETATM   24  C   UNL     1      -9.184   8.356  67.516  1.00  0.00    -0.158 A  
HETATM   25  C   UNL     1      -9.976   8.448  68.683  1.00  0.00    -0.184 A  
HETATM   26  O   UNL     1     -10.131   7.367  69.508  1.00  0.00    -0.179 OA 
HETATM   27  C   UNL     1     -10.568   9.669  69.081  1.00  0.00    -0.237 A  
HETATM   28  C   UNL     1     -11.407   9.770  70.313  1.00  0.00    -0.272 C  
HETATM   29  H   UNL     1     -10.664   7.429  70.292  1.00  0.00     0.000 HD 
HETATM   30  C   UNL     1     -12.028  11.059  70.666  1.00  0.00    -0.464 A  
HETATM   31  O   UNL     1     -11.621   8.818  71.051  1.00  0.00    -0.277 OA 
HETATM   32  C   UNL     1     -12.874  11.142  71.779  1.00  0.00    -0.479 A  
HETATM   33  C   UNL     1     -13.490  12.346  72.115  1.00  0.00    -0.481 A  
HETATM   34  C   UNL     1     -13.254  13.482  71.340  1.00  0.00    -0.348 A  
HETATM   35  C   UNL     1     -12.413  13.412  70.241  1.00  0.00    -0.285 A  
HETATM   36  C   UNL     1     -11.796  12.188  69.906  1.00  0.00    -0.392 A  
HETATM   37  C   UNL     1     -10.907  12.120  68.738  1.00  0.00    -0.228 C  
HETATM   38  C   UNL     1     -10.349  10.818  68.317  1.00  0.00    -0.195 A  
HETATM   39  O   UNL     1     -10.620  13.138  68.111  1.00  0.00    -0.231 OA 
BRANCH  16  40
HETATM   40  C   UNL     1      -6.394   8.332  64.107  1.00  0.00    -0.067 C  
HETATM   41  O   UNL     1      -5.233   8.455  64.505  1.00  0.00    -0.036 OA 
HETATM   42  C   UNL     1      -6.702   8.325  62.625  1.00  0.00    -0.087 C  
ENDBRANCH  16  40
ENDBRANCH  13  14
ENDBRANCH   4  13
TORSDOF 3
ENDMDL
MODEL       54
REMARK 921   NORMALIZED FREE ENERGY PREDICTED BY IDOCK:   -5.80 KCAL/MOL
REMARK 922        TOTAL FREE ENERGY PREDICTED BY IDOCK:   -7.71 KCAL/MOL
REMARK 923 INTER-LIGAND FREE ENERGY PREDICTED BY IDOCK:   -6.80 KCAL/MOL
REMARK 924 INTRA-LIGAND FREE ENERGY PREDICTED BY IDOCK:   -0.91 KCAL/MOL
REMARK 927      BINDING AFFINITY PREDICTED BY RF-SCORE:    0.00 PKD
ROOT
HETATM    1  C   UNL     1     -11.641  16.910  72.702  1.00  0.00     0.306 C  
HETATM    2  C   UNL     1     -11.712  15.532  72.040  1.00  0.00    -0.455 C  
HETATM    3  O   UNL     1     -12.192  15.741  70.698  1.00  0.00    -0.392 OA 
HETATM    4  C   UNL     1     -12.507  14.558  69.974  1.00  0.00    -0.298 C  
HETATM    5  H1  UNL     1     -13.708  12.356  73.813  1.00  0.00     0.000 HD 
HETATM    6  C   UNL     1     -13.517  13.697  70.734  1.00  0.00     0.186 C  
HETATM    7  C   UNL     1     -12.995  13.309  72.118  1.00  0.00    -0.292 C  
HETATM    8  H   UNL     1     -14.239  14.595  73.956  1.00  0.00     0.000 HD 
HETATM    9  H2  UNL     1     -14.431  11.812  72.385  1.00  0.00     0.000 HD 
HETATM   10  N   UNL     1     -14.056  12.615  72.890  1.00  0.00     0.187 NA 
HETATM   11  C   UNL     1     -12.550  14.556  72.899  1.00  0.00    -0.316 C  
HETATM   12  O   UNL     1     -13.724  15.194  73.428  1.00  0.00    -0.354 OA 
ENDROOT
BRANCH   4  13
HETATM   13  O   UNL     1     -11.361  13.786  69.621  1.00  0.00    -0.243 OA 
BRANCH  13  14
HETATM   14  C   UNL     1     -11.425  12.975  68.428  1.00  0.00    -0.310 C  
HETATM   15  C   UNL     1     -11.192  13.948  67.257  1.00  0.00    -0.329 C  
HETATM   16  C   UNL     1      -9.750  14.497  67.283  1.00  0.00    -0.232 C  
HETATM   17  C   UNL     1      -8.803  13.347  66.954  1.00  0.00    -0.185 C  
HETATM   18  O   UNL     1      -9.386  15.046  68.558  1.00  0.00    -0.183 OA 
HETATM   19  H   UNL     1      -6.632  10.416  66.511  1.00  0.00     0.000 HD 
HETATM   20  O   UNL     1      -7.210  11.157  66.648  1.00  0.00    -0.137 OA 
HETATM   21  C   UNL     1      -8.324  10.933  67.423  1.00  0.00    -0.117 A  
HETATM   22  C   UNL     1      -9.179  12.030  67.626  1.00  0.00    -0.182 A  
HETATM   23  H   UNL     1      -8.497  15.384  68.574  1.00  0.00     0.000 HD 
HETATM   24  C   UNL     1     -10.394  11.849  68.344  1.00  0.00    -0.216 A  
HETATM   25  C   UNL     1     -10.679  10.567  68.866  1.00  0.00    -0.220 A  
HETATM   26  O   UNL     1     -11.864  10.322  69.506  1.00  0.00    -0.440 OA 
HETATM   27  C   UNL     1      -9.795   9.479  68.681  1.00  0.00    -0.173 A  
HETATM   28  C   UNL     1     -10.091   8.123  69.233  1.00  0.00    -0.202 C  
HETATM   29  H   UNL     1     -12.056   9.460  69.857  1.00  0.00     0.000 HD 
HETATM   30  C   UNL     1      -9.122   7.031  69.040  1.00  0.00    -0.135 A  
HETATM   31  O   UNL     1     -11.112   7.869  69.860  1.00  0.00    -0.222 OA 
HETATM   32  C   UNL     1      -9.361   5.777  69.617  1.00  0.00    -0.166 A  
HETATM   33  C   UNL     1      -8.444   4.739  69.466  1.00  0.00    -0.092 A  
HETATM   34  C   UNL     1      -7.280   4.947  68.725  1.00  0.00    -0.057 A  
HETATM   35  C   UNL     1      -7.037   6.182  68.145  1.00  0.00    -0.082 A  
HETATM   36  C   UNL     1      -7.970   7.229  68.304  1.00  0.00    -0.124 A  
HETATM   37  C   UNL     1      -7.705   8.537  67.689  1.00  0.00    -0.102 C  
HETATM   38  C   UNL     1      -8.621   9.667  67.947  1.00  0.00    -0.122 A  
HETATM   39  O   UNL     1      -6.731   8.696  66.955  1.00  0.00    -0.064 OA 
BRANCH  16  40
HETATM   40  C   UNL     1      -9.575  15.657  66.288  1.00  0.00    -0.308 C  
HETATM   41  O   UNL     1      -8.526  16.300  66.203  1.00  0.00    -0.325 OA 
HETATM   42  C   UNL     1     -10.761  16.001  65.411  1.00  0.00    -0.399 C  
ENDBRANCH  16  40
ENDBRANCH  13  14
ENDBRANCH   4  13
TORSDOF 3
ENDMDL
MODEL       55
REMARK 921   NORMALIZED FREE ENERGY PREDICTED BY IDOCK:   -5.79 KCAL/MOL
REMARK 922        TOTAL FREE ENERGY PREDICTED BY IDOCK:   -7.69 KCAL/MOL
REMARK 923 INTER-LIGAND FREE ENERGY PREDICTED BY IDOCK:   -6.83 KCAL/MOL
REMARK 924 INTRA-LIGAND FREE ENERGY PREDICTED BY IDOCK:   -0.86 KCAL/MOL
REMARK 927      BINDING AFFINITY PREDICTED BY RF-SCORE:    0.00 PKD
ROOT
HETATM    1  C   UNL     1     -10.789   6.696  68.514  1.00  0.00    -0.319 C  
HETATM    2  C   UNL     1      -9.750   7.567  67.803  1.00  0.00    -0.146 C  
HETATM    3  O   UNL     1     -10.436   8.753  67.358  1.00  0.00    -0.261 OA 
HETATM    4  C   UNL     1      -9.683   9.609  66.508  1.00  0.00    -0.212 C  
HETATM    5  H1  UNL     1      -7.345   6.065  64.774  1.00  0.00     0.000 HD 
HETATM    6  C   UNL     1      -9.158   8.852  65.287  1.00  0.00    -0.196 C  
HETATM    7  C   UNL     1      -8.286   7.664  65.695  1.00  0.00    -0.140 C  
HETATM    8  H   UNL     1      -9.509   5.448  65.275  1.00  0.00     0.000 HD 
HETATM    9  H2  UNL     1      -7.484   7.425  63.778  1.00  0.00     0.000 HD 
HETATM   10  N   UNL     1      -7.927   6.858  64.502  1.00  0.00    -0.123 NA 
HETATM   11  C   UNL     1      -9.031   6.764  66.695  1.00  0.00    -0.144 C  
HETATM   12  O   UNL     1      -9.951   5.942  65.956  1.00  0.00    -0.047 OA 
ENDROOT
BRANCH   4  13
HETATM   13  O   UNL     1      -8.616  10.277  67.176  1.00  0.00    -0.125 OA 
BRANCH  13  14
HETATM   14  C   UNL     1      -8.916  11.001  68.389  1.00  0.00    -0.158 C  
HETATM   15  C   UNL     1      -8.108  10.299  69.497  1.00  0.00    -0.170 C  
HETATM   16  C   UNL     1      -6.594  10.503  69.281  1.00  0.00    -0.060 C  
HETATM   17  C   UNL     1      -6.279  11.976  69.523  1.00  0.00    -0.117 C  
HETATM   18  O   UNL     1      -6.167  10.150  67.957  1.00  0.00    -0.055 OA 
HETATM   19  H   UNL     1      -5.735  15.601  69.775  1.00  0.00     0.000 HD 
HETATM   20  O   UNL     1      -5.900  14.670  69.690  1.00  0.00    -0.095 OA 
HETATM   21  C   UNL     1      -7.070  14.308  69.063  1.00  0.00    -0.116 A  
HETATM   22  C   UNL     1      -7.316  12.930  68.936  1.00  0.00    -0.014 A  
HETATM   23  H   UNL     1      -5.235  10.276  67.824  1.00  0.00     0.000 HD 
HETATM   24  C   UNL     1      -8.545  12.485  68.377  1.00  0.00    -0.123 A  
HETATM   25  C   UNL     1      -9.468  13.456  67.927  1.00  0.00    -0.216 A  
HETATM   26  O   UNL     1     -10.693  13.085  67.444  1.00  0.00    -0.242 OA 
HETATM   27  C   UNL     1      -9.195  14.841  68.032  1.00  0.00    -0.194 A  
HETATM   28  C   UNL     1     -10.166  15.871  67.557  1.00  0.00    -0.269 C  
HETATM   29  H   UNL     1     -11.313  13.738  67.142  1.00  0.00     0.000 HD 
HETATM   30  C   UNL     1      -9.820  17.299  67.659  1.00  0.00    -0.279 A  
HETATM   31  O   UNL     1     -11.251  15.585  67.065  1.00  0.00    -0.285 OA 
HETATM   32  C   UNL     1     -10.696  18.266  67.149  1.00  0.00    -0.334 A  
HETATM   33  C   UNL     1     -10.375  19.620  67.215  1.00  0.00    -0.577 A  
HETATM   34  C   UNL     1      -9.173  20.018  67.802  1.00  0.00    -0.435 A  
HETATM   35  C   UNL     1      -8.303  19.069  68.316  1.00  0.00    -0.369 A  
HETATM   36  C   UNL     1      -8.634  17.700  68.243  1.00  0.00    -0.268 A  
HETATM   37  C   UNL     1      -7.706  16.699  68.787  1.00  0.00    -0.233 C  
HETATM   38  C   UNL     1      -7.995  15.260  68.613  1.00  0.00    -0.149 A  
HETATM   39  O   UNL     1      -6.694  17.049  69.392  1.00  0.00    -0.236 OA 
BRANCH  16  40
HETATM   40  C   UNL     1      -5.769   9.602  70.216  1.00  0.00    -0.045 C  
HETATM   41  O   UNL     1      -5.432   8.458  69.901  1.00  0.00    -0.026 OA 
HETATM   42  C   UNL     1      -5.391  10.170  71.568  1.00  0.00    -0.050 C  
ENDBRANCH  16  40
ENDBRANCH  13  14
ENDBRANCH   4  13
TORSDOF 3
ENDMDL
MODEL       56
REMARK 921   NORMALIZED FREE ENERGY PREDICTED BY IDOCK:   -5.77 KCAL/MOL
REMARK 922        TOTAL FREE ENERGY PREDICTED BY IDOCK:   -7.67 KCAL/MOL
REMARK 923 INTER-LIGAND FREE ENERGY PREDICTED BY IDOCK:   -9.08 KCAL/MOL
REMARK 924 INTRA-LIGAND FREE ENERGY PREDICTED BY IDOCK:    1.41 KCAL/MOL
REMARK 927      BINDING AFFINITY PREDICTED BY RF-SCORE:    0.00 PKD
ROOT
HETATM    1  C   UNL     1     -12.562  14.913  71.163  1.00  0.00    -0.404 C  
HETATM    2  C   UNL     1     -12.050  13.474  71.060  1.00  0.00    -0.146 C  
HETATM    3  O   UNL     1     -12.083  13.119  69.665  1.00  0.00    -0.301 OA 
HETATM    4  C   UNL     1     -11.821  11.752  69.378  1.00  0.00    -0.334 C  
HETATM    5  H1  UNL     1     -13.650  10.417  73.366  1.00  0.00     0.000 HD 
HETATM    6  C   UNL     1     -12.774  10.834  70.145  1.00  0.00    -0.232 C  
HETATM    7  C   UNL     1     -12.672  11.054  71.655  1.00  0.00    -0.378 C  
HETATM    8  H   UNL     1     -14.750  12.268  72.542  1.00  0.00     0.000 HD 
HETATM    9  H2  UNL     1     -13.682   9.281  72.115  1.00  0.00     0.000 HD 
HETATM   10  N   UNL     1     -13.718  10.270  72.359  1.00  0.00    -0.056 NA 
HETATM   11  C   UNL     1     -12.852  12.542  71.999  1.00  0.00    -0.154 C  
HETATM   12  O   UNL     1     -14.258  12.840  71.965  1.00  0.00     0.044 OA 
ENDROOT
BRANCH   4  13
HETATM   13  O   UNL     1     -10.467  11.371  69.613  1.00  0.00    -0.018 OA 
BRANCH  13  14
HETATM   14  C   UNL     1      -9.444  11.920  68.754  1.00  0.00     0.009 C  
HETATM   15  C   UNL     1      -9.085  10.791  67.770  1.00  0.00    -0.151 C  
HETATM   16  C   UNL     1     -10.270  10.491  66.829  1.00  0.00    -0.234 C  
HETATM   17  C   UNL     1     -10.452  11.691  65.905  1.00  0.00    -0.300 C  
HETATM   18  O   UNL     1     -11.498  10.259  67.535  1.00  0.00    -0.527 OA 
HETATM   19  H   UNL     1     -11.001  14.789  64.006  1.00  0.00     0.000 HD 
HETATM   20  O   UNL     1     -10.858  14.006  64.525  1.00  0.00    -0.400 OA 
HETATM   21  C   UNL     1     -10.510  14.195  65.842  1.00  0.00    -0.306 A  
HETATM   22  C   UNL     1     -10.299  13.037  66.609  1.00  0.00    -0.263 A  
HETATM   23  H   UNL     1     -12.228  10.075  66.954  1.00  0.00     0.000 HD 
HETATM   24  C   UNL     1      -9.852  13.157  67.954  1.00  0.00    -0.231 A  
HETATM   25  C   UNL     1      -9.675  14.454  68.487  1.00  0.00    -0.225 A  
HETATM   26  O   UNL     1      -9.183  14.627  69.753  1.00  0.00    -0.378 OA 
HETATM   27  C   UNL     1      -9.922  15.613  67.714  1.00  0.00    -0.223 A  
HETATM   28  C   UNL     1      -9.737  16.985  68.274  1.00  0.00    -0.275 C  
HETATM   29  H   UNL     1      -9.063  15.498  70.111  1.00  0.00     0.000 HD 
HETATM   30  C   UNL     1     -10.038  18.159  67.437  1.00  0.00    -0.359 A  
HETATM   31  O   UNL     1      -9.353  17.189  69.418  1.00  0.00    -0.014 OA 
HETATM   32  C   UNL     1      -9.936  19.446  67.980  1.00  0.00    -0.488 A  
HETATM   33  C   UNL     1     -10.241  20.567  67.211  1.00  0.00    -0.336 A  
HETATM   34  C   UNL     1     -10.643  20.407  65.884  1.00  0.00    -0.070 A  
HETATM   35  C   UNL     1     -10.740  19.138  65.336  1.00  0.00     0.067 A  
HETATM   36  C   UNL     1     -10.433  18.007  66.122  1.00  0.00    -0.336 A  
HETATM   37  C   UNL     1     -10.541  16.665  65.535  1.00  0.00    -0.258 C  
HETATM   38  C   UNL     1     -10.330  15.475  66.384  1.00  0.00    -0.303 A  
HETATM   39  O   UNL     1     -10.799  16.524  64.341  1.00  0.00    -0.801 OA 
BRANCH  16  40
HETATM   40  C   UNL     1     -10.030   9.204  66.020  1.00  0.00    -0.223 C  
HETATM   41  O   UNL     1      -9.649   9.224  64.847  1.00  0.00    -0.117 OA 
HETATM   42  C   UNL     1     -10.297   7.887  66.719  1.00  0.00    -0.357 C  
ENDBRANCH  16  40
ENDBRANCH  13  14
ENDBRANCH   4  13
TORSDOF 3
ENDMDL
MODEL       57
REMARK 921   NORMALIZED FREE ENERGY PREDICTED BY IDOCK:   -5.68 KCAL/MOL
REMARK 922        TOTAL FREE ENERGY PREDICTED BY IDOCK:   -7.56 KCAL/MOL
REMARK 923 INTER-LIGAND FREE ENERGY PREDICTED BY IDOCK:   -6.64 KCAL/MOL
REMARK 924 INTRA-LIGAND FREE ENERGY PREDICTED BY IDOCK:   -0.92 KCAL/MOL
REMARK 927      BINDING AFFINITY PREDICTED BY RF-SCORE:    0.00 PKD
ROOT
HETATM    1  C   UNL     1      -7.906   8.179  74.356  1.00  0.00    -0.298 C  
HETATM    2  C   UNL     1      -8.649   7.867  73.055  1.00  0.00    -0.188 C  
HETATM    3  O   UNL     1      -9.387   9.054  72.703  1.00  0.00    -0.168 OA 
HETATM    4  C   UNL     1     -10.295   8.906  71.620  1.00  0.00    -0.345 C  
HETATM    5  H1  UNL     1     -11.049   4.504  72.664  1.00  0.00     0.000 HD 
HETATM    6  C   UNL     1     -11.283   7.767  71.878  1.00  0.00    -0.310 C  
HETATM    7  C   UNL     1     -10.561   6.439  72.106  1.00  0.00    -0.220 C  
HETATM    8  H   UNL     1     -10.683   5.746  74.572  1.00  0.00     0.000 HD 
HETATM    9  H2  UNL     1     -12.295   5.299  71.843  1.00  0.00     0.000 HD 
HETATM   10  N   UNL     1     -11.531   5.391  72.512  1.00  0.00    -0.236 NA 
HETATM   11  C   UNL     1      -9.497   6.582  73.206  1.00  0.00    -0.143 C  
HETATM   12  O   UNL     1     -10.163   6.535  74.479  1.00  0.00    -0.358 OA 
ENDROOT
BRANCH   4  13
HETATM   13  O   UNL     1      -9.653   8.731  70.359  1.00  0.00    -0.166 OA 
BRANCH  13  14
HETATM   14  C   UNL     1     -10.480   8.553  69.189  1.00  0.00    -0.205 C  
HETATM   15  C   UNL     1     -10.970   9.965  68.815  1.00  0.00    -0.217 C  
HETATM   16  C   UNL     1      -9.794  10.841  68.336  1.00  0.00    -0.169 C  
HETATM   17  C   UNL     1      -9.312  10.291  66.997  1.00  0.00    -0.177 C  
HETATM   18  O   UNL     1      -8.693  10.849  69.256  1.00  0.00    -0.348 OA 
HETATM   19  H   UNL     1      -8.029   8.640  63.975  1.00  0.00     0.000 HD 
HETATM   20  O   UNL     1      -8.360   9.038  64.772  1.00  0.00    -0.154 OA 
HETATM   21  C   UNL     1      -8.768   8.178  65.765  1.00  0.00    -0.154 A  
HETATM   22  C   UNL     1      -9.259   8.766  66.943  1.00  0.00    -0.195 A  
HETATM   23  H   UNL     1      -7.969  11.389  68.961  1.00  0.00     0.000 HD 
HETATM   24  C   UNL     1      -9.779   7.939  67.977  1.00  0.00    -0.182 A  
HETATM   25  C   UNL     1      -9.746   6.538  67.795  1.00  0.00    -0.122 A  
HETATM   26  O   UNL     1     -10.294   5.699  68.727  1.00  0.00    -0.188 OA 
HETATM   27  C   UNL     1      -9.220   5.957  66.616  1.00  0.00    -0.147 A  
HETATM   28  C   UNL     1      -9.182   4.477  66.420  1.00  0.00    -0.137 C  
HETATM   29  H   UNL     1     -10.272   4.758  68.604  1.00  0.00     0.000 HD 
HETATM   30  C   UNL     1      -8.595   3.922  65.188  1.00  0.00    -0.114 A  
HETATM   31  O   UNL     1      -9.609   3.685  67.250  1.00  0.00    -0.209 OA 
HETATM   32  C   UNL     1      -8.491   2.534  65.031  1.00  0.00    -0.097 A  
HETATM   33  C   UNL     1      -7.916   1.990  63.884  1.00  0.00    -0.069 A  
HETATM   34  C   UNL     1      -7.448   2.836  62.878  1.00  0.00    -0.053 A  
HETATM   35  C   UNL     1      -7.553   4.211  63.021  1.00  0.00    -0.057 A  
HETATM   36  C   UNL     1      -8.134   4.754  64.186  1.00  0.00    -0.111 A  
HETATM   37  C   UNL     1      -8.240   6.211  64.333  1.00  0.00    -0.063 C  
HETATM   38  C   UNL     1      -8.742   6.787  65.598  1.00  0.00    -0.086 A  
HETATM   39  O   UNL     1      -7.920   6.958  63.409  1.00  0.00    -0.122 OA 
BRANCH  16  40
HETATM   40  C   UNL     1     -10.212  12.316  68.207  1.00  0.00    -0.220 C  
HETATM   41  O   UNL     1      -9.429  13.245  68.424  1.00  0.00    -0.214 OA 
HETATM   42  C   UNL     1     -11.647  12.597  67.812  1.00  0.00    -0.403 C  
ENDBRANCH  16  40
ENDBRANCH  13  14
ENDBRANCH   4  13
TORSDOF 3
ENDMDL
MODEL       58
REMARK 921   NORMALIZED FREE ENERGY PREDICTED BY IDOCK:   -5.65 KCAL/MOL
REMARK 922        TOTAL FREE ENERGY PREDICTED BY IDOCK:   -7.53 KCAL/MOL
REMARK 923 INTER-LIGAND FREE ENERGY PREDICTED BY IDOCK:   -6.77 KCAL/MOL
REMARK 924 INTRA-LIGAND FREE ENERGY PREDICTED BY IDOCK:   -0.76 KCAL/MOL
REMARK 927      BINDING AFFINITY PREDICTED BY RF-SCORE:    0.00 PKD
ROOT
HETATM    1  C   UNL     1      -8.735   7.224  71.348  1.00  0.00    -0.126 C  
HETATM    2  C   UNL     1      -8.635   6.236  70.184  1.00  0.00    -0.134 C  
HETATM    3  O   UNL     1      -9.893   6.291  69.483  1.00  0.00    -0.150 OA 
HETATM    4  C   UNL     1     -10.071   5.305  68.475  1.00  0.00    -0.165 C  
HETATM    5  H1  UNL     1      -7.474   2.293  70.759  1.00  0.00     0.000 HD 
HETATM    6  C   UNL     1      -9.880   3.897  69.039  1.00  0.00    -0.013 C  
HETATM    7  C   UNL     1      -8.495   3.724  69.663  1.00  0.00    -0.060 C  
HETATM    8  H   UNL     1      -8.652   3.631  72.222  1.00  0.00     0.000 HD 
HETATM    9  H2  UNL     1      -8.633   1.638  69.716  1.00  0.00     0.000 HD 
HETATM   10  N   UNL     1      -8.399   2.408  70.343  1.00  0.00    -0.044 NA 
HETATM   11  C   UNL     1      -8.223   4.834  70.692  1.00  0.00    -0.092 C  
HETATM   12  O   UNL     1      -8.905   4.491  71.909  1.00  0.00    -0.115 OA 
ENDROOT
BRANCH   4  13
HETATM   13  O   UNL     1      -9.239   5.501  67.334  1.00  0.00    -0.111 OA 
BRANCH  13  14
HETATM   14  C   UNL     1      -8.398   6.675  67.296  1.00  0.00    -0.120 C  
HETATM   15  C   UNL     1      -7.045   6.192  66.739  1.00  0.00    -0.073 C  
HETATM   16  C   UNL     1      -7.186   5.760  65.265  1.00  0.00    -0.070 C  
HETATM   17  C   UNL     1      -7.461   7.008  64.433  1.00  0.00    -0.100 C  
HETATM   18  O   UNL     1      -8.251   4.821  65.058  1.00  0.00    -0.116 OA 
HETATM   19  H   UNL     1      -8.478  10.036  62.617  1.00  0.00     0.000 HD 
HETATM   20  O   UNL     1      -8.238   9.260  63.109  1.00  0.00    -0.156 OA 
HETATM   21  C   UNL     1      -8.795   9.127  64.360  1.00  0.00    -0.116 A  
HETATM   22  C   UNL     1      -8.440   7.979  65.087  1.00  0.00    -0.117 A  
HETATM   23  H   UNL     1      -8.337   4.555  64.150  1.00  0.00     0.000 HD 
HETATM   24  C   UNL     1      -8.909   7.820  66.421  1.00  0.00    -0.180 A  
HETATM   25  C   UNL     1      -9.756   8.816  66.956  1.00  0.00    -0.198 A  
HETATM   26  O   UNL     1     -10.181   8.747  68.256  1.00  0.00    -0.189 OA 
HETATM   27  C   UNL     1     -10.132   9.952  66.202  1.00  0.00    -0.315 A  
HETATM   28  C   UNL     1     -11.028  11.006  66.763  1.00  0.00    -0.217 C  
HETATM   29  H   UNL     1     -10.750   9.416  68.615  1.00  0.00     0.000 HD 
HETATM   30  C   UNL     1     -11.415  12.155  65.925  1.00  0.00    -0.418 A  
HETATM   31  O   UNL     1     -11.478  10.959  67.901  1.00  0.00    -0.412 OA 
HETATM   32  C   UNL     1     -12.313  13.108  66.422  1.00  0.00    -0.300 A  
HETATM   33  C   UNL     1     -12.710  14.187  65.635  1.00  0.00    -0.469 A  
HETATM   34  C   UNL     1     -12.200  14.325  64.343  1.00  0.00    -0.471 A  
HETATM   35  C   UNL     1     -11.306  13.391  63.845  1.00  0.00    -0.298 A  
HETATM   36  C   UNL     1     -10.911  12.299  64.647  1.00  0.00    -0.349 A  
HETATM   37  C   UNL     1      -9.965  11.311  64.113  1.00  0.00    -0.300 C  
HETATM   38  C   UNL     1      -9.636  10.107  64.904  1.00  0.00    -0.369 A  
HETATM   39  O   UNL     1      -9.438  11.480  63.014  1.00  0.00    -0.367 OA 
BRANCH  16  40
HETATM   40  C   UNL     1      -5.920   5.036  64.771  1.00  0.00    -0.021 C  
HETATM   41  O   UNL     1      -5.523   3.984  65.276  1.00  0.00    -0.009 OA 
HETATM   42  C   UNL     1      -5.155   5.680  63.634  1.00  0.00    -0.010 C  
ENDBRANCH  16  40
ENDBRANCH  13  14
ENDBRANCH   4  13
TORSDOF 3
ENDMDL
MODEL       59
REMARK 921   NORMALIZED FREE ENERGY PREDICTED BY IDOCK:   -5.64 KCAL/MOL
REMARK 922        TOTAL FREE ENERGY PREDICTED BY IDOCK:   -7.52 KCAL/MOL
REMARK 923 INTER-LIGAND FREE ENERGY PREDICTED BY IDOCK:   -6.63 KCAL/MOL
REMARK 924 INTRA-LIGAND FREE ENERGY PREDICTED BY IDOCK:   -0.89 KCAL/MOL
REMARK 927      BINDING AFFINITY PREDICTED BY RF-SCORE:    0.00 PKD
ROOT
HETATM    1  C   UNL     1     -10.816  13.896  64.888  1.00  0.00    -0.413 C  
HETATM    2  C   UNL     1     -10.360  13.115  66.123  1.00  0.00    -0.284 C  
HETATM    3  O   UNL     1     -11.107  11.883  66.134  1.00  0.00    -0.303 OA 
HETATM    4  C   UNL     1     -10.964  11.096  67.310  1.00  0.00    -0.296 C  
HETATM    5  H1  UNL     1     -10.337  14.826  69.903  1.00  0.00     0.000 HD 
HETATM    6  C   UNL     1     -11.318  11.902  68.560  1.00  0.00    -0.329 C  
HETATM    7  C   UNL     1     -10.446  13.151  68.690  1.00  0.00    -0.227 C  
HETATM    8  H   UNL     1     -11.803  15.267  68.178  1.00  0.00     0.000 HD 
HETATM    9  H2  UNL     1     -10.966  13.468  70.691  1.00  0.00     0.000 HD 
HETATM   10  N   UNL     1     -10.919  13.993  69.817  1.00  0.00    -0.056 NA 
HETATM   11  C   UNL     1     -10.495  13.982  67.397  1.00  0.00    -0.263 C  
HETATM   12  O   UNL     1     -11.719  14.735  67.396  1.00  0.00    -0.373 OA 
ENDROOT
BRANCH   4  13
HETATM   13  O   UNL     1      -9.672  10.508  67.446  1.00  0.00    -0.160 OA 
BRANCH  13  14
HETATM   14  C   UNL     1      -9.538   9.090  67.205  1.00  0.00    -0.167 C  
HETATM   15  C   UNL     1      -8.479   8.962  66.094  1.00  0.00    -0.133 C  
HETATM   16  C   UNL     1      -7.094   9.407  66.607  1.00  0.00    -0.085 C  
HETATM   17  C   UNL     1      -6.622   8.383  67.635  1.00  0.00    -0.058 C  
HETATM   18  O   UNL     1      -7.117  10.703  67.222  1.00  0.00    -0.085 OA 
HETATM   19  H   UNL     1      -5.787   6.047  70.346  1.00  0.00     0.000 HD 
HETATM   20  O   UNL     1      -6.033   6.655  69.659  1.00  0.00    -0.018 OA 
HETATM   21  C   UNL     1      -7.359   7.013  69.599  1.00  0.00    -0.086 A  
HETATM   22  C   UNL     1      -7.723   7.912  68.583  1.00  0.00    -0.113 A  
HETATM   23  H   UNL     1      -6.263  10.977  67.538  1.00  0.00     0.000 HD 
HETATM   24  C   UNL     1      -9.092   8.259  68.408  1.00  0.00    -0.136 A  
HETATM   25  C   UNL     1     -10.041   7.710  69.299  1.00  0.00    -0.190 A  
HETATM   26  O   UNL     1     -11.377   7.956  69.135  1.00  0.00    -0.372 OA 
HETATM   27  C   UNL     1      -9.657   6.830  70.339  1.00  0.00    -0.174 A  
HETATM   28  C   UNL     1     -10.657   6.249  71.284  1.00  0.00    -0.236 C  
HETATM   29  H   UNL     1     -12.015   7.587  69.734  1.00  0.00     0.000 HD 
HETATM   30  C   UNL     1     -10.202   5.363  72.370  1.00  0.00    -0.241 A  
HETATM   31  O   UNL     1     -11.856   6.485  71.212  1.00  0.00    -0.326 OA 
HETATM   32  C   UNL     1     -11.126   4.874  73.303  1.00  0.00    -0.410 A  
HETATM   33  C   UNL     1     -10.710   4.055  74.350  1.00  0.00    -0.198 A  
HETATM   34  C   UNL     1      -9.363   3.711  74.467  1.00  0.00    -0.122 A  
HETATM   35  C   UNL     1      -8.443   4.184  73.545  1.00  0.00    -0.093 A  
HETATM   36  C   UNL     1      -8.870   5.015  72.488  1.00  0.00    -0.126 A  
HETATM   37  C   UNL     1      -7.889   5.516  71.516  1.00  0.00    -0.111 C  
HETATM   38  C   UNL     1      -8.312   6.477  70.476  1.00  0.00    -0.133 A  
HETATM   39  O   UNL     1      -6.720   5.138  71.557  1.00  0.00    -0.046 OA 
BRANCH  16  40
HETATM   40  C   UNL     1      -6.084   9.534  65.453  1.00  0.00    -0.066 C  
HETATM   41  O   UNL     1      -5.963   8.666  64.585  1.00  0.00    -0.063 OA 
HETATM   42  C   UNL     1      -5.215  10.774  65.427  1.00  0.00    -0.142 C  
ENDBRANCH  16  40
ENDBRANCH  13  14
ENDBRANCH   4  13
TORSDOF 3
ENDMDL
MODEL       60
REMARK 921   NORMALIZED FREE ENERGY PREDICTED BY IDOCK:   -5.62 KCAL/MOL
REMARK 922        TOTAL FREE ENERGY PREDICTED BY IDOCK:   -7.49 KCAL/MOL
REMARK 923 INTER-LIGAND FREE ENERGY PREDICTED BY IDOCK:   -6.77 KCAL/MOL
REMARK 924 INTRA-LIGAND FREE ENERGY PREDICTED BY IDOCK:   -0.72 KCAL/MOL
REMARK 927      BINDING AFFINITY PREDICTED BY RF-SCORE:    0.00 PKD
ROOT
HETATM    1  C   UNL     1      -9.235  17.254  66.526  1.00  0.00    -0.282 C  
HETATM    2  C   UNL     1      -9.971  15.912  66.545  1.00  0.00    -0.272 C  
HETATM    3  O   UNL     1      -9.029  14.915  66.105  1.00  0.00    -0.232 OA 
HETATM    4  C   UNL     1      -9.574  13.623  65.873  1.00  0.00    -0.118 C  
HETATM    5  H1  UNL     1     -13.619  15.395  64.636  1.00  0.00     0.000 HD 
HETATM    6  C   UNL     1     -10.733  13.683  64.877  1.00  0.00    -0.400 C  
HETATM    7  C   UNL     1     -11.846  14.611  65.365  1.00  0.00    -0.304 C  
HETATM    8  H   UNL     1     -11.890  16.779  63.995  1.00  0.00     0.000 HD 
HETATM    9  H2  UNL     1     -13.242  13.877  63.992  1.00  0.00     0.000 HD 
HETATM   10  N   UNL     1     -12.877  14.775  64.310  1.00  0.00    -0.552 NA 
HETATM   11  C   UNL     1     -11.278  15.995  65.722  1.00  0.00     0.088 C  
HETATM   12  O   UNL     1     -11.088  16.728  64.500  1.00  0.00    -0.989 OA 
ENDROOT
BRANCH   4  13
HETATM   13  O   UNL     1      -9.977  12.954  67.066  1.00  0.00    -0.235 OA 
BRANCH  13  14
HETATM   14  C   UNL     1      -9.028  12.079  67.713  1.00  0.00    -0.176 C  
HETATM   15  C   UNL     1      -9.560  11.884  69.145  1.00  0.00     0.338 C  
HETATM   16  C   UNL     1     -10.882  11.089  69.132  1.00  0.00    -0.237 C  
HETATM   17  C   UNL     1     -10.569   9.661  68.697  1.00  0.00    -0.246 C  
HETATM   18  O   UNL     1     -11.856  11.643  68.236  1.00  0.00    -0.445 OA 
HETATM   19  H   UNL     1      -9.722   6.375  67.288  1.00  0.00     0.000 HD 
HETATM   20  O   UNL     1      -9.924   7.238  67.627  1.00  0.00    -0.145 OA 
HETATM   21  C   UNL     1      -9.263   8.297  67.051  1.00  0.00    -0.152 A  
HETATM   22  C   UNL     1      -9.562   9.575  67.553  1.00  0.00    -0.176 A  
HETATM   23  H   UNL     1     -12.671  11.153  68.228  1.00  0.00     0.000 HD 
HETATM   24  C   UNL     1      -8.852  10.706  67.063  1.00  0.00    -0.141 A  
HETATM   25  C   UNL     1      -7.888  10.505  66.049  1.00  0.00    -0.147 A  
HETATM   26  O   UNL     1      -7.129  11.547  65.590  1.00  0.00    -0.164 OA 
HETATM   27  C   UNL     1      -7.618   9.216  65.530  1.00  0.00    -0.090 A  
HETATM   28  C   UNL     1      -6.602   8.999  64.457  1.00  0.00    -0.074 C  
HETATM   29  H   UNL     1      -6.481  11.411  64.909  1.00  0.00     0.000 HD 
HETATM   30  C   UNL     1      -6.381   7.642  63.928  1.00  0.00    -0.053 A  
HETATM   31  O   UNL     1      -5.938   9.909  63.976  1.00  0.00    -0.104 OA 
HETATM   32  C   UNL     1      -5.482   7.444  62.873  1.00  0.00    -0.041 A  
HETATM   33  C   UNL     1      -5.278   6.172  62.343  1.00  0.00    -0.021 A  
HETATM   34  C   UNL     1      -5.970   5.083  62.874  1.00  0.00    -0.017 A  
HETATM   35  C   UNL     1      -6.857   5.267  63.923  1.00  0.00    -0.046 A  
HETATM   36  C   UNL     1      -7.060   6.559  64.453  1.00  0.00    -0.064 A  
HETATM   37  C   UNL     1      -8.003   6.749  65.563  1.00  0.00    -0.119 C  
HETATM   38  C   UNL     1      -8.304   8.113  66.045  1.00  0.00    -0.132 A  
HETATM   39  O   UNL     1      -8.540   5.781  66.098  1.00  0.00    -0.125 OA 
BRANCH  16  40
HETATM   40  C   UNL     1     -11.560  11.108  70.514  1.00  0.00    -0.187 C  
HETATM   41  O   UNL     1     -11.522  10.141  71.279  1.00  0.00    -0.353 OA 
HETATM   42  C   UNL     1     -12.302  12.369  70.904  1.00  0.00    -0.358 C  
ENDBRANCH  16  40
ENDBRANCH  13  14
ENDBRANCH   4  13
TORSDOF 3
ENDMDL
MODEL       61
REMARK 921   NORMALIZED FREE ENERGY PREDICTED BY IDOCK:   -5.61 KCAL/MOL
REMARK 922        TOTAL FREE ENERGY PREDICTED BY IDOCK:   -7.48 KCAL/MOL
REMARK 923 INTER-LIGAND FREE ENERGY PREDICTED BY IDOCK:   -6.60 KCAL/MOL
REMARK 924 INTRA-LIGAND FREE ENERGY PREDICTED BY IDOCK:   -0.88 KCAL/MOL
REMARK 927      BINDING AFFINITY PREDICTED BY RF-SCORE:    0.00 PKD
ROOT
HETATM    1  C   UNL     1     -10.884   5.773  71.971  1.00  0.00    -0.306 C  
HETATM    2  C   UNL     1     -10.004   7.013  71.796  1.00  0.00    -0.176 C  
HETATM    3  O   UNL     1      -9.002   6.676  70.818  1.00  0.00    -0.149 OA 
HETATM    4  C   UNL     1      -7.968   7.638  70.651  1.00  0.00    -0.099 C  
HETATM    5  H1  UNL     1      -8.270   8.936  75.039  1.00  0.00     0.000 HD 
HETATM    6  C   UNL     1      -7.279   7.944  71.981  1.00  0.00    -0.080 C  
HETATM    7  C   UNL     1      -8.272   8.459  73.023  1.00  0.00    -0.113 C  
HETATM    8  H   UNL     1      -8.709   6.683  74.821  1.00  0.00     0.000 HD 
HETATM    9  H2  UNL     1      -6.772   9.176  74.292  1.00  0.00     0.000 HD 
HETATM   10  N   UNL     1      -7.607   8.593  74.343  1.00  0.00    -0.413 NA 
HETATM   11  C   UNL     1      -9.460   7.493  73.162  1.00  0.00    -0.219 C  
HETATM   12  O   UNL     1      -9.043   6.389  73.983  1.00  0.00    -0.132 OA 
ENDROOT
BRANCH   4  13
HETATM   13  O   UNL     1      -8.408   8.843  70.028  1.00  0.00    -0.115 OA 
BRANCH  13  14
HETATM   14  C   UNL     1      -7.825   9.209  68.759  1.00  0.00    -0.096 C  
HETATM   15  C   UNL     1      -8.294   8.129  67.766  1.00  0.00    -0.128 C  
HETATM   16  C   UNL     1      -9.817   8.220  67.541  1.00  0.00    -0.177 C  
HETATM   17  C   UNL     1     -10.105   9.513  66.785  1.00  0.00    -0.312 C  
HETATM   18  O   UNL     1     -10.563   8.225  68.767  1.00  0.00    -0.313 OA 
HETATM   19  H   UNL     1     -10.677  12.823  65.295  1.00  0.00     0.000 HD 
HETATM   20  O   UNL     1     -10.511  11.981  65.703  1.00  0.00    -0.240 OA 
HETATM   21  C   UNL     1      -9.534  11.950  66.671  1.00  0.00    -0.209 A  
HETATM   22  C   UNL     1      -9.287  10.705  67.274  1.00  0.00    -0.166 A  
HETATM   23  H   UNL     1     -11.502   8.281  68.627  1.00  0.00     0.000 HD 
HETATM   24  C   UNL     1      -8.232  10.581  68.221  1.00  0.00    -0.117 A  
HETATM   25  C   UNL     1      -7.489  11.736  68.552  1.00  0.00    -0.110 A  
HETATM   26  O   UNL     1      -6.421  11.660  69.404  1.00  0.00    -0.091 OA 
HETATM   27  C   UNL     1      -7.769  12.991  67.960  1.00  0.00    -0.145 A  
HETATM   28  C   UNL     1      -6.987  14.215  68.308  1.00  0.00    -0.106 C  
HETATM   29  H   UNL     1      -5.922  12.436  69.626  1.00  0.00     0.000 HD 
HETATM   30  C   UNL     1      -7.339  15.504  67.687  1.00  0.00    -0.197 A  
HETATM   31  O   UNL     1      -6.060  14.207  69.107  1.00  0.00    -0.089 OA 
HETATM   32  C   UNL     1      -6.657  16.668  68.064  1.00  0.00    -0.146 A  
HETATM   33  C   UNL     1      -6.993  17.899  67.506  1.00  0.00    -0.204 A  
HETATM   34  C   UNL     1      -8.011  17.973  66.555  1.00  0.00    -0.294 A  
HETATM   35  C   UNL     1      -8.687  16.826  66.171  1.00  0.00    -0.299 A  
HETATM   36  C   UNL     1      -8.344  15.583  66.742  1.00  0.00    -0.301 A  
HETATM   37  C   UNL     1      -9.066  14.371  66.332  1.00  0.00    -0.160 C  
HETATM   38  C   UNL     1      -8.788  13.088  67.009  1.00  0.00    -0.213 A  
HETATM   39  O   UNL     1      -9.896  14.415  65.425  1.00  0.00    -0.325 OA 
BRANCH  16  40
HETATM   40  C   UNL     1     -10.342   6.999  66.764  1.00  0.00    -0.221 C  
HETATM   41  O   UNL     1     -11.490   6.572  66.904  1.00  0.00    -0.212 OA 
HETATM   42  C   UNL     1      -9.379   6.317  65.815  1.00  0.00     0.069 C  
ENDBRANCH  16  40
ENDBRANCH  13  14
ENDBRANCH   4  13
TORSDOF 3
ENDMDL
MODEL       62
REMARK 921   NORMALIZED FREE ENERGY PREDICTED BY IDOCK:   -5.59 KCAL/MOL
REMARK 922        TOTAL FREE ENERGY PREDICTED BY IDOCK:   -7.46 KCAL/MOL
REMARK 923 INTER-LIGAND FREE ENERGY PREDICTED BY IDOCK:   -6.56 KCAL/MOL
REMARK 924 INTRA-LIGAND FREE ENERGY PREDICTED BY IDOCK:   -0.90 KCAL/MOL
REMARK 927      BINDING AFFINITY PREDICTED BY RF-SCORE:    0.00 PKD
ROOT
HETATM    1  C   UNL     1     -11.122  16.766  68.621  1.00  0.00    -0.247 C  
HETATM    2  C   UNL     1     -10.082  15.894  67.913  1.00  0.00    -0.235 C  
HETATM    3  O   UNL     1      -9.517  15.025  68.914  1.00  0.00    -0.198 OA 
HETATM    4  C   UNL     1      -8.393  14.262  68.493  1.00  0.00    -0.156 C  
HETATM    5  H1  UNL     1      -7.080  17.541  65.568  1.00  0.00     0.000 HD 
HETATM    6  C   UNL     1      -7.289  15.164  67.939  1.00  0.00    -0.152 C  
HETATM    7  C   UNL     1      -7.787  16.004  66.763  1.00  0.00    -0.253 C  
HETATM    8  H   UNL     1      -8.052  18.462  67.446  1.00  0.00     0.000 HD 
HETATM    9  H2  UNL     1      -5.858  16.526  66.147  1.00  0.00     0.000 HD 
HETATM   10  N   UNL     1      -6.748  16.981  66.353  1.00  0.00    -0.226 NA 
HETATM   11  C   UNL     1      -9.063  16.771  67.148  1.00  0.00    -0.212 C  
HETATM   12  O   UNL     1      -8.677  17.923  67.915  1.00  0.00    -0.243 OA 
ENDROOT
BRANCH   4  13
HETATM   13  O   UNL     1      -8.720  13.240  67.554  1.00  0.00    -0.178 OA 
BRANCH  13  14
HETATM   14  C   UNL     1      -9.576  12.162  67.988  1.00  0.00    -0.204 C  
HETATM   15  C   UNL     1     -10.825  12.244  67.090  1.00  0.00    -0.282 C  
HETATM   16  C   UNL     1     -10.469  11.900  65.628  1.00  0.00    -0.262 C  
HETATM   17  C   UNL     1     -10.112  10.418  65.567  1.00  0.00    -0.352 C  
HETATM   18  O   UNL     1      -9.361  12.664  65.130  1.00  0.00    -0.425 OA 
HETATM   19  H   UNL     1      -8.929   6.940  65.640  1.00  0.00     0.000 HD 
HETATM   20  O   UNL     1      -9.215   7.846  65.647  1.00  0.00    -0.049 OA 
HETATM   21  C   UNL     1      -8.836   8.603  66.730  1.00  0.00    -0.134 A  
HETATM   22  C   UNL     1      -9.259   9.943  66.741  1.00  0.00    -0.176 A  
HETATM   23  H   UNL     1      -9.142  12.452  64.230  1.00  0.00     0.000 HD 
HETATM   24  C   UNL     1      -8.978  10.760  67.871  1.00  0.00    -0.139 A  
HETATM   25  C   UNL     1      -8.239  10.198  68.936  1.00  0.00    -0.124 A  
HETATM   26  O   UNL     1      -7.999  10.918  70.075  1.00  0.00    -0.311 OA 
HETATM   27  C   UNL     1      -7.792   8.856  68.900  1.00  0.00    -0.096 A  
HETATM   28  C   UNL     1      -7.010   8.259  70.023  1.00  0.00    -0.043 C  
HETATM   29  H   UNL     1      -7.503  10.540  70.791  1.00  0.00     0.000 HD 
HETATM   30  C   UNL     1      -6.539   6.866  69.923  1.00  0.00    -0.044 A  
HETATM   31  O   UNL     1      -6.722   8.881  71.038  1.00  0.00    -0.061 OA 
HETATM   32  C   UNL     1      -5.744   6.325  70.940  1.00  0.00    -0.022 A  
HETATM   33  C   UNL     1      -5.269   5.018  70.851  1.00  0.00    -0.004 A  
HETATM   34  C   UNL     1      -5.597   4.238  69.741  1.00  0.00    -0.016 A  
HETATM   35  C   UNL     1      -6.388   4.763  68.732  1.00  0.00    -0.036 A  
HETATM   36  C   UNL     1      -6.863   6.088  68.828  1.00  0.00    -0.066 A  
HETATM   37  C   UNL     1      -7.699   6.639  67.754  1.00  0.00    -0.107 C  
HETATM   38  C   UNL     1      -8.104   8.059  67.795  1.00  0.00    -0.128 A  
HETATM   39  O   UNL     1      -8.071   5.926  66.823  1.00  0.00    -0.101 OA 
BRANCH  16  40
HETATM   40  C   UNL     1     -11.634  12.226  64.677  1.00  0.00    -0.344 C  
HETATM   41  O   UNL     1     -11.774  11.662  63.590  1.00  0.00    -0.420 OA 
HETATM   42  C   UNL     1     -12.611  13.294  65.121  1.00  0.00    -0.512 C  
ENDBRANCH  16  40
ENDBRANCH  13  14
ENDBRANCH   4  13
TORSDOF 3
ENDMDL
MODEL       63
REMARK 921   NORMALIZED FREE ENERGY PREDICTED BY IDOCK:   -5.43 KCAL/MOL
REMARK 922        TOTAL FREE ENERGY PREDICTED BY IDOCK:   -7.27 KCAL/MOL
REMARK 923 INTER-LIGAND FREE ENERGY PREDICTED BY IDOCK:   -6.85 KCAL/MOL
REMARK 924 INTRA-LIGAND FREE ENERGY PREDICTED BY IDOCK:   -0.42 KCAL/MOL
REMARK 927      BINDING AFFINITY PREDICTED BY RF-SCORE:    0.00 PKD
ROOT
HETATM    1  C   UNL     1      -8.230   9.583  67.023  1.00  0.00    -0.113 C  
HETATM    2  C   UNL     1      -9.014  10.897  66.982  1.00  0.00    -0.143 C  
HETATM    3  O   UNL     1     -10.092  10.767  67.929  1.00  0.00    -0.166 OA 
HETATM    4  C   UNL     1     -11.052  11.816  67.906  1.00  0.00    -0.245 C  
HETATM    5  H1  UNL     1     -10.407  12.500  63.417  1.00  0.00     0.000 HD 
HETATM    6  C   UNL     1     -11.641  11.995  66.506  1.00  0.00    -0.384 C  
HETATM    7  C   UNL     1     -10.554  12.293  65.473  1.00  0.00    -0.269 C  
HETATM    8  H   UNL     1     -10.166  10.269  63.946  1.00  0.00     0.000 HD 
HETATM    9  H2  UNL     1     -11.919  12.947  64.030  1.00  0.00     0.000 HD 
HETATM   10  N   UNL     1     -11.133  12.301  64.107  1.00  0.00    -0.336 NA 
HETATM   11  C   UNL     1      -9.443  11.232  65.534  1.00  0.00    -0.229 C  
HETATM   12  O   UNL     1      -9.903  10.063  64.836  1.00  0.00    -0.317 OA 
ENDROOT
BRANCH   4  13
HETATM   13  O   UNL     1     -10.549  13.056  68.397  1.00  0.00    -0.239 OA 
BRANCH  13  14
HETATM   14  C   UNL     1     -11.155  14.277  67.919  1.00  0.00    -0.278 C  
HETATM   15  C   UNL     1     -12.473  14.415  68.705  1.00  0.00     0.101 C  
HETATM   16  C   UNL     1     -12.192  14.675  70.200  1.00  0.00    -0.335 C  
HETATM   17  C   UNL     1     -11.580  16.066  70.328  1.00  0.00    -0.335 C  
HETATM   18  O   UNL     1     -11.289  13.717  70.771  1.00  0.00    -0.441 OA 
HETATM   19  H   UNL     1      -9.787  19.271  70.445  1.00  0.00     0.000 HD 
HETATM   20  O   UNL     1     -10.230  18.433  70.391  1.00  0.00     1.068 OA 
HETATM   21  C   UNL     1      -9.899  17.629  69.325  1.00  0.00    -0.050 A  
HETATM   22  C   UNL     1     -10.555  16.389  69.245  1.00  0.00    -0.311 A  
HETATM   23  H   UNL     1     -11.116  13.877  71.692  1.00  0.00     0.000 HD 
HETATM   24  C   UNL     1     -10.326  15.545  68.123  1.00  0.00    -0.237 A  
HETATM   25  C   UNL     1      -9.407  15.973  67.139  1.00  0.00    -0.211 A  
HETATM   26  O   UNL     1      -9.201  15.232  66.007  1.00  0.00    -0.331 OA 
HETATM   27  C   UNL     1      -8.729  17.211  67.247  1.00  0.00    -0.213 A  
HETATM   28  C   UNL     1      -7.756  17.666  66.210  1.00  0.00    -0.289 C  
HETATM   29  H   UNL     1      -8.583  15.520  65.345  1.00  0.00     0.000 HD 
HETATM   30  C   UNL     1      -7.053  18.949  66.386  1.00  0.00    -0.253 A  
HETATM   31  O   UNL     1      -7.496  17.011  65.208  1.00  0.00     0.745 OA 
HETATM   32  C   UNL     1      -6.086  19.346  65.454  1.00  0.00    -0.261 A  
HETATM   33  C   UNL     1      -5.393  20.544  65.616  1.00  0.00    -0.213 A  
HETATM   34  C   UNL     1      -5.671  21.360  66.713  1.00  0.00    -0.383 A  
HETATM   35  C   UNL     1      -6.631  20.979  67.637  1.00  0.00    -0.416 A  
HETATM   36  C   UNL     1      -7.327  19.763  67.467  1.00  0.00    -0.298 A  
HETATM   37  C   UNL     1      -8.341  19.364  68.452  1.00  0.00    -0.350 C  
HETATM   38  C   UNL     1      -8.990  18.041  68.340  1.00  0.00    -0.286 A  
HETATM   39  O   UNL     1      -8.659  20.124  69.365  1.00  0.00     0.259 OA 
BRANCH  16  40
HETATM   40  C   UNL     1     -13.476  14.558  71.039  1.00  0.00    -0.289 C  
HETATM   41  O   UNL     1     -14.259  15.500  71.181  1.00  0.00    -0.528 OA 
HETATM   42  C   UNL     1     -13.744  13.227  71.712  1.00  0.00    -0.277 C  
ENDBRANCH  16  40
ENDBRANCH  13  14
ENDBRANCH   4  13
TORSDOF 3
ENDMDL
MODEL       64
REMARK 921   NORMALIZED FREE ENERGY PREDICTED BY IDOCK:   -5.42 KCAL/MOL
REMARK 922        TOTAL FREE ENERGY PREDICTED BY IDOCK:   -7.25 KCAL/MOL
REMARK 923 INTER-LIGAND FREE ENERGY PREDICTED BY IDOCK:   -7.30 KCAL/MOL
REMARK 924 INTRA-LIGAND FREE ENERGY PREDICTED BY IDOCK:    0.05 KCAL/MOL
REMARK 927      BINDING AFFINITY PREDICTED BY RF-SCORE:    0.00 PKD
ROOT
HETATM    1  C   UNL     1     -12.394  13.479  63.915  1.00  0.00    -0.397 C  
HETATM    2  C   UNL     1     -11.576  13.022  65.125  1.00  0.00    -0.324 C  
HETATM    3  O   UNL     1     -12.478  12.987  66.248  1.00  0.00    -0.426 OA 
HETATM    4  C   UNL     1     -11.867  12.765  67.512  1.00  0.00    -0.343 C  
HETATM    5  H1  UNL     1      -8.021  14.882  66.185  1.00  0.00     0.000 HD 
HETATM    6  C   UNL     1     -10.774  13.799  67.787  1.00  0.00    -0.254 C  
HETATM    7  C   UNL     1      -9.696  13.778  66.703  1.00  0.00    -0.289 C  
HETATM    8  H   UNL     1      -9.868  15.853  65.205  1.00  0.00     0.000 HD 
HETATM    9  H2  UNL     1      -8.339  14.886  67.846  1.00  0.00     0.000 HD 
HETATM   10  N   UNL     1      -8.741  14.896  66.909  1.00  0.00    -0.239 NA 
HETATM   11  C   UNL     1     -10.327  13.916  65.308  1.00  0.00    -0.378 C  
HETATM   12  O   UNL     1     -10.634  15.304  65.093  1.00  0.00    -0.380 OA 
ENDROOT
BRANCH   4  13
HETATM   13  O   UNL     1     -11.353  11.444  67.671  1.00  0.00    -0.272 OA 
BRANCH  13  14
HETATM   14  C   UNL     1     -10.368  11.214  68.701  1.00  0.00    -0.203 C  
HETATM   15  C   UNL     1     -11.016  11.708  70.008  1.00  0.00     0.244 C  
HETATM   16  C   UNL     1     -12.209  10.812  70.397  1.00  0.00    -0.349 C  
HETATM   17  C   UNL     1     -11.661   9.445  70.796  1.00  0.00    -0.364 C  
HETATM   18  O   UNL     1     -13.150  10.639  69.328  1.00  0.00    -0.425 OA 
HETATM   19  H   UNL     1     -10.232   6.109  71.369  1.00  0.00     0.000 HD 
HETATM   20  O   UNL     1     -10.585   6.973  71.193  1.00  0.00    -0.215 OA 
HETATM   21  C   UNL     1     -10.016   7.669  70.152  1.00  0.00    -0.186 A  
HETATM   22  C   UNL     1     -10.537   8.947  69.891  1.00  0.00    -0.229 A  
HETATM   23  H   UNL     1     -13.885  10.087  69.568  1.00  0.00     0.000 HD 
HETATM   24  C   UNL     1      -9.939   9.757  68.886  1.00  0.00    -0.183 A  
HETATM   25  C   UNL     1      -8.856   9.224  68.152  1.00  0.00    -0.129 A  
HETATM   26  O   UNL     1      -8.201   9.985  67.221  1.00  0.00    -0.116 OA 
HETATM   27  C   UNL     1      -8.360   7.923  68.403  1.00  0.00    -0.124 A  
HETATM   28  C   UNL     1      -7.216   7.355  67.629  1.00  0.00    -0.094 C  
HETATM   29  H   UNL     1      -7.473   9.626  66.728  1.00  0.00     0.000 HD 
HETATM   30  C   UNL     1      -6.759   5.983  67.908  1.00  0.00    -0.061 A  
HETATM   31  O   UNL     1      -6.636   7.977  66.749  1.00  0.00    -0.054 OA 
HETATM   32  C   UNL     1      -5.735   5.419  67.136  1.00  0.00    -0.017 A  
HETATM   33  C   UNL     1      -5.306   4.115  67.369  1.00  0.00    -0.012 A  
HETATM   34  C   UNL     1      -5.896   3.364  68.388  1.00  0.00    -0.023 A  
HETATM   35  C   UNL     1      -6.905   3.915  69.161  1.00  0.00    -0.046 A  
HETATM   36  C   UNL     1      -7.336   5.236  68.918  1.00  0.00    -0.070 A  
HETATM   37  C   UNL     1      -8.408   5.813  69.740  1.00  0.00    -0.112 C  
HETATM   38  C   UNL     1      -8.940   7.153  69.416  1.00  0.00    -0.136 A  
HETATM   39  O   UNL     1      -8.862   5.193  70.699  1.00  0.00    -0.123 OA 
BRANCH  16  40
HETATM   40  C   UNL     1     -13.025  11.433  71.545  1.00  0.00    -0.399 C  
HETATM   41  O   UNL     1     -13.536  10.751  72.436  1.00  0.00    -0.229 OA 
HETATM   42  C   UNL     1     -13.197  12.938  71.535  1.00  0.00    -0.346 C  
ENDBRANCH  16  40
ENDBRANCH  13  14
ENDBRANCH   4  13
TORSDOF 3
ENDMDL
MODEL       65
REMARK 921   NORMALIZED FREE ENERGY PREDICTED BY IDOCK:   -5.37 KCAL/MOL
REMARK 922        TOTAL FREE ENERGY PREDICTED BY IDOCK:   -7.20 KCAL/MOL
REMARK 923 INTER-LIGAND FREE ENERGY PREDICTED BY IDOCK:   -6.76 KCAL/MOL
REMARK 924 INTRA-LIGAND FREE ENERGY PREDICTED BY IDOCK:   -0.44 KCAL/MOL
REMARK 927      BINDING AFFINITY PREDICTED BY RF-SCORE:    0.00 PKD
ROOT
HETATM    1  C   UNL     1     -10.577   3.978  65.205  1.00  0.00    -0.016 C  
HETATM    2  C   UNL     1      -9.873   5.000  66.103  1.00  0.00    -0.198 C  
HETATM    3  O   UNL     1     -10.796   6.088  66.296  1.00  0.00    -0.100 OA 
HETATM    4  C   UNL     1     -10.261   7.231  66.952  1.00  0.00    -0.269 C  
HETATM    5  H1  UNL     1      -6.091   6.454  65.208  1.00  0.00     0.000 HD 
HETATM    6  C   UNL     1      -9.022   7.755  66.224  1.00  0.00    -0.209 C  
HETATM    7  C   UNL     1      -7.935   6.685  66.123  1.00  0.00    -0.110 C  
HETATM    8  H   UNL     1      -7.731   5.816  63.719  1.00  0.00     0.000 HD 
HETATM    9  H2  UNL     1      -6.445   8.058  65.606  1.00  0.00     0.000 HD 
HETATM   10  N   UNL     1      -6.817   7.168  65.276  1.00  0.00    -0.051 NA 
HETATM   11  C   UNL     1      -8.501   5.394  65.508  1.00  0.00    -0.141 C  
HETATM   12  O   UNL     1      -8.574   5.573  64.084  1.00  0.00    -0.103 OA 
ENDROOT
BRANCH   4  13
HETATM   13  O   UNL     1      -9.973   7.012  68.331  1.00  0.00    -0.146 OA 
BRANCH  13  14
HETATM   14  C   UNL     1     -10.228   8.086  69.261  1.00  0.00    -0.213 C  
HETATM   15  C   UNL     1      -9.546   7.661  70.576  1.00  0.00    -0.167 C  
HETATM   16  C   UNL     1      -8.012   7.638  70.411  1.00  0.00    -0.097 C  
HETATM   17  C   UNL     1      -7.536   9.076  70.240  1.00  0.00    -0.083 C  
HETATM   18  O   UNL     1      -7.584   6.871  69.276  1.00  0.00    -0.092 OA 
HETATM   19  H   UNL     1      -6.581  12.542  69.476  1.00  0.00     0.000 HD 
HETATM   20  O   UNL     1      -6.852  11.648  69.651  1.00  0.00    -0.099 OA 
HETATM   21  C   UNL     1      -8.033  11.239  69.078  1.00  0.00    -0.061 A  
HETATM   22  C   UNL     1      -8.433   9.917  69.336  1.00  0.00    -0.169 A  
HETATM   23  H   UNL     1      -6.639   6.857  69.175  1.00  0.00     0.000 HD 
HETATM   24  C   UNL     1      -9.687   9.455  68.848  1.00  0.00    -0.166 A  
HETATM   25  C   UNL     1     -10.474  10.340  68.078  1.00  0.00    -0.196 A  
HETATM   26  O   UNL     1     -11.717   9.970  67.641  1.00  0.00    -0.445 OA 
HETATM   27  C   UNL     1     -10.045  11.660  67.798  1.00  0.00    -0.200 A  
HETATM   28  C   UNL     1     -10.873  12.598  66.984  1.00  0.00    -0.253 C  
HETATM   29  H   UNL     1     -12.245  10.565  67.124  1.00  0.00     0.000 HD 
HETATM   30  C   UNL     1     -10.367  13.951  66.694  1.00  0.00    -0.278 A  
HETATM   31  O   UNL     1     -11.966  12.293  66.524  1.00  0.00    -0.596 OA 
HETATM   32  C   UNL     1     -11.105  14.810  65.870  1.00  0.00    -0.340 A  
HETATM   33  C   UNL     1     -10.631  16.084  65.565  1.00  0.00    -0.415 A  
HETATM   34  C   UNL     1      -9.412  16.512  66.093  1.00  0.00    -0.347 A  
HETATM   35  C   UNL     1      -8.677  15.672  66.914  1.00  0.00    -0.283 A  
HETATM   36  C   UNL     1      -9.162  14.383  67.216  1.00  0.00    -0.214 A  
HETATM   37  C   UNL     1      -8.377  13.496  68.085  1.00  0.00    -0.167 C  
HETATM   38  C   UNL     1      -8.825  12.107  68.313  1.00  0.00    -0.182 A  
HETATM   39  O   UNL     1      -7.352  13.903  68.630  1.00  0.00    -0.108 OA 
BRANCH  16  40
HETATM   40  C   UNL     1      -7.330   6.971  71.619  1.00  0.00    -0.083 C  
HETATM   41  O   UNL     1      -7.356   5.752  71.801  1.00  0.00    -0.088 OA 
HETATM   42  C   UNL     1      -6.625   7.880  72.604  1.00  0.00    -0.073 C  
ENDBRANCH  16  40
ENDBRANCH  13  14
ENDBRANCH   4  13
TORSDOF 3
ENDMDL
MODEL       66
REMARK 921   NORMALIZED FREE ENERGY PREDICTED BY IDOCK:   -5.35 KCAL/MOL
REMARK 922        TOTAL FREE ENERGY PREDICTED BY IDOCK:   -7.18 KCAL/MOL
REMARK 923 INTER-LIGAND FREE ENERGY PREDICTED BY IDOCK:   -6.34 KCAL/MOL
REMARK 924 INTRA-LIGAND FREE ENERGY PREDICTED BY IDOCK:   -0.83 KCAL/MOL
REMARK 927      BINDING AFFINITY PREDICTED BY RF-SCORE:    0.00 PKD
ROOT
HETATM    1  C   UNL     1      -5.373  10.605  66.291  1.00  0.00    -0.079 C  
HETATM    2  C   UNL     1      -6.902  10.551  66.359  1.00  0.00    -0.119 C  
HETATM    3  O   UNL     1      -7.247   9.301  66.985  1.00  0.00    -0.085 OA 
HETATM    4  C   UNL     1      -8.631   8.976  66.972  1.00  0.00    -0.116 C  
HETATM    5  H1  UNL     1      -9.260  11.187  63.003  1.00  0.00     0.000 HD 
HETATM    6  C   UNL     1      -9.187   8.987  65.548  1.00  0.00    -0.262 C  
HETATM    7  C   UNL     1      -8.990  10.347  64.878  1.00  0.00    -0.199 C  
HETATM    8  H   UNL     1      -7.167  10.222  63.078  1.00  0.00     0.000 HD 
HETATM    9  H2  UNL     1     -10.344   9.933  63.338  1.00  0.00     0.000 HD 
HETATM   10  N   UNL     1      -9.391  10.279  63.450  1.00  0.00    -0.285 NA 
HETATM   11  C   UNL     1      -7.518  10.782  64.959  1.00  0.00     0.180 C  
HETATM   12  O   UNL     1      -6.789  10.080  63.938  1.00  0.00    -0.123 OA 
ENDROOT
BRANCH   4  13
HETATM   13  O   UNL     1      -9.418   9.808  67.821  1.00  0.00    -0.133 OA 
BRANCH  13  14
HETATM   14  C   UNL     1      -9.176   9.758  69.243  1.00  0.00    -0.192 C  
HETATM   15  C   UNL     1      -9.852  11.016  69.819  1.00  0.00     0.447 C  
HETATM   16  C   UNL     1     -11.385  10.924  69.678  1.00  0.00    -0.292 C  
HETATM   17  C   UNL     1     -11.879   9.824  70.613  1.00  0.00    -0.360 C  
HETATM   18  O   UNL     1     -11.805  10.617  68.340  1.00  0.00    -0.700 OA 
HETATM   19  H   UNL     1     -12.874   6.915  72.626  1.00  0.00     0.000 HD 
HETATM   20  O   UNL     1     -12.593   7.649  72.091  1.00  0.00    -0.271 OA 
HETATM   21  C   UNL     1     -11.407   7.497  71.412  1.00  0.00    -0.258 A  
HETATM   22  C   UNL     1     -10.991   8.582  70.622  1.00  0.00    -0.268 A  
HETATM   23  H   UNL     1     -12.749  10.560  68.253  1.00  0.00     0.000 HD 
HETATM   24  C   UNL     1      -9.733   8.528  69.961  1.00  0.00    -0.172 A  
HETATM   25  C   UNL     1      -8.957   7.355  70.093  1.00  0.00    -0.148 A  
HETATM   26  O   UNL     1      -7.710   7.276  69.535  1.00  0.00    -0.107 OA 
HETATM   27  C   UNL     1      -9.401   6.256  70.867  1.00  0.00    -0.171 A  
HETATM   28  C   UNL     1      -8.584   5.014  71.008  1.00  0.00    -0.123 C  
HETATM   29  H   UNL     1      -7.188   6.488  69.624  1.00  0.00     0.000 HD 
HETATM   30  C   UNL     1      -9.107   3.886  71.799  1.00  0.00    -0.169 A  
HETATM   31  O   UNL     1      -7.488   4.875  70.481  1.00  0.00    -0.056 OA 
HETATM   32  C   UNL     1      -8.378   2.692  71.875  1.00  0.00    -0.067 A  
HETATM   33  C   UNL     1      -8.868   1.606  72.597  1.00  0.00    -0.071 A  
HETATM   34  C   UNL     1     -10.091   1.712  73.259  1.00  0.00    -0.156 A  
HETATM   35  C   UNL     1     -10.817   2.891  73.196  1.00  0.00    -0.236 A  
HETATM   36  C   UNL     1     -10.316   3.985  72.460  1.00  0.00    -0.223 A  
HETATM   37  C   UNL     1     -11.090   5.232  72.395  1.00  0.00    -0.197 C  
HETATM   38  C   UNL     1     -10.626   6.340  71.534  1.00  0.00    -0.282 A  
HETATM   39  O   UNL     1     -12.120   5.363  73.055  1.00  0.00    -0.132 OA 
BRANCH  16  40
HETATM   40  C   UNL     1     -12.059  12.268  70.005  1.00  0.00    -0.273 C  
HETATM   41  O   UNL     1     -11.946  13.257  69.276  1.00  0.00    -0.312 OA 
HETATM   42  C   UNL     1     -12.869  12.344  71.282  1.00  0.00    -0.337 C  
ENDBRANCH  16  40
ENDBRANCH  13  14
ENDBRANCH   4  13
TORSDOF 3
ENDMDL
MODEL       67
REMARK 921   NORMALIZED FREE ENERGY PREDICTED BY IDOCK:   -5.32 KCAL/MOL
REMARK 922        TOTAL FREE ENERGY PREDICTED BY IDOCK:   -7.14 KCAL/MOL
REMARK 923 INTER-LIGAND FREE ENERGY PREDICTED BY IDOCK:   -6.42 KCAL/MOL
REMARK 924 INTRA-LIGAND FREE ENERGY PREDICTED BY IDOCK:   -0.72 KCAL/MOL
REMARK 927      BINDING AFFINITY PREDICTED BY RF-SCORE:    0.00 PKD
ROOT
HETATM    1  C   UNL     1     -11.204  11.422  63.217  1.00  0.00    -0.152 C  
HETATM    2  C   UNL     1     -10.586  11.854  64.549  1.00  0.00    -0.311 C  
HETATM    3  O   UNL     1     -10.287  10.649  65.279  1.00  0.00    -0.290 OA 
HETATM    4  C   UNL     1      -9.876  10.840  66.627  1.00  0.00    -0.200 C  
HETATM    5  H1  UNL     1     -12.443  14.620  67.023  1.00  0.00     0.000 HD 
HETATM    6  C   UNL     1     -10.910  11.650  67.410  1.00  0.00    -0.298 C  
HETATM    7  C   UNL     1     -11.158  13.015  66.768  1.00  0.00    -0.286 C  
HETATM    8  H   UNL     1     -13.458  13.086  65.633  1.00  0.00     0.000 HD 
HETATM    9  H2  UNL     1     -12.122  13.784  68.458  1.00  0.00     0.000 HD 
HETATM   10  N   UNL     1     -12.278  13.709  67.452  1.00  0.00    -0.314 NA 
HETATM   11  C   UNL     1     -11.509  12.858  65.279  1.00  0.00    -0.313 C  
HETATM   12  O   UNL     1     -12.890  12.470  65.185  1.00  0.00    -0.685 OA 
ENDROOT
BRANCH   4  13
HETATM   13  O   UNL     1      -8.585  11.431  66.749  1.00  0.00    -0.155 OA 
BRANCH  13  14
HETATM   14  C   UNL     1      -7.456  10.563  66.987  1.00  0.00    -0.100 C  
HETATM   15  C   UNL     1      -6.439  11.417  67.768  1.00  0.00    -0.065 C  
HETATM   16  C   UNL     1      -6.979  11.756  69.173  1.00  0.00    -0.091 C  
HETATM   17  C   UNL     1      -7.021  10.465  69.985  1.00  0.00    -0.159 C  
HETATM   18  O   UNL     1      -8.295  12.327  69.143  1.00  0.00    -0.317 OA 
HETATM   19  H   UNL     1      -7.413   7.232  71.688  1.00  0.00     0.000 HD 
HETATM   20  O   UNL     1      -7.327   8.055  71.221  1.00  0.00    -0.060 OA 
HETATM   21  C   UNL     1      -7.650   8.042  69.885  1.00  0.00    -0.087 A  
HETATM   22  C   UNL     1      -7.524   9.259  69.194  1.00  0.00    -0.072 A  
HETATM   23  H   UNL     1      -8.626  12.536  70.009  1.00  0.00     0.000 HD 
HETATM   24  C   UNL     1      -7.757   9.299  67.792  1.00  0.00    -0.088 A  
HETATM   25  C   UNL     1      -8.152   8.107  67.144  1.00  0.00    -0.116 A  
HETATM   26  O   UNL     1      -8.324   8.073  65.787  1.00  0.00    -0.123 OA 
HETATM   27  C   UNL     1      -8.306   6.894  67.856  1.00  0.00    -0.121 A  
HETATM   28  C   UNL     1      -8.725   5.632  67.176  1.00  0.00    -0.108 C  
HETATM   29  H   UNL     1      -8.589   7.272  65.352  1.00  0.00     0.000 HD 
HETATM   30  C   UNL     1      -8.902   4.403  67.969  1.00  0.00    -0.125 A  
HETATM   31  O   UNL     1      -8.945   5.566  65.973  1.00  0.00    -0.144 OA 
HETATM   32  C   UNL     1      -9.364   3.235  67.349  1.00  0.00    -0.242 A  
HETATM   33  C   UNL     1      -9.562   2.070  68.086  1.00  0.00    -0.123 A  
HETATM   34  C   UNL     1      -9.288   2.063  69.455  1.00  0.00    -0.166 A  
HETATM   35  C   UNL     1      -8.825   3.211  70.076  1.00  0.00    -0.151 A  
HETATM   36  C   UNL     1      -8.629   4.388  69.323  1.00  0.00    -0.107 A  
HETATM   37  C   UNL     1      -8.140   5.603  69.988  1.00  0.00    -0.106 C  
HETATM   38  C   UNL     1      -8.042   6.867  69.229  1.00  0.00    -0.120 A  
HETATM   39  O   UNL     1      -7.805   5.576  71.172  1.00  0.00    -0.103 OA 
BRANCH  16  40
HETATM   40  C   UNL     1      -6.104  12.814  69.868  1.00  0.00    -0.122 C  
HETATM   41  O   UNL     1      -5.701  12.680  71.026  1.00  0.00    -0.312 OA 
HETATM   42  C   UNL     1      -5.761  14.058  69.075  1.00  0.00    -0.088 C  
ENDBRANCH  16  40
ENDBRANCH  13  14
ENDBRANCH   4  13
TORSDOF 3
ENDMDL
MODEL       68
REMARK 921   NORMALIZED FREE ENERGY PREDICTED BY IDOCK:   -5.31 KCAL/MOL
REMARK 922        TOTAL FREE ENERGY PREDICTED BY IDOCK:   -7.13 KCAL/MOL
REMARK 923 INTER-LIGAND FREE ENERGY PREDICTED BY IDOCK:   -6.35 KCAL/MOL
REMARK 924 INTRA-LIGAND FREE ENERGY PREDICTED BY IDOCK:   -0.78 KCAL/MOL
REMARK 927      BINDING AFFINITY PREDICTED BY RF-SCORE:    0.00 PKD
ROOT
HETATM    1  C   UNL     1      -6.216  14.348  71.169  1.00  0.00     0.039 C  
HETATM    2  C   UNL     1      -7.091  14.856  70.021  1.00  0.00    -0.045 C  
HETATM    3  O   UNL     1      -7.071  13.839  69.001  1.00  0.00    -0.110 OA 
HETATM    4  C   UNL     1      -7.676  14.202  67.767  1.00  0.00    -0.168 C  
HETATM    5  H1  UNL     1      -6.520  18.604  68.333  1.00  0.00     0.000 HD 
HETATM    6  C   UNL     1      -7.055  15.480  67.203  1.00  0.00    -0.171 C  
HETATM    7  C   UNL     1      -7.184  16.647  68.182  1.00  0.00    -0.157 C  
HETATM    8  H   UNL     1      -4.913  17.215  69.229  1.00  0.00     0.000 HD 
HETATM    9  H2  UNL     1      -6.722  18.086  66.736  1.00  0.00     0.000 HD 
HETATM   10  N   UNL     1      -6.434  17.825  67.679  1.00  0.00    -0.175 NA 
HETATM   11  C   UNL     1      -6.630  16.260  69.563  1.00  0.00    -0.202 C  
HETATM   12  O   UNL     1      -5.196  16.354  69.510  1.00  0.00    -0.122 OA 
ENDROOT
BRANCH   4  13
HETATM   13  O   UNL     1      -9.094  14.330  67.845  1.00  0.00    -0.177 OA 
BRANCH  13  14
HETATM   14  C   UNL     1      -9.888  13.124  67.881  1.00  0.00    -0.231 C  
HETATM   15  C   UNL     1     -11.199  13.475  67.152  1.00  0.00    -0.324 C  
HETATM   16  C   UNL     1     -10.938  13.729  65.653  1.00  0.00    -0.288 C  
HETATM   17  C   UNL     1     -10.546  12.402  65.012  1.00  0.00    -0.330 C  
HETATM   18  O   UNL     1      -9.890  14.682  65.424  1.00  0.00    -0.437 OA 
HETATM   19  H   UNL     1      -9.265   9.222  63.688  1.00  0.00     0.000 HD 
HETATM   20  O   UNL     1      -9.575  10.041  64.056  1.00  0.00    -0.285 OA 
HETATM   21  C   UNL     1      -9.141  10.351  65.323  1.00  0.00    -0.193 A  
HETATM   22  C   UNL     1      -9.600  11.563  65.867  1.00  0.00    -0.254 A  
HETATM   23  H   UNL     1      -9.729  14.838  64.500  1.00  0.00     0.000 HD 
HETATM   24  C   UNL     1      -9.261  11.904  67.206  1.00  0.00    -0.179 A  
HETATM   25  C   UNL     1      -8.434  11.021  67.934  1.00  0.00    -0.128 A  
HETATM   26  O   UNL     1      -8.133  11.267  69.246  1.00  0.00    -0.362 OA 
HETATM   27  C   UNL     1      -7.953   9.818  67.365  1.00  0.00    -0.102 A  
HETATM   28  C   UNL     1      -7.077   8.881  68.130  1.00  0.00    -0.078 C  
HETATM   29  H   UNL     1      -7.578  10.672  69.736  1.00  0.00     0.000 HD 
HETATM   30  C   UNL     1      -6.577   7.657  67.481  1.00  0.00    -0.063 A  
HETATM   31  O   UNL     1      -6.736   9.087  69.288  1.00  0.00    -0.048 OA 
HETATM   32  C   UNL     1      -5.697   6.813  68.169  1.00  0.00    -0.017 A  
HETATM   33  C   UNL     1      -5.194   5.664  67.563  1.00  0.00    -0.004 A  
HETATM   34  C   UNL     1      -5.578   5.346  66.259  1.00  0.00    -0.017 A  
HETATM   35  C   UNL     1      -6.453   6.172  65.572  1.00  0.00    -0.043 A  
HETATM   36  C   UNL     1      -6.956   7.335  66.192  1.00  0.00    -0.065 A  
HETATM   37  C   UNL     1      -7.882   8.207  65.457  1.00  0.00    -0.104 C  
HETATM   38  C   UNL     1      -8.321   9.483  66.059  1.00  0.00    -0.123 A  
HETATM   39  O   UNL     1      -8.299   7.882  64.346  1.00  0.00    -0.100 OA 
BRANCH  16  40
HETATM   40  C   UNL     1     -12.176  14.329  64.964  1.00  0.00    -0.433 C  
HETATM   41  O   UNL     1     -13.275  13.769  64.977  1.00  0.00    -0.733 OA 
HETATM   42  C   UNL     1     -11.994  15.647  64.240  1.00  0.00    -0.121 C  
ENDBRANCH  16  40
ENDBRANCH  13  14
ENDBRANCH   4  13
TORSDOF 3
ENDMDL
MODEL       69
REMARK 921   NORMALIZED FREE ENERGY PREDICTED BY IDOCK:   -5.25 KCAL/MOL
REMARK 922        TOTAL FREE ENERGY PREDICTED BY IDOCK:   -7.05 KCAL/MOL
REMARK 923 INTER-LIGAND FREE ENERGY PREDICTED BY IDOCK:   -6.16 KCAL/MOL
REMARK 924 INTRA-LIGAND FREE ENERGY PREDICTED BY IDOCK:   -0.89 KCAL/MOL
REMARK 927      BINDING AFFINITY PREDICTED BY RF-SCORE:    0.00 PKD
ROOT
HETATM    1  C   UNL     1      -9.817   4.239  71.027  1.00  0.00    -0.251 C  
HETATM    2  C   UNL     1      -9.399   5.486  70.243  1.00  0.00    -0.154 C  
HETATM    3  O   UNL     1      -8.037   5.274  69.822  1.00  0.00    -0.084 OA 
HETATM    4  C   UNL     1      -7.400   6.402  69.236  1.00  0.00    -0.092 C  
HETATM    5  H1  UNL     1      -9.852   9.303  71.806  1.00  0.00     0.000 HD 
HETATM    6  C   UNL     1      -7.447   7.611  70.171  1.00  0.00    -0.084 C  
HETATM    7  C   UNL     1      -8.884   7.985  70.533  1.00  0.00    -0.137 C  
HETATM    8  H   UNL     1      -9.404   7.362  72.967  1.00  0.00     0.000 HD 
HETATM    9  H2  UNL     1      -8.348   9.866  71.275  1.00  0.00     0.000 HD 
HETATM   10  N   UNL     1      -8.892   9.053  71.564  1.00  0.00    -0.336 NA 
HETATM   11  C   UNL     1      -9.641   6.764  71.080  1.00  0.00    -0.173 C  
HETATM   12  O   UNL     1      -9.255   6.578  72.453  1.00  0.00    -0.138 OA 
ENDROOT
BRANCH   4  13
HETATM   13  O   UNL     1      -7.918   6.745  67.953  1.00  0.00    -0.111 OA 
BRANCH  13  14
HETATM   14  C   UNL     1      -7.171   7.675  67.140  1.00  0.00    -0.090 C  
HETATM   15  C   UNL     1      -6.490   6.818  66.056  1.00  0.00    -0.050 C  
HETATM   16  C   UNL     1      -7.540   6.214  65.100  1.00  0.00    -0.090 C  
HETATM   17  C   UNL     1      -8.148   7.354  64.289  1.00  0.00    -0.055 C  
HETATM   18  O   UNL     1      -8.592   5.525  65.790  1.00  0.00    -0.134 OA 
HETATM   19  H   UNL     1      -9.773  10.231  62.679  1.00  0.00     0.000 HD 
HETATM   20  O   UNL     1      -9.357   9.502  63.125  1.00  0.00    -0.145 OA 
HETATM   21  C   UNL     1      -9.044   9.688  64.451  1.00  0.00    -0.229 A  
HETATM   22  C   UNL     1      -8.429   8.610  65.109  1.00  0.00    -0.197 A  
HETATM   23  H   UNL     1      -9.239   5.154  65.201  1.00  0.00     0.000 HD 
HETATM   24  C   UNL     1      -7.999   8.763  66.457  1.00  0.00    -0.103 A  
HETATM   25  C   UNL     1      -8.247   9.995  67.103  1.00  0.00    -0.117 A  
HETATM   26  O   UNL     1      -7.796  10.220  68.375  1.00  0.00    -0.097 OA 
HETATM   27  C   UNL     1      -8.897  11.063  66.439  1.00  0.00    -0.182 A  
HETATM   28  C   UNL     1      -9.162  12.366  67.118  1.00  0.00    -0.199 C  
HETATM   29  H   UNL     1      -7.962  11.048  68.809  1.00  0.00     0.000 HD 
HETATM   30  C   UNL     1      -9.870  13.434  66.392  1.00  0.00    -0.299 A  
HETATM   31  O   UNL     1      -8.827  12.593  68.274  1.00  0.00    -0.189 OA 
HETATM   32  C   UNL     1     -10.186  14.631  67.048  1.00  0.00    -0.261 A  
HETATM   33  C   UNL     1     -10.877  15.643  66.385  1.00  0.00    -0.252 A  
HETATM   34  C   UNL     1     -11.250  15.466  65.052  1.00  0.00    -0.393 A  
HETATM   35  C   UNL     1     -10.937  14.289  64.392  1.00  0.00    -0.204 A  
HETATM   36  C   UNL     1     -10.239  13.267  65.071  1.00  0.00    -0.313 A  
HETATM   37  C   UNL     1      -9.912  12.020  64.367  1.00  0.00    -0.228 C  
HETATM   38  C   UNL     1      -9.283  10.905  65.105  1.00  0.00    -0.240 A  
HETATM   39  O   UNL     1     -10.152  11.899  63.167  1.00  0.00    -0.425 OA 
BRANCH  16  40
HETATM   40  C   UNL     1      -6.912   5.155  64.177  1.00  0.00    -0.049 C  
HETATM   41  O   UNL     1      -7.032   3.945  64.384  1.00  0.00    -0.044 OA 
HETATM   42  C   UNL     1      -6.113   5.656  62.991  1.00  0.00    -0.018 C  
ENDBRANCH  16  40
ENDBRANCH  13  14
ENDBRANCH   4  13
TORSDOF 3
ENDMDL
MODEL       70
REMARK 921   NORMALIZED FREE ENERGY PREDICTED BY IDOCK:   -5.12 KCAL/MOL
REMARK 922        TOTAL FREE ENERGY PREDICTED BY IDOCK:   -6.91 KCAL/MOL
REMARK 923 INTER-LIGAND FREE ENERGY PREDICTED BY IDOCK:   -6.46 KCAL/MOL
REMARK 924 INTRA-LIGAND FREE ENERGY PREDICTED BY IDOCK:   -0.45 KCAL/MOL
REMARK 927      BINDING AFFINITY PREDICTED BY RF-SCORE:    0.00 PKD
ROOT
HETATM    1  C   UNL     1      -8.024   5.975  72.117  1.00  0.00    -0.106 C  
HETATM    2  C   UNL     1      -8.199   5.447  70.691  1.00  0.00    -0.114 C  
HETATM    3  O   UNL     1      -9.617   5.366  70.448  1.00  0.00    -0.159 OA 
HETATM    4  C   UNL     1      -9.991   4.718  69.239  1.00  0.00    -0.184 C  
HETATM    5  H1  UNL     1      -6.313   1.984  69.398  1.00  0.00     0.000 HD 
HETATM    6  C   UNL     1      -9.394   3.313  69.158  1.00  0.00    -0.233 C  
HETATM    7  C   UNL     1      -7.869   3.344  69.253  1.00  0.00    -0.050 C  
HETATM    8  H   UNL     1      -7.077   2.449  71.523  1.00  0.00     0.000 HD 
HETATM    9  H2  UNL     1      -7.653   1.383  68.560  1.00  0.00     0.000 HD 
HETATM   10  N   UNL     1      -7.331   1.963  69.335  1.00  0.00    -0.043 NA 
HETATM   11  C   UNL     1      -7.419   4.125  70.499  1.00  0.00    -0.045 C  
HETATM   12  O   UNL     1      -7.556   3.261  71.640  1.00  0.00    -0.050 OA 
ENDROOT
BRANCH   4  13
HETATM   13  O   UNL     1      -9.666   5.466  68.069  1.00  0.00    -0.125 OA 
BRANCH  13  14
HETATM   14  C   UNL     1      -8.778   6.596  68.205  1.00  0.00    -0.118 C  
HETATM   15  C   UNL     1      -7.681   6.385  67.145  1.00  0.00    -0.100 C  
HETATM   16  C   UNL     1      -8.266   6.513  65.723  1.00  0.00    -0.135 C  
HETATM   17  C   UNL     1      -8.662   7.970  65.507  1.00  0.00    -0.134 C  
HETATM   18  O   UNL     1      -9.420   5.685  65.518  1.00  0.00    -0.354 OA 
HETATM   19  H   UNL     1      -9.900  11.422  65.265  1.00  0.00     0.000 HD 
HETATM   20  O   UNL     1      -9.595  10.527  65.356  1.00  0.00    -0.202 OA 
HETATM   21  C   UNL     1      -9.785   9.934  66.583  1.00  0.00    -0.198 A  
HETATM   22  C   UNL     1      -9.334   8.610  66.718  1.00  0.00    -0.229 A  
HETATM   23  H   UNL     1      -9.780   5.764  64.642  1.00  0.00     0.000 HD 
HETATM   24  C   UNL     1      -9.419   7.966  67.984  1.00  0.00    -0.159 A  
HETATM   25  C   UNL     1      -9.997   8.676  69.060  1.00  0.00    -0.192 A  
HETATM   26  O   UNL     1     -10.042   8.129  70.313  1.00  0.00    -0.189 OA 
HETATM   27  C   UNL     1     -10.476   9.998  68.902  1.00  0.00    -0.229 A  
HETATM   28  C   UNL     1     -11.089  10.752  70.036  1.00  0.00    -0.255 C  
HETATM   29  H   UNL     1     -10.431   8.606  71.037  1.00  0.00     0.000 HD 
HETATM   30  C   UNL     1     -11.601  12.115  69.812  1.00  0.00    -0.334 A  
HETATM   31  O   UNL     1     -11.202  10.283  71.162  1.00  0.00    -0.277 OA 
HETATM   32  C   UNL     1     -12.242  12.798  70.853  1.00  0.00    -0.284 A  
HETATM   33  C   UNL     1     -12.755  14.078  70.653  1.00  0.00    -0.373 A  
HETATM   34  C   UNL     1     -12.621  14.689  69.406  1.00  0.00     0.022 A  
HETATM   35  C   UNL     1     -11.983  14.024  68.371  1.00  0.00    -0.378 A  
HETATM   36  C   UNL     1     -11.468  12.727  68.581  1.00  0.00    -0.341 A  
HETATM   37  C   UNL     1     -10.795  12.026  67.479  1.00  0.00    -0.241 C  
HETATM   38  C   UNL     1     -10.356  10.627  67.660  1.00  0.00    -0.246 A  
HETATM   39  O   UNL     1     -10.588  12.596  66.409  1.00  0.00    -0.247 OA 
BRANCH  16  40
HETATM   40  C   UNL     1      -7.255   6.053  64.658  1.00  0.00    -0.063 C  
HETATM   41  O   UNL     1      -7.026   4.862  64.437  1.00  0.00    -0.048 OA 
HETATM   42  C   UNL     1      -6.523   7.132  63.887  1.00  0.00    -0.044 C  
ENDBRANCH  16  40
ENDBRANCH  13  14
ENDBRANCH   4  13
TORSDOF 3
ENDMDL
MODEL       71
REMARK 921   NORMALIZED FREE ENERGY PREDICTED BY IDOCK:   -5.04 KCAL/MOL
REMARK 922        TOTAL FREE ENERGY PREDICTED BY IDOCK:   -6.81 KCAL/MOL
REMARK 923 INTER-LIGAND FREE ENERGY PREDICTED BY IDOCK:   -6.07 KCAL/MOL
REMARK 924 INTRA-LIGAND FREE ENERGY PREDICTED BY IDOCK:   -0.74 KCAL/MOL
REMARK 927      BINDING AFFINITY PREDICTED BY RF-SCORE:    0.00 PKD
ROOT
HETATM    1  C   UNL     1      -6.605   5.730  70.989  1.00  0.00    -0.045 C  
HETATM    2  C   UNL     1      -7.882   6.570  70.908  1.00  0.00    -0.106 C  
HETATM    3  O   UNL     1      -7.542   7.890  71.376  1.00  0.00    -0.076 OA 
HETATM    4  C   UNL     1      -8.641   8.774  71.555  1.00  0.00    -0.186 C  
HETATM    5  H1  UNL     1     -11.443   5.303  72.620  1.00  0.00     0.000 HD 
HETATM    6  C   UNL     1      -9.688   8.170  72.492  1.00  0.00    -0.357 C  
HETATM    7  C   UNL     1     -10.208   6.832  71.966  1.00  0.00    -0.191 C  
HETATM    8  H   UNL     1      -9.305   4.887  73.373  1.00  0.00     0.000 HD 
HETATM    9  H2  UNL     1     -11.857   6.816  73.253  1.00  0.00     0.000 HD 
HETATM   10  N   UNL     1     -11.097   6.196  72.971  1.00  0.00    -0.245 NA 
HETATM   11  C   UNL     1      -9.040   5.878  71.665  1.00  0.00    -0.143 C  
HETATM   12  O   UNL     1      -8.594   5.312  72.908  1.00  0.00    -0.115 OA 
ENDROOT
BRANCH   4  13
HETATM   13  O   UNL     1      -9.246   9.184  70.331  1.00  0.00    -0.193 OA 
BRANCH  13  14
HETATM   14  C   UNL     1      -8.385   9.597  69.248  1.00  0.00    -0.137 C  
HETATM   15  C   UNL     1      -8.562   8.528  68.153  1.00  0.00    -0.138 C  
HETATM   16  C   UNL     1      -9.987   8.581  67.565  1.00  0.00    -0.200 C  
HETATM   17  C   UNL     1     -10.125   9.883  66.783  1.00  0.00    -0.292 C  
HETATM   18  O   UNL     1     -11.008   8.535  68.572  1.00  0.00    -0.441 OA 
HETATM   19  H   UNL     1     -10.430  13.210  65.253  1.00  0.00     0.000 HD 
HETATM   20  O   UNL     1     -10.339  12.364  65.675  1.00  0.00    -0.248 OA 
HETATM   21  C   UNL     1      -9.626  12.337  66.851  1.00  0.00    -0.213 A  
HETATM   22  C   UNL     1      -9.492  11.086  67.477  1.00  0.00    -0.175 A  
HETATM   23  H   UNL     1     -11.886   8.568  68.209  1.00  0.00     0.000 HD 
HETATM   24  C   UNL     1      -8.695  10.969  68.649  1.00  0.00    -0.161 A  
HETATM   25  C   UNL     1      -8.094  12.137  69.170  1.00  0.00     0.391 A  
HETATM   26  O   UNL     1      -7.263  12.070  70.255  1.00  0.00     0.111 OA 
HETATM   27  C   UNL     1      -8.263  13.397  68.548  1.00  0.00    -0.093 A  
HETATM   28  C   UNL     1      -7.631  14.634  69.096  1.00  0.00    -0.126 C  
HETATM   29  H   UNL     1      -6.859  12.855  70.605  1.00  0.00     0.000 HD 
HETATM   30  C   UNL     1      -7.864  15.927  68.430  1.00  0.00    -0.145 A  
HETATM   31  O   UNL     1      -6.926  14.633  70.097  1.00  0.00    -0.141 OA 
HETATM   32  C   UNL     1      -7.334  17.100  68.981  1.00  0.00    -0.217 A  
HETATM   33  C   UNL     1      -7.565  18.335  68.378  1.00  0.00    -0.302 A  
HETATM   34  C   UNL     1      -8.324  18.403  67.209  1.00  0.00    -0.251 A  
HETATM   35  C   UNL     1      -8.847  17.247  66.653  1.00  0.00    -0.280 A  
HETATM   36  C   UNL     1      -8.612  16.000  67.270  1.00  0.00    -0.205 A  
HETATM   37  C   UNL     1      -9.172  14.779  66.677  1.00  0.00    -0.275 C  
HETATM   38  C   UNL     1      -9.024  13.488  67.380  1.00  0.00    -0.219 A  
HETATM   39  O   UNL     1      -9.758  14.821  65.596  1.00  0.00    -0.332 OA 
BRANCH  16  40
HETATM   40  C   UNL     1     -10.266   7.365  66.663  1.00  0.00    -0.177 C  
HETATM   41  O   UNL     1     -11.278   6.670  66.788  1.00  0.00    -0.333 OA 
HETATM   42  C   UNL     1      -9.231   7.033  65.609  1.00  0.00     0.184 C  
ENDBRANCH  16  40
ENDBRANCH  13  14
ENDBRANCH   4  13
TORSDOF 3
ENDMDL
MODEL       72
REMARK 921   NORMALIZED FREE ENERGY PREDICTED BY IDOCK:   -5.00 KCAL/MOL
REMARK 922        TOTAL FREE ENERGY PREDICTED BY IDOCK:   -6.76 KCAL/MOL
REMARK 923 INTER-LIGAND FREE ENERGY PREDICTED BY IDOCK:   -9.84 KCAL/MOL
REMARK 924 INTRA-LIGAND FREE ENERGY PREDICTED BY IDOCK:    3.08 KCAL/MOL
REMARK 927      BINDING AFFINITY PREDICTED BY RF-SCORE:    0.00 PKD
ROOT
HETATM    1  C   UNL     1     -11.276  16.382  70.594  1.00  0.00    -0.211 C  
HETATM    2  C   UNL     1     -11.245  14.869  70.363  1.00  0.00    -0.211 C  
HETATM    3  O   UNL     1     -11.673  14.647  69.006  1.00  0.00    -0.277 OA 
HETATM    4  C   UNL     1     -11.892  13.287  68.652  1.00  0.00    -0.345 C  
HETATM    5  H1  UNL     1     -13.154  12.228  72.932  1.00  0.00     0.000 HD 
HETATM    6  C   UNL     1     -12.890  12.623  69.601  1.00  0.00     0.823 C  
HETATM    7  C   UNL     1     -12.414  12.689  71.053  1.00  0.00    -0.260 C  
HETATM    8  H   UNL     1     -13.806  14.373  72.395  1.00  0.00     0.000 HD 
HETATM    9  H2  UNL     1     -13.782  11.247  71.706  1.00  0.00     0.000 HD 
HETATM   10  N   UNL     1     -13.472  12.184  71.963  1.00  0.00    -0.406 NA 
HETATM   11  C   UNL     1     -12.070  14.135  71.446  1.00  0.00    -0.227 C  
HETATM   12  O   UNL     1     -13.299  14.824  71.731  1.00  0.00    -0.313 OA 
ENDROOT
BRANCH   4  13
HETATM   13  O   UNL     1     -10.693  12.520  68.574  1.00  0.00    -0.228 OA 
BRANCH  13  14
HETATM   14  C   UNL     1      -9.703  12.896  67.593  1.00  0.00    -0.212 C  
HETATM   15  C   UNL     1     -10.201  12.305  66.260  1.00  0.00    -0.251 C  
HETATM   16  C   UNL     1     -11.496  13.008  65.803  1.00  0.00    -0.332 C  
HETATM   17  C   UNL     1     -11.143  14.441  65.419  1.00  0.00    -0.331 C  
HETATM   18  O   UNL     1     -12.505  13.037  66.823  1.00  0.00    -0.324 OA 
HETATM   19  H   UNL     1     -10.212  17.955  64.883  1.00  0.00     0.000 HD 
HETATM   20  O   UNL     1     -10.438  17.048  65.051  1.00  0.00    -0.660 OA 
HETATM   21  C   UNL     1      -9.823  16.449  66.125  1.00  0.00    -0.338 A  
HETATM   22  C   UNL     1     -10.156  15.107  66.373  1.00  0.00    -0.286 A  
HETATM   23  H   UNL     1     -13.303  13.470  66.541  1.00  0.00     0.000 HD 
HETATM   24  C   UNL     1      -9.493  14.400  67.415  1.00  0.00    -0.207 A  
HETATM   25  C   UNL     1      -8.542  15.094  68.196  1.00  0.00    -0.158 A  
HETATM   26  O   UNL     1      -7.827  14.445  69.166  1.00  0.00    -0.250 OA 
HETATM   27  C   UNL     1      -8.238  16.455  67.956  1.00  0.00    -0.169 A  
HETATM   28  C   UNL     1      -7.235  17.193  68.780  1.00  0.00    -0.232 C  
HETATM   29  H   UNL     1      -7.188  14.911  69.690  1.00  0.00     0.000 HD 
HETATM   30  C   UNL     1      -6.979  18.618  68.511  1.00  0.00    -0.285 A  
HETATM   31  O   UNL     1      -6.612  16.670  69.695  1.00  0.00    -0.221 OA 
HETATM   32  C   UNL     1      -6.093  19.334  69.327  1.00  0.00    -0.297 A  
HETATM   33  C   UNL     1      -5.857  20.688  69.102  1.00  0.00    -0.395 A  
HETATM   34  C   UNL     1      -6.502  21.337  68.048  1.00  0.00    -0.142 A  
HETATM   35  C   UNL     1      -7.375  20.637  67.231  1.00  0.00    -0.394 A  
HETATM   36  C   UNL     1      -7.611  19.266  67.466  1.00  0.00    -0.265 A  
HETATM   37  C   UNL     1      -8.539  18.530  66.598  1.00  0.00    -0.286 C  
HETATM   38  C   UNL     1      -8.877  17.125  66.909  1.00  0.00    -0.255 A  
HETATM   39  O   UNL     1      -9.034  19.071  65.611  1.00  0.00    -0.284 OA 
BRANCH  16  40
HETATM   40  C   UNL     1     -12.148  12.266  64.623  1.00  0.00    -0.374 C  
HETATM   41  O   UNL     1     -13.367  12.271  64.433  1.00  0.00    -0.786 OA 
HETATM   42  C   UNL     1     -11.229  11.500  63.693  1.00  0.00    -0.451 C  
ENDBRANCH  16  40
ENDBRANCH  13  14
ENDBRANCH   4  13
TORSDOF 3
ENDMDL
MODEL       73
REMARK 921   NORMALIZED FREE ENERGY PREDICTED BY IDOCK:   -4.98 KCAL/MOL
REMARK 922        TOTAL FREE ENERGY PREDICTED BY IDOCK:   -6.74 KCAL/MOL
REMARK 923 INTER-LIGAND FREE ENERGY PREDICTED BY IDOCK:   -5.86 KCAL/MOL
REMARK 924 INTRA-LIGAND FREE ENERGY PREDICTED BY IDOCK:   -0.88 KCAL/MOL
REMARK 927      BINDING AFFINITY PREDICTED BY RF-SCORE:    0.00 PKD
ROOT
HETATM    1  C   UNL     1      -7.320   2.957  70.969  1.00  0.00    -0.033 C  
HETATM    2  C   UNL     1      -7.605   4.377  70.473  1.00  0.00    -0.052 C  
HETATM    3  O   UNL     1      -8.732   4.286  69.580  1.00  0.00    -0.071 OA 
HETATM    4  C   UNL     1      -9.038   5.476  68.865  1.00  0.00    -0.118 C  
HETATM    5  H1  UNL     1      -4.632   6.748  68.811  1.00  0.00     0.000 HD 
HETATM    6  C   UNL     1      -7.825   5.977  68.081  1.00  0.00    -0.106 C  
HETATM    7  C   UNL     1      -6.633   6.243  69.000  1.00  0.00    -0.048 C  
HETATM    8  H   UNL     1      -4.822   4.453  68.688  1.00  0.00     0.000 HD 
HETATM    9  H2  UNL     1      -5.596   7.347  67.557  1.00  0.00     0.000 HD 
HETATM   10  N   UNL     1      -5.428   6.570  68.197  1.00  0.00    -0.008 NA 
HETATM   11  C   UNL     1      -6.330   5.009  69.866  1.00  0.00    -0.030 C  
HETATM   12  O   UNL     1      -5.605   4.065  69.060  1.00  0.00    -0.015 OA 
ENDROOT
BRANCH   4  13
HETATM   13  O   UNL     1      -9.563   6.516  69.688  1.00  0.00    -0.148 OA 
BRANCH  13  14
HETATM   14  C   UNL     1     -10.895   6.999  69.414  1.00  0.00    -0.227 C  
HETATM   15  C   UNL     1     -11.828   6.156  70.303  1.00  0.00     0.027 C  
HETATM   16  C   UNL     1     -11.594   6.474  71.794  1.00  0.00    -0.312 C  
HETATM   17  C   UNL     1     -12.082   7.896  72.054  1.00  0.00    -0.363 C  
HETATM   18  O   UNL     1     -10.213   6.382  72.174  1.00  0.00    -0.185 OA 
HETATM   19  H   UNL     1     -12.954  11.444  72.446  1.00  0.00     0.000 HD 
HETATM   20  O   UNL     1     -12.710  10.535  72.319  1.00  0.00    -0.231 OA 
HETATM   21  C   UNL     1     -12.075  10.228  71.138  1.00  0.00    -0.395 A  
HETATM   22  C   UNL     1     -11.715   8.883  70.949  1.00  0.00    -0.312 A  
HETATM   23  H   UNL     1     -10.069   6.578  73.093  1.00  0.00     0.000 HD 
HETATM   24  C   UNL     1     -11.133   8.479  69.716  1.00  0.00    -0.067 A  
HETATM   25  C   UNL     1     -10.899   9.464  68.730  1.00  0.00    -0.114 A  
HETATM   26  O   UNL     1     -10.405   9.119  67.502  1.00  0.00    -0.228 OA 
HETATM   27  C   UNL     1     -11.238  10.821  68.945  1.00  0.00    -0.328 A  
HETATM   28  C   UNL     1     -10.991  11.866  67.907  1.00  0.00    -0.222 C  
HETATM   29  H   UNL     1     -10.248   9.782  66.839  1.00  0.00     0.000 HD 
HETATM   30  C   UNL     1     -11.333  13.270  68.193  1.00  0.00    -0.323 A  
HETATM   31  O   UNL     1     -10.499  11.614  66.815  1.00  0.00    -0.216 OA 
HETATM   32  C   UNL     1     -11.037  14.264  67.252  1.00  0.00    -0.315 A  
HETATM   33  C   UNL     1     -11.330  15.601  67.514  1.00  0.00    -0.198 A  
HETATM   34  C   UNL     1     -11.932  15.952  68.723  1.00  0.00    -0.167 A  
HETATM   35  C   UNL     1     -12.235  14.975  69.658  1.00  0.00    -0.293 A  
HETATM   36  C   UNL     1     -11.933  13.624  69.386  1.00  0.00    -0.394 A  
HETATM   37  C   UNL     1     -12.254  12.593  70.383  1.00  0.00    -0.288 C  
HETATM   38  C   UNL     1     -11.837  11.194  70.151  1.00  0.00    -0.449 A  
HETATM   39  O   UNL     1     -12.872  12.884  71.405  1.00  0.00    -0.367 OA 
BRANCH  16  40
HETATM   40  C   UNL     1     -12.322   5.468  72.703  1.00  0.00     0.270 C  
HETATM   41  O   UNL     1     -13.487   5.633  73.070  1.00  0.00     0.591 OA 
HETATM   42  C   UNL     1     -11.540   4.251  73.154  1.00  0.00    -0.129 C  
ENDBRANCH  16  40
ENDBRANCH  13  14
ENDBRANCH   4  13
TORSDOF 3
ENDMDL
MODEL       74
REMARK 921   NORMALIZED FREE ENERGY PREDICTED BY IDOCK:   -4.94 KCAL/MOL
REMARK 922        TOTAL FREE ENERGY PREDICTED BY IDOCK:   -6.70 KCAL/MOL
REMARK 923 INTER-LIGAND FREE ENERGY PREDICTED BY IDOCK:   -5.82 KCAL/MOL
REMARK 924 INTRA-LIGAND FREE ENERGY PREDICTED BY IDOCK:   -0.88 KCAL/MOL
REMARK 927      BINDING AFFINITY PREDICTED BY RF-SCORE:    0.00 PKD
ROOT
HETATM    1  C   UNL     1     -11.970  13.215  64.649  1.00  0.00    -0.439 C  
HETATM    2  C   UNL     1     -11.231  11.967  65.138  1.00  0.00    -0.315 C  
HETATM    3  O   UNL     1     -10.189  12.421  66.023  1.00  0.00    -0.236 OA 
HETATM    4  C   UNL     1      -9.267  11.422  66.439  1.00  0.00    -0.197 C  
HETATM    5  H1  UNL     1      -9.752   9.128  62.498  1.00  0.00     0.000 HD 
HETATM    6  C   UNL     1      -8.628  10.725  65.237  1.00  0.00    -0.153 C  
HETATM    7  C   UNL     1      -9.682  10.083  64.335  1.00  0.00    -0.207 C  
HETATM    8  H   UNL     1      -9.936  11.400  62.149  1.00  0.00     0.000 HD 
HETATM    9  H2  UNL     1      -8.283   8.916  63.308  1.00  0.00     0.000 HD 
HETATM   10  N   UNL     1      -9.048   9.557  63.100  1.00  0.00    -0.207 NA 
HETATM   11  C   UNL     1     -10.756  11.110  63.942  1.00  0.00    -0.337 C  
HETATM   12  O   UNL     1     -10.227  11.926  62.884  1.00  0.00    -0.269 OA 
ENDROOT
BRANCH   4  13
HETATM   13  O   UNL     1      -9.832  10.463  67.329  1.00  0.00    -0.169 OA 
BRANCH  13  14
HETATM   14  C   UNL     1      -9.173  10.232  68.593  1.00  0.00    -0.159 C  
HETATM   15  C   UNL     1      -9.973  11.048  69.627  1.00  0.00     0.204 C  
HETATM   16  C   UNL     1     -11.388  10.461  69.808  1.00  0.00    -0.289 C  
HETATM   17  C   UNL     1     -11.251   9.104  70.490  1.00  0.00    -0.309 C  
HETATM   18  O   UNL     1     -12.082  10.286  68.564  1.00  0.00    -0.678 OA 
HETATM   19  H   UNL     1     -10.743   5.707  71.796  1.00  0.00     0.000 HD 
HETATM   20  O   UNL     1     -10.852   6.579  71.435  1.00  0.00    -0.231 OA 
HETATM   21  C   UNL     1      -9.929   6.976  70.496  1.00  0.00    -0.183 A  
HETATM   22  C   UNL     1     -10.089   8.266  69.962  1.00  0.00    -0.196 A  
HETATM   23  H   UNL     1     -12.954   9.925  68.675  1.00  0.00     0.000 HD 
HETATM   24  C   UNL     1      -9.122   8.774  69.051  1.00  0.00    -0.141 A  
HETATM   25  C   UNL     1      -8.045   7.938  68.682  1.00  0.00    -0.126 A  
HETATM   26  O   UNL     1      -7.051   8.400  67.863  1.00  0.00    -0.079 OA 
HETATM   27  C   UNL     1      -7.912   6.629  69.202  1.00  0.00    -0.112 A  
HETATM   28  C   UNL     1      -6.775   5.741  68.814  1.00  0.00    -0.064 C  
HETATM   29  H   UNL     1      -6.327   7.838  67.615  1.00  0.00     0.000 HD 
HETATM   30  C   UNL     1      -6.700   4.375  69.359  1.00  0.00    -0.045 A  
HETATM   31  O   UNL     1      -5.893   6.091  68.040  1.00  0.00    -0.011 OA 
HETATM   32  C   UNL     1      -5.677   3.514  68.942  1.00  0.00    -0.022 A  
HETATM   33  C   UNL     1      -5.604   2.210  69.428  1.00  0.00    -0.017 A  
HETATM   34  C   UNL     1      -6.553   1.761  70.347  1.00  0.00    -0.025 A  
HETATM   35  C   UNL     1      -7.565   2.607  70.771  1.00  0.00    -0.036 A  
HETATM   36  C   UNL     1      -7.634   3.925  70.272  1.00  0.00    -0.045 A  
HETATM   37  C   UNL     1      -8.711   4.816  70.724  1.00  0.00    -0.109 C  
HETATM   38  C   UNL     1      -8.854   6.157  70.120  1.00  0.00    -0.144 A  
HETATM   39  O   UNL     1      -9.490   4.458  71.605  1.00  0.00    -0.137 OA 
BRANCH  16  40
HETATM   40  C   UNL     1     -12.284  11.403  70.631  1.00  0.00    -0.389 C  
HETATM   41  O   UNL     1     -12.605  11.157  71.796  1.00  0.00    -0.308 OA 
HETATM   42  C   UNL     1     -12.780  12.660  69.947  1.00  0.00     0.362 C  
ENDBRANCH  16  40
ENDBRANCH  13  14
ENDBRANCH   4  13
TORSDOF 3
ENDMDL
MODEL       75
REMARK 921   NORMALIZED FREE ENERGY PREDICTED BY IDOCK:   -4.56 KCAL/MOL
REMARK 922        TOTAL FREE ENERGY PREDICTED BY IDOCK:   -6.25 KCAL/MOL
REMARK 923 INTER-LIGAND FREE ENERGY PREDICTED BY IDOCK:   -5.35 KCAL/MOL
REMARK 924 INTRA-LIGAND FREE ENERGY PREDICTED BY IDOCK:   -0.90 KCAL/MOL
REMARK 927      BINDING AFFINITY PREDICTED BY RF-SCORE:    0.00 PKD
ROOT
HETATM    1  C   UNL     1     -12.934  13.836  64.725  1.00  0.00    -0.002 C  
HETATM    2  C   UNL     1     -12.174  12.723  65.450  1.00  0.00    -0.478 C  
HETATM    3  O   UNL     1     -11.230  13.368  66.326  1.00  0.00    -0.298 OA 
HETATM    4  C   UNL     1     -10.294  12.501  66.955  1.00  0.00    -0.229 C  
HETATM    5  H1  UNL     1     -10.346   9.622  63.385  1.00  0.00     0.000 HD 
HETATM    6  C   UNL     1      -9.527  11.675  65.922  1.00  0.00    -0.246 C  
HETATM    7  C   UNL     1     -10.471  10.841  65.056  1.00  0.00    -0.237 C  
HETATM    8  H   UNL     1     -10.618  11.801  62.681  1.00  0.00     0.000 HD 
HETATM    9  H2  UNL     1      -8.937   9.624  64.320  1.00  0.00     0.000 HD 
HETATM   10  N   UNL     1      -9.715  10.178  63.964  1.00  0.00    -0.280 NA 
HETATM   11  C   UNL     1     -11.562  11.729  64.435  1.00  0.00    -0.245 C  
HETATM   12  O   UNL     1     -10.993  12.411  63.305  1.00  0.00    -0.438 OA 
ENDROOT
BRANCH   4  13
HETATM   13  O   UNL     1     -10.878  11.651  67.939  1.00  0.00    -0.191 OA 
BRANCH  13  14
HETATM   14  C   UNL     1     -10.222  11.537  69.220  1.00  0.00     0.078 C  
HETATM   15  C   UNL     1     -10.933  12.550  70.137  1.00  0.00     0.851 C  
HETATM   16  C   UNL     1     -12.390  12.117  70.400  1.00  0.00    -0.233 C  
HETATM   17  C   UNL     1     -12.358  10.857  71.260  1.00  0.00    -0.448 C  
HETATM   18  O   UNL     1     -13.115  11.837  69.195  1.00  0.00     0.899 OA 
HETATM   19  H   UNL     1     -12.120   7.636  73.012  1.00  0.00     0.000 HD 
HETATM   20  O   UNL     1     -12.160   8.457  72.537  1.00  0.00    -0.393 OA 
HETATM   21  C   UNL     1     -11.221   8.643  71.549  1.00  0.00    -0.290 A  
HETATM   22  C   UNL     1     -11.280   9.859  70.846  1.00  0.00    -0.433 A  
HETATM   23  H   UNL     1     -14.013  11.570  69.358  1.00  0.00     0.000 HD 
HETATM   24  C   UNL     1     -10.288  10.155  69.870  1.00  0.00    -0.308 A  
HETATM   25  C   UNL     1      -9.291   9.187  69.614  1.00  0.00    -0.172 A  
HETATM   26  O   UNL     1      -8.274   9.447  68.735  1.00  0.00    -0.105 OA 
HETATM   27  C   UNL     1      -9.261   7.953  70.306  1.00  0.00    -0.152 A  
HETATM   28  C   UNL     1      -8.211   6.926  70.037  1.00  0.00    -0.134 C  
HETATM   29  H   UNL     1      -7.605   8.796  68.563  1.00  0.00     0.000 HD 
HETATM   30  C   UNL     1      -8.243   5.645  70.762  1.00  0.00    -0.118 A  
HETATM   31  O   UNL     1      -7.314   7.091  69.219  1.00  0.00    -0.086 OA 
HETATM   32  C   UNL     1      -7.303   4.650  70.461  1.00  0.00    -0.050 A  
HETATM   33  C   UNL     1      -7.333   3.423  71.119  1.00  0.00    -0.033 A  
HETATM   34  C   UNL     1      -8.303   3.184  72.094  1.00  0.00    -0.077 A  
HETATM   35  C   UNL     1      -9.232   4.164  72.404  1.00  0.00    -0.151 A  
HETATM   36  C   UNL     1      -9.197   5.404  71.731  1.00  0.00    -0.160 A  
HETATM   37  C   UNL     1     -10.187   6.437  72.062  1.00  0.00    -0.194 C  
HETATM   38  C   UNL     1     -10.226   7.692  71.283  1.00  0.00    -0.204 A  
HETATM   39  O   UNL     1     -10.981   6.270  72.987  1.00  0.00    -0.251 OA 
BRANCH  16  40
HETATM   40  C   UNL     1     -13.189  13.235  71.092  1.00  0.00    -0.070 C  
HETATM   41  O   UNL     1     -13.786  13.058  72.156  1.00  0.00    -0.466 OA 
HETATM   42  C   UNL     1     -13.233  14.583  70.403  1.00  0.00    -0.012 C  
ENDBRANCH  16  40
ENDBRANCH  13  14
ENDBRANCH   4  13
TORSDOF 3
ENDMDL
MODEL       76
REMARK 921   NORMALIZED FREE ENERGY PREDICTED BY IDOCK:   -4.53 KCAL/MOL
REMARK 922        TOTAL FREE ENERGY PREDICTED BY IDOCK:   -6.22 KCAL/MOL
REMARK 923 INTER-LIGAND FREE ENERGY PREDICTED BY IDOCK:   -6.41 KCAL/MOL
REMARK 924 INTRA-LIGAND FREE ENERGY PREDICTED BY IDOCK:    0.19 KCAL/MOL
REMARK 927      BINDING AFFINITY PREDICTED BY RF-SCORE:    0.00 PKD
ROOT
HETATM    1  C   UNL     1      -5.631   6.833  69.411  1.00  0.00    -0.015 C  
HETATM    2  C   UNL     1      -6.773   6.782  70.429  1.00  0.00    -0.057 C  
HETATM    3  O   UNL     1      -7.664   7.868  70.108  1.00  0.00    -0.085 OA 
HETATM    4  C   UNL     1      -8.696   8.108  71.056  1.00  0.00    -0.139 C  
HETATM    5  H1  UNL     1      -6.054   6.661  74.514  1.00  0.00     0.000 HD 
HETATM    6  C   UNL     1      -8.120   8.336  72.454  1.00  0.00    -0.204 C  
HETATM    7  C   UNL     1      -7.286   7.142  72.919  1.00  0.00    -0.073 C  
HETATM    8  H   UNL     1      -4.786   7.715  72.902  1.00  0.00     0.000 HD 
HETATM    9  H2  UNL     1      -7.273   7.761  74.917  1.00  0.00     0.000 HD 
HETATM   10  N   UNL     1      -6.611   7.457  74.203  1.00  0.00    -0.077 NA 
HETATM   11  C   UNL     1      -6.218   6.787  71.872  1.00  0.00    -0.038 C  
HETATM   12  O   UNL     1      -5.127   7.712  72.016  1.00  0.00    -0.035 OA 
ENDROOT
BRANCH   4  13
HETATM   13  O   UNL     1      -9.688   7.085  71.087  1.00  0.00    -0.173 OA 
BRANCH  13  14
HETATM   14  C   UNL     1     -10.614   6.997  69.982  1.00  0.00    -0.230 C  
HETATM   15  C   UNL     1     -12.013   7.166  70.605  1.00  0.00    -0.312 C  
HETATM   16  C   UNL     1     -12.194   8.595  71.158  1.00  0.00    -0.238 C  
HETATM   17  C   UNL     1     -12.240   9.555  69.974  1.00  0.00     0.315 C  
HETATM   18  O   UNL     1     -11.131   8.992  72.036  1.00  0.00    -0.364 OA 
HETATM   19  H   UNL     1     -11.963  11.775  67.058  1.00  0.00     0.000 HD 
HETATM   20  O   UNL     1     -12.007  11.186  67.802  1.00  0.00    -0.630 OA 
HETATM   21  C   UNL     1     -11.157  10.105  67.783  1.00  0.00    -0.227 A  
HETATM   22  C   UNL     1     -11.222   9.233  68.883  1.00  0.00     0.151 A  
HETATM   23  H   UNL     1     -11.243   9.872  72.376  1.00  0.00     0.000 HD 
HETATM   24  C   UNL     1     -10.433   8.049  68.888  1.00  0.00    -0.207 A  
HETATM   25  C   UNL     1      -9.574   7.812  67.792  1.00  0.00    -0.146 A  
HETATM   26  O   UNL     1      -8.844   6.656  67.714  1.00  0.00    -0.116 OA 
HETATM   27  C   UNL     1      -9.494   8.714  66.705  1.00  0.00    -0.267 A  
HETATM   28  C   UNL     1      -8.586   8.468  65.545  1.00  0.00    -0.180 C  
HETATM   29  H   UNL     1      -8.267   6.497  66.977  1.00  0.00     0.000 HD 
HETATM   30  C   UNL     1      -8.516   9.454  64.453  1.00  0.00    -0.196 A  
HETATM   31  O   UNL     1      -7.872   7.476  65.458  1.00  0.00    -0.099 OA 
HETATM   32  C   UNL     1      -7.613   9.264  63.399  1.00  0.00    -0.110 A  
HETATM   33  C   UNL     1      -7.516  10.198  62.370  1.00  0.00    -0.145 A  
HETATM   34  C   UNL     1      -8.332  11.330  62.385  1.00  0.00    -0.165 A  
HETATM   35  C   UNL     1      -9.233  11.524  63.420  1.00  0.00    -0.098 A  
HETATM   36  C   UNL     1      -9.324  10.574  64.459  1.00  0.00    -0.299 A  
HETATM   37  C   UNL     1     -10.280  10.787  65.555  1.00  0.00    -0.266 C  
HETATM   38  C   UNL     1     -10.299   9.856  66.702  1.00  0.00    -0.275 A  
HETATM   39  O   UNL     1     -11.068  11.731  65.522  1.00  0.00    -0.305 OA 
BRANCH  16  40
HETATM   40  C   UNL     1     -13.472   8.708  72.008  1.00  0.00    -0.403 C  
HETATM   41  O   UNL     1     -13.748   9.723  72.651  1.00  0.00    -0.263 OA 
HETATM   42  C   UNL     1     -14.388   7.503  72.044  1.00  0.00    -0.437 C  
ENDBRANCH  16  40
ENDBRANCH  13  14
ENDBRANCH   4  13
TORSDOF 3
ENDMDL
MODEL       77
REMARK 921   NORMALIZED FREE ENERGY PREDICTED BY IDOCK:   -4.49 KCAL/MOL
REMARK 922        TOTAL FREE ENERGY PREDICTED BY IDOCK:   -6.17 KCAL/MOL
REMARK 923 INTER-LIGAND FREE ENERGY PREDICTED BY IDOCK:   -8.70 KCAL/MOL
REMARK 924 INTRA-LIGAND FREE ENERGY PREDICTED BY IDOCK:    2.53 KCAL/MOL
REMARK 927      BINDING AFFINITY PREDICTED BY RF-SCORE:    0.00 PKD
ROOT
HETATM    1  C   UNL     1     -12.257  12.966  70.269  1.00  0.00    -0.362 C  
HETATM    2  C   UNL     1     -11.312  11.777  70.081  1.00  0.00     0.051 C  
HETATM    3  O   UNL     1     -11.191  11.562  68.662  1.00  0.00    -0.205 OA 
HETATM    4  C   UNL     1     -10.500  10.379  68.282  1.00  0.00    -0.191 C  
HETATM    5  H1  UNL     1     -11.921   8.171  72.042  1.00  0.00     0.000 HD 
HETATM    6  C   UNL     1     -11.133   9.141  68.919  1.00  0.00     0.089 C  
HETATM    7  C   UNL     1     -11.149   9.240  70.444  1.00  0.00    -0.255 C  
HETATM    8  H   UNL     1     -13.529   9.651  71.307  1.00  0.00     0.000 HD 
HETATM    9  H2  UNL     1     -11.555   7.204  70.704  1.00  0.00     0.000 HD 
HETATM   10  N   UNL     1     -11.911   8.105  71.024  1.00  0.00    -0.284 NA 
HETATM   11  C   UNL     1     -11.802  10.557  70.895  1.00  0.00    -0.355 C  
HETATM   12  O   UNL     1     -13.228  10.401  70.807  1.00  0.00    -0.375 OA 
ENDROOT
BRANCH   4  13
HETATM   13  O   UNL     1      -9.102  10.423  68.562  1.00  0.00    -0.133 OA 
BRANCH  13  14
HETATM   14  C   UNL     1      -8.267  11.266  67.739  1.00  0.00    -0.120 C  
HETATM   15  C   UNL     1      -7.915  10.415  66.505  1.00  0.00    -0.123 C  
HETATM   16  C   UNL     1      -9.171  10.151  65.649  1.00  0.00    -0.187 C  
HETATM   17  C   UNL     1      -9.604  11.475  65.027  1.00  0.00    -0.222 C  
HETATM   18  O   UNL     1     -10.263   9.618  66.411  1.00  0.00    -0.247 OA 
HETATM   19  H   UNL     1     -10.737  14.785  63.903  1.00  0.00     0.000 HD 
HETATM   20  O   UNL     1     -10.441  13.941  64.224  1.00  0.00    -0.313 OA 
HETATM   21  C   UNL     1      -9.949  13.909  65.508  1.00  0.00    -0.251 A  
HETATM   22  C   UNL     1      -9.512  12.661  65.983  1.00  0.00    -0.140 A  
HETATM   23  H   UNL     1     -11.037   9.455  65.884  1.00  0.00     0.000 HD 
HETATM   24  C   UNL     1      -8.911  12.571  67.270  1.00  0.00    -0.192 A  
HETATM   25  C   UNL     1      -8.812  13.747  68.047  1.00  0.00    -0.182 A  
HETATM   26  O   UNL     1      -8.182  13.730  69.262  1.00  0.00    -0.324 OA 
HETATM   27  C   UNL     1      -9.285  14.992  67.569  1.00  0.00    -0.189 A  
HETATM   28  C   UNL     1      -9.183  16.237  68.388  1.00  0.00    -0.203 C  
HETATM   29  H   UNL     1      -8.116  14.520  69.784  1.00  0.00     0.000 HD 
HETATM   30  C   UNL     1      -9.719  17.502  67.857  1.00  0.00    -0.278 A  
HETATM   31  O   UNL     1      -8.679  16.260  69.503  1.00  0.00    -0.133 OA 
HETATM   32  C   UNL     1      -9.692  18.657  68.650  1.00  0.00    -0.418 A  
HETATM   33  C   UNL     1     -10.217  19.857  68.175  1.00  0.00    -0.564 A  
HETATM   34  C   UNL     1     -10.767  19.911  66.893  1.00  0.00    -0.471 A  
HETATM   35  C   UNL     1     -10.793  18.776  66.099  1.00  0.00    -0.160 A  
HETATM   36  C   UNL     1     -10.262  17.564  66.588  1.00  0.00    -0.332 A  
HETATM   37  C   UNL     1     -10.294  16.364  65.742  1.00  0.00    -0.369 C  
HETATM   38  C   UNL     1      -9.844  15.068  66.290  1.00  0.00    -0.307 A  
HETATM   39  O   UNL     1     -10.688  16.429  64.579  1.00  0.00    -0.648 OA 
BRANCH  16  40
HETATM   40  C   UNL     1      -8.896   9.096  64.562  1.00  0.00    -0.125 C  
HETATM   41  O   UNL     1      -8.910   9.369  63.360  1.00  0.00    -0.225 OA 
HETATM   42  C   UNL     1      -8.616   7.682  65.026  1.00  0.00     0.045 C  
ENDBRANCH  16  40
ENDBRANCH  13  14
ENDBRANCH   4  13
TORSDOF 3
ENDMDL
MODEL       78
REMARK 921   NORMALIZED FREE ENERGY PREDICTED BY IDOCK:   -4.49 KCAL/MOL
REMARK 922        TOTAL FREE ENERGY PREDICTED BY IDOCK:   -6.17 KCAL/MOL
REMARK 923 INTER-LIGAND FREE ENERGY PREDICTED BY IDOCK:   -6.32 KCAL/MOL
REMARK 924 INTRA-LIGAND FREE ENERGY PREDICTED BY IDOCK:    0.15 KCAL/MOL
REMARK 927      BINDING AFFINITY PREDICTED BY RF-SCORE:    0.00 PKD
ROOT
HETATM    1  C   UNL     1      -9.086   6.698  73.747  1.00  0.00    -0.169 C  
HETATM    2  C   UNL     1      -9.133   5.802  72.507  1.00  0.00    -0.136 C  
HETATM    3  O   UNL     1     -10.524   5.562  72.220  1.00  0.00    -0.202 OA 
HETATM    4  C   UNL     1     -10.778   4.595  71.209  1.00  0.00     0.226 C  
HETATM    5  H1  UNL     1      -6.979   2.263  72.285  1.00  0.00     0.000 HD 
HETATM    6  C   UNL     1     -10.103   3.262  71.537  1.00  0.00    -0.043 C  
HETATM    7  C   UNL     1      -8.591   3.424  71.701  1.00  0.00    -0.080 C  
HETATM    8  H   UNL     1      -7.913   3.215  74.166  1.00  0.00     0.000 HD 
HETATM    9  H2  UNL     1      -8.223   1.370  71.568  1.00  0.00     0.000 HD 
HETATM   10  N   UNL     1      -7.987   2.154  72.176  1.00  0.00    -0.052 NA 
HETATM   11  C   UNL     1      -8.272   4.534  72.716  1.00  0.00    -0.099 C  
HETATM   12  O   UNL     1      -8.441   3.993  74.037  1.00  0.00    -0.090 OA 
ENDROOT
BRANCH   4  13
HETATM   13  O   UNL     1     -10.413   5.029  69.901  1.00  0.00    -0.280 OA 
BRANCH  13  14
HETATM   14  C   UNL     1      -9.360   6.009  69.776  1.00  0.00    -0.149 C  
HETATM   15  C   UNL     1      -8.199   5.276  69.078  1.00  0.00    -0.085 C  
HETATM   16  C   UNL     1      -8.576   4.916  67.627  1.00  0.00    -0.103 C  
HETATM   17  C   UNL     1      -8.676   6.213  66.831  1.00  0.00    -0.109 C  
HETATM   18  O   UNL     1      -9.825   4.217  67.532  1.00  0.00    -0.175 OA 
HETATM   19  H   UNL     1      -9.238   9.426  65.139  1.00  0.00     0.000 HD 
HETATM   20  O   UNL     1      -9.112   8.606  65.601  1.00  0.00    -0.198 OA 
HETATM   21  C   UNL     1      -9.551   8.559  66.903  1.00  0.00    -0.197 A  
HETATM   22  C   UNL     1      -9.364   7.346  67.587  1.00  0.00    -0.145 A  
HETATM   23  H   UNL     1     -10.057   3.995  66.637  1.00  0.00     0.000 HD 
HETATM   24  C   UNL     1      -9.715   7.254  68.963  1.00  0.00    -0.152 A  
HETATM   25  C   UNL     1     -10.282   8.388  69.587  1.00  0.00    -0.209 A  
HETATM   26  O   UNL     1     -10.575   8.376  70.924  1.00  0.00    -0.198 OA 
HETATM   27  C   UNL     1     -10.495   9.594  68.878  1.00  0.00    -0.234 A  
HETATM   28  C   UNL     1     -11.095  10.794  69.534  1.00  0.00    -0.278 C  
HETATM   29  H   UNL     1     -10.956   9.138  71.343  1.00  0.00     0.000 HD 
HETATM   30  C   UNL     1     -11.325  12.016  68.744  1.00  0.00    -0.331 A  
HETATM   31  O   UNL     1     -11.426  10.813  70.713  1.00  0.00    -0.306 OA 
HETATM   32  C   UNL     1     -11.954  13.119  69.334  1.00  0.00    -0.347 A  
HETATM   33  C   UNL     1     -12.202  14.275  68.596  1.00  0.00    -0.205 A  
HETATM   34  C   UNL     1     -11.812  14.337  67.258  1.00  0.00    -0.444 A  
HETATM   35  C   UNL     1     -11.182  13.253  66.666  1.00  0.00    -0.332 A  
HETATM   36  C   UNL     1     -10.937  12.086  67.420  1.00  0.00    -0.311 A  
HETATM   37  C   UNL     1     -10.272  10.940  66.786  1.00  0.00    -0.231 C  
HETATM   38  C   UNL     1     -10.115   9.676  67.536  1.00  0.00    -0.247 A  
HETATM   39  O   UNL     1      -9.838  11.025  65.638  1.00  0.00    -0.215 OA 
BRANCH  16  40
HETATM   40  C   UNL     1      -7.541   3.964  67.000  1.00  0.00    -0.080 C  
HETATM   41  O   UNL     1      -7.373   2.812  67.408  1.00  0.00    -0.056 OA 
HETATM   42  C   UNL     1      -6.710   4.502  65.855  1.00  0.00    -0.053 C  
ENDBRANCH  16  40
ENDBRANCH  13  14
ENDBRANCH   4  13
TORSDOF 3
ENDMDL
MODEL       79
REMARK 921   NORMALIZED FREE ENERGY PREDICTED BY IDOCK:   -4.49 KCAL/MOL
REMARK 922        TOTAL FREE ENERGY PREDICTED BY IDOCK:   -6.17 KCAL/MOL
REMARK 923 INTER-LIGAND FREE ENERGY PREDICTED BY IDOCK:   -5.30 KCAL/MOL
REMARK 924 INTRA-LIGAND FREE ENERGY PREDICTED BY IDOCK:   -0.86 KCAL/MOL
REMARK 927      BINDING AFFINITY PREDICTED BY RF-SCORE:    0.00 PKD
ROOT
HETATM    1  C   UNL     1     -10.766   5.284  66.278  1.00  0.00    -0.260 C  
HETATM    2  C   UNL     1      -9.306   5.683  66.505  1.00  0.00    -0.150 C  
HETATM    3  O   UNL     1      -8.989   6.681  65.515  1.00  0.00    -0.048 OA 
HETATM    4  C   UNL     1      -7.618   7.048  65.438  1.00  0.00    -0.097 C  
HETATM    5  H1  UNL     1      -6.277   2.855  66.727  1.00  0.00     0.000 HD 
HETATM    6  C   UNL     1      -6.731   5.823  65.209  1.00  0.00    -0.044 C  
HETATM    7  C   UNL     1      -6.906   4.786  66.318  1.00  0.00    -0.062 C  
HETATM    8  H   UNL     1      -8.202   2.745  65.463  1.00  0.00     0.000 HD 
HETATM    9  H2  UNL     1      -5.176   3.736  65.793  1.00  0.00     0.000 HD 
HETATM   10  N   UNL     1      -6.160   3.547  65.986  1.00  0.00    -0.027 NA 
HETATM   11  C   UNL     1      -8.392   4.435  66.501  1.00  0.00    -0.105 C  
HETATM   12  O   UNL     1      -8.763   3.511  65.465  1.00  0.00    -0.114 OA 
ENDROOT
BRANCH   4  13
HETATM   13  O   UNL     1      -7.163   7.787  66.569  1.00  0.00    -0.082 OA 
BRANCH  13  14
HETATM   14  C   UNL     1      -8.149   8.421  67.412  1.00  0.00    -0.106 C  
HETATM   15  C   UNL     1      -7.655   8.204  68.855  1.00  0.00    -0.098 C  
HETATM   16  C   UNL     1      -6.353   8.991  69.111  1.00  0.00    -0.043 C  
HETATM   17  C   UNL     1      -6.692  10.478  69.097  1.00  0.00    -0.069 C  
HETATM   18  O   UNL     1      -5.345   8.736  68.122  1.00  0.00    -0.034 OA 
HETATM   19  H   UNL     1      -7.588  14.016  68.670  1.00  0.00     0.000 HD 
HETATM   20  O   UNL     1      -7.372  13.095  68.752  1.00  0.00    -0.106 OA 
HETATM   21  C   UNL     1      -7.993  12.237  67.875  1.00  0.00    -0.152 A  
HETATM   22  C   UNL     1      -7.674  10.874  67.996  1.00  0.00    -0.101 A  
HETATM   23  H   UNL     1      -4.543   9.221  68.280  1.00  0.00     0.000 HD 
HETATM   24  C   UNL     1      -8.344   9.920  67.181  1.00  0.00    -0.121 A  
HETATM   25  C   UNL     1      -9.288  10.389  66.240  1.00  0.00    -0.166 A  
HETATM   26  O   UNL     1     -10.010   9.511  65.478  1.00  0.00    -0.370 OA 
HETATM   27  C   UNL     1      -9.578  11.768  66.106  1.00  0.00    -0.250 A  
HETATM   28  C   UNL     1     -10.574  12.268  65.113  1.00  0.00    -0.285 C  
HETATM   29  H   UNL     1     -10.645   9.826  64.846  1.00  0.00     0.000 HD 
HETATM   30  C   UNL     1     -10.817  13.716  64.991  1.00  0.00    -0.358 A  
HETATM   31  O   UNL     1     -11.204  11.524  64.370  1.00  0.00    -0.321 OA 
HETATM   32  C   UNL     1     -11.696  14.195  64.011  1.00  0.00    -0.234 A  
HETATM   33  C   UNL     1     -11.918  15.562  63.865  1.00  0.00     0.204 A  
HETATM   34  C   UNL     1     -11.267  16.463  64.708  1.00  0.00    -0.219 A  
HETATM   35  C   UNL     1     -10.400  15.999  65.684  1.00  0.00    -0.414 A  
HETATM   36  C   UNL     1     -10.178  14.612  65.825  1.00  0.00    -0.360 A  
HETATM   37  C   UNL     1      -9.256  14.127  66.861  1.00  0.00    -0.257 C  
HETATM   38  C   UNL     1      -8.933  12.687  66.938  1.00  0.00    -0.213 A  
HETATM   39  O   UNL     1      -8.756  14.908  67.668  1.00  0.00    -0.163 OA 
BRANCH  16  40
HETATM   40  C   UNL     1      -5.708   8.586  70.448  1.00  0.00    -0.027 C  
HETATM   41  O   UNL     1      -5.146   7.499  70.606  1.00  0.00    -0.023 OA 
HETATM   42  C   UNL     1      -5.801   9.576  71.589  1.00  0.00    -0.027 C  
ENDBRANCH  16  40
ENDBRANCH  13  14
ENDBRANCH   4  13
TORSDOF 3
ENDMDL
MODEL       80
REMARK 921   NORMALIZED FREE ENERGY PREDICTED BY IDOCK:   -4.48 KCAL/MOL
REMARK 922        TOTAL FREE ENERGY PREDICTED BY IDOCK:   -6.15 KCAL/MOL
REMARK 923 INTER-LIGAND FREE ENERGY PREDICTED BY IDOCK:   -5.48 KCAL/MOL
REMARK 924 INTRA-LIGAND FREE ENERGY PREDICTED BY IDOCK:   -0.66 KCAL/MOL
REMARK 927      BINDING AFFINITY PREDICTED BY RF-SCORE:    0.00 PKD
ROOT
HETATM    1  C   UNL     1     -10.714  11.368  63.957  1.00  0.00    -0.450 C  
HETATM    2  C   UNL     1     -10.140  11.582  65.360  1.00  0.00    -0.260 C  
HETATM    3  O   UNL     1      -9.944  10.275  65.933  1.00  0.00    -0.229 OA 
HETATM    4  C   UNL     1      -9.591  10.261  67.310  1.00  0.00    -0.159 C  
HETATM    5  H1  UNL     1     -11.966  14.103  68.105  1.00  0.00     0.000 HD 
HETATM    6  C   UNL     1     -10.617  11.021  68.151  1.00  0.00    -0.226 C  
HETATM    7  C   UNL     1     -10.758  12.472  67.689  1.00  0.00    -0.218 C  
HETATM    8  H   UNL     1     -12.991  12.830  66.479  1.00  0.00     0.000 HD 
HETATM    9  H2  UNL     1     -11.762  13.067  69.425  1.00  0.00     0.000 HD 
HETATM   10  N   UNL     1     -11.871  13.135  68.413  1.00  0.00    -0.350 NA 
HETATM   11  C   UNL     1     -11.043  12.534  66.179  1.00  0.00    -0.298 C  
HETATM   12  O   UNL     1     -12.437  12.246  65.976  1.00  0.00    -0.503 OA 
ENDROOT
BRANCH   4  13
HETATM   13  O   UNL     1      -8.277  10.752  67.565  1.00  0.00    -0.111 OA 
BRANCH  13  14
HETATM   14  C   UNL     1      -7.161   9.860  67.353  1.00  0.00    -0.085 C  
HETATM   15  C   UNL     1      -6.211  10.102  68.541  1.00  0.00    -0.044 C  
HETATM   16  C   UNL     1      -6.854   9.621  69.858  1.00  0.00    -0.075 C  
HETATM   17  C   UNL     1      -6.945   8.099  69.810  1.00  0.00    -0.052 C  
HETATM   18  O   UNL     1      -8.169  10.157  70.066  1.00  0.00    -0.296 OA 
HETATM   19  H   UNL     1      -7.433   4.481  69.397  1.00  0.00     0.000 HD 
HETATM   20  O   UNL     1      -7.321   5.421  69.474  1.00  0.00    -0.062 OA 
HETATM   21  C   UNL     1      -7.546   6.163  68.338  1.00  0.00    -0.092 A  
HETATM   22  C   UNL     1      -7.379   7.553  68.452  1.00  0.00    -0.099 A  
HETATM   23  H   UNL     1      -8.564   9.861  70.878  1.00  0.00     0.000 HD 
HETATM   24  C   UNL     1      -7.510   8.373  67.297  1.00  0.00    -0.093 A  
HETATM   25  C   UNL     1      -7.847   7.755  66.072  1.00  0.00    -0.100 A  
HETATM   26  O   UNL     1      -7.920   8.486  64.917  1.00  0.00    -0.120 OA 
HETATM   27  C   UNL     1      -8.043   6.357  65.977  1.00  0.00    -0.120 A  
HETATM   28  C   UNL     1      -8.401   5.700  64.684  1.00  0.00    -0.119 C  
HETATM   29  H   UNL     1      -8.146   8.071  64.094  1.00  0.00     0.000 HD 
HETATM   30  C   UNL     1      -8.626   4.244  64.646  1.00  0.00    -0.125 A  
HETATM   31  O   UNL     1      -8.532   6.321  63.637  1.00  0.00     0.049 OA 
HETATM   32  C   UNL     1      -9.032   3.634  63.452  1.00  0.00    -0.099 A  
HETATM   33  C   UNL     1      -9.274   2.263  63.403  1.00  0.00    -0.093 A  
HETATM   34  C   UNL     1      -9.100   1.488  64.550  1.00  0.00    -0.116 A  
HETATM   35  C   UNL     1      -8.692   2.082  65.734  1.00  0.00    -0.119 A  
HETATM   36  C   UNL     1      -8.452   3.471  65.777  1.00  0.00    -0.108 A  
HETATM   37  C   UNL     1      -8.022   4.095  67.036  1.00  0.00    -0.097 C  
HETATM   38  C   UNL     1      -7.879   5.563  67.116  1.00  0.00    -0.101 A  
HETATM   39  O   UNL     1      -7.774   3.404  68.023  1.00  0.00    -0.064 OA 
BRANCH  16  40
HETATM   40  C   UNL     1      -6.040  10.085  71.080  1.00  0.00    -0.031 C  
HETATM   41  O   UNL     1      -5.730  11.266  71.255  1.00  0.00    -0.355 OA 
HETATM   42  C   UNL     1      -5.611   9.023  72.070  1.00  0.00    -0.064 C  
ENDBRANCH  16  40
ENDBRANCH  13  14
ENDBRANCH   4  13
TORSDOF 3
ENDMDL
MODEL       81
REMARK 921   NORMALIZED FREE ENERGY PREDICTED BY IDOCK:   -4.41 KCAL/MOL
REMARK 922        TOTAL FREE ENERGY PREDICTED BY IDOCK:   -6.07 KCAL/MOL
REMARK 923 INTER-LIGAND FREE ENERGY PREDICTED BY IDOCK:   -5.10 KCAL/MOL
REMARK 924 INTRA-LIGAND FREE ENERGY PREDICTED BY IDOCK:   -0.97 KCAL/MOL
REMARK 927      BINDING AFFINITY PREDICTED BY RF-SCORE:    0.00 PKD
ROOT
HETATM    1  C   UNL     1     -10.882   3.663  73.150  1.00  0.00    -0.252 C  
HETATM    2  C   UNL     1     -10.114   4.784  72.444  1.00  0.00    -0.179 C  
HETATM    3  O   UNL     1      -9.259   4.153  71.471  1.00  0.00    -0.121 OA 
HETATM    4  C   UNL     1      -8.322   5.013  70.837  1.00  0.00    -0.112 C  
HETATM    5  H1  UNL     1      -8.009   7.661  74.568  1.00  0.00     0.000 HD 
HETATM    6  C   UNL     1      -7.452   5.737  71.865  1.00  0.00    -0.095 C  
HETATM    7  C   UNL     1      -8.298   6.557  72.839  1.00  0.00    -0.115 C  
HETATM    8  H   UNL     1      -8.345   5.457  75.156  1.00  0.00     0.000 HD 
HETATM    9  H2  UNL     1      -6.663   7.653  73.545  1.00  0.00     0.000 HD 
HETATM   10  N   UNL     1      -7.444   7.114  73.918  1.00  0.00    -0.099 NA 
HETATM   11  C   UNL     1      -9.392   5.683  73.475  1.00  0.00    -0.138 C  
HETATM   12  O   UNL     1      -8.788   4.906  74.523  1.00  0.00    -0.111 OA 
ENDROOT
BRANCH   4  13
HETATM   13  O   UNL     1      -8.923   5.950  69.945  1.00  0.00    -0.136 OA 
BRANCH  13  14
HETATM   14  C   UNL     1      -8.120   6.481  68.869  1.00  0.00    -0.115 C  
HETATM   15  C   UNL     1      -8.335   5.521  67.684  1.00  0.00    -0.100 C  
HETATM   16  C   UNL     1      -9.787   5.605  67.171  1.00  0.00    -0.149 C  
HETATM   17  C   UNL     1      -9.980   6.975  66.528  1.00  0.00    -0.163 C  
HETATM   18  O   UNL     1     -10.758   5.444  68.215  1.00  0.00    -0.134 OA 
HETATM   19  H   UNL     1     -10.401  10.429  65.347  1.00  0.00     0.000 HD 
HETATM   20  O   UNL     1     -10.279   9.548  65.680  1.00  0.00    -0.228 OA 
HETATM   21  C   UNL     1      -9.510   9.419  66.813  1.00  0.00    -0.165 A  
HETATM   22  C   UNL     1      -9.330   8.116  67.306  1.00  0.00    -0.174 A  
HETATM   23  H   UNL     1     -11.653   5.496  67.898  1.00  0.00     0.000 HD 
HETATM   24  C   UNL     1      -8.476   7.899  68.423  1.00  0.00    -0.128 A  
HETATM   25  C   UNL     1      -7.866   9.022  69.027  1.00  0.00    -0.090 A  
HETATM   26  O   UNL     1      -6.984   8.864  70.062  1.00  0.00    -0.041 OA 
HETATM   27  C   UNL     1      -8.082  10.333  68.541  1.00  0.00    -0.109 A  
HETATM   28  C   UNL     1      -7.440  11.522  69.178  1.00  0.00    -0.025 C  
HETATM   29  H   UNL     1      -6.574   9.619  70.467  1.00  0.00     0.000 HD 
HETATM   30  C   UNL     1      -7.722  12.869  68.652  1.00  0.00    -0.067 A  
HETATM   31  O   UNL     1      -6.688  11.436  70.140  1.00  0.00    -0.136 OA 
HETATM   32  C   UNL     1      -7.182  13.993  69.290  1.00  0.00    -0.016 A  
HETATM   33  C   UNL     1      -7.457  15.276  68.823  1.00  0.00    -0.135 A  
HETATM   34  C   UNL     1      -8.272  15.443  67.703  1.00  0.00    -0.171 A  
HETATM   35  C   UNL     1      -8.807  14.338  67.061  1.00  0.00    -0.243 A  
HETATM   36  C   UNL     1      -8.525  13.041  67.541  1.00  0.00    -0.190 A  
HETATM   37  C   UNL     1      -9.097  11.874  66.858  1.00  0.00    -0.196 C  
HETATM   38  C   UNL     1      -8.898  10.523  67.423  1.00  0.00    -0.132 A  
HETATM   39  O   UNL     1      -9.734  12.010  65.814  1.00  0.00    -0.240 OA 
BRANCH  16  40
HETATM   40  C   UNL     1     -10.093   4.478  66.169  1.00  0.00    -0.258 C  
HETATM   41  O   UNL     1     -10.918   4.609  65.261  1.00  0.00    -0.220 OA 
HETATM   42  C   UNL     1      -9.346   3.173  66.346  1.00  0.00    -0.114 C  
ENDBRANCH  16  40
ENDBRANCH  13  14
ENDBRANCH   4  13
TORSDOF 3
ENDMDL
MODEL       82
REMARK 921   NORMALIZED FREE ENERGY PREDICTED BY IDOCK:   -4.40 KCAL/MOL
REMARK 922        TOTAL FREE ENERGY PREDICTED BY IDOCK:   -6.06 KCAL/MOL
REMARK 923 INTER-LIGAND FREE ENERGY PREDICTED BY IDOCK:   -5.54 KCAL/MOL
REMARK 924 INTRA-LIGAND FREE ENERGY PREDICTED BY IDOCK:   -0.52 KCAL/MOL
REMARK 927      BINDING AFFINITY PREDICTED BY RF-SCORE:    0.00 PKD
ROOT
HETATM    1  C   UNL     1     -11.082  12.588  64.909  1.00  0.00    -0.336 C  
HETATM    2  C   UNL     1     -10.225  11.373  65.274  1.00  0.00    -0.270 C  
HETATM    3  O   UNL     1      -9.042  11.878  65.921  1.00  0.00    -0.186 OA 
HETATM    4  C   UNL     1      -8.027  10.915  66.171  1.00  0.00    -0.155 C  
HETATM    5  H1  UNL     1      -9.218   8.488  62.466  1.00  0.00     0.000 HD 
HETATM    6  C   UNL     1      -7.619  10.195  64.885  1.00  0.00    -0.138 C  
HETATM    7  C   UNL     1      -8.812   9.501  64.227  1.00  0.00    -0.213 C  
HETATM    8  H   UNL     1      -9.533  10.743  62.102  1.00  0.00     0.000 HD 
HETATM    9  H2  UNL     1      -7.612   8.335  62.973  1.00  0.00     0.000 HD 
HETATM   10  N   UNL     1      -8.422   8.952  62.905  1.00  0.00    -0.196 NA 
HETATM   11  C   UNL     1      -9.973  10.490  64.030  1.00  0.00    -0.297 C  
HETATM   12  O   UNL     1      -9.688  11.285  62.867  1.00  0.00    -0.339 OA 
ENDROOT
BRANCH   4  13
HETATM   13  O   UNL     1      -8.376   9.970  67.181  1.00  0.00    -0.121 OA 
BRANCH  13  14
HETATM   14  C   UNL     1      -7.316   9.219  67.810  1.00  0.00    -0.084 C  
HETATM   15  C   UNL     1      -6.277  10.266  68.252  1.00  0.00    -0.048 C  
HETATM   16  C   UNL     1      -6.846  11.159  69.374  1.00  0.00    -0.125 C  
HETATM   17  C   UNL     1      -7.004  10.299  70.624  1.00  0.00     0.126 C  
HETATM   18  O   UNL     1      -8.120  11.729  69.041  1.00  0.00    -0.345 OA 
HETATM   19  H   UNL     1      -7.671   8.029  73.436  1.00  0.00     0.000 HD 
HETATM   20  O   UNL     1      -7.514   8.595  72.689  1.00  0.00    -0.315 OA 
HETATM   21  C   UNL     1      -7.785   8.066  71.449  1.00  0.00    -0.089 A  
HETATM   22  C   UNL     1      -7.553   8.903  70.344  1.00  0.00    -0.088 A  
HETATM   23  H   UNL     1      -8.471  12.279  69.732  1.00  0.00     0.000 HD 
HETATM   24  C   UNL     1      -7.730   8.393  69.028  1.00  0.00    -0.097 A  
HETATM   25  C   UNL     1      -8.176   7.060  68.880  1.00  0.00    -0.122 A  
HETATM   26  O   UNL     1      -8.297   6.498  67.638  1.00  0.00    -0.120 OA 
HETATM   27  C   UNL     1      -8.437   6.238  70.002  1.00  0.00    -0.134 A  
HETATM   28  C   UNL     1      -8.910   4.830  69.850  1.00  0.00    -0.090 C  
HETATM   29  H   UNL     1      -8.597   5.603  67.539  1.00  0.00     0.000 HD 
HETATM   30  C   UNL     1      -9.197   4.025  71.050  1.00  0.00    -0.203 A  
HETATM   31  O   UNL     1      -9.087   4.302  68.760  1.00  0.00    -0.110 OA 
HETATM   32  C   UNL     1      -9.710   2.729  70.914  1.00  0.00    -0.135 A  
HETATM   33  C   UNL     1     -10.011   1.963  72.038  1.00  0.00    -0.220 A  
HETATM   34  C   UNL     1      -9.792   2.487  73.312  1.00  0.00    -0.160 A  
HETATM   35  C   UNL     1      -9.278   3.766  73.457  1.00  0.00    -0.105 A  
HETATM   36  C   UNL     1      -8.978   4.538  72.315  1.00  0.00    -0.141 A  
HETATM   37  C   UNL     1      -8.437   5.894  72.476  1.00  0.00    -0.116 C  
HETATM   38  C   UNL     1      -8.228   6.746  71.287  1.00  0.00    -0.119 A  
HETATM   39  O   UNL     1      -8.150   6.324  73.592  1.00  0.00    -0.109 OA 
BRANCH  16  40
HETATM   40  C   UNL     1      -5.932  12.366  69.648  1.00  0.00    -0.124 C  
HETATM   41  O   UNL     1      -5.620  13.169  68.766  1.00  0.00    -0.069 OA 
HETATM   42  C   UNL     1      -5.405  12.530  71.058  1.00  0.00    -0.151 C  
ENDBRANCH  16  40
ENDBRANCH  13  14
ENDBRANCH   4  13
TORSDOF 3
ENDMDL
MODEL       83
REMARK 921   NORMALIZED FREE ENERGY PREDICTED BY IDOCK:   -4.40 KCAL/MOL
REMARK 922        TOTAL FREE ENERGY PREDICTED BY IDOCK:   -6.06 KCAL/MOL
REMARK 923 INTER-LIGAND FREE ENERGY PREDICTED BY IDOCK:   -7.38 KCAL/MOL
REMARK 924 INTRA-LIGAND FREE ENERGY PREDICTED BY IDOCK:    1.32 KCAL/MOL
REMARK 927      BINDING AFFINITY PREDICTED BY RF-SCORE:    0.00 PKD
ROOT
HETATM    1  C   UNL     1      -6.423  11.203  69.589  1.00  0.00    -0.128 C  
HETATM    2  C   UNL     1      -6.963   9.785  69.792  1.00  0.00    -0.087 C  
HETATM    3  O   UNL     1      -8.177   9.909  70.559  1.00  0.00    -0.206 OA 
HETATM    4  C   UNL     1      -8.735   8.683  71.015  1.00  0.00    -0.186 C  
HETATM    5  H1  UNL     1      -4.591   6.742  71.319  1.00  0.00     0.000 HD 
HETATM    6  C   UNL     1      -7.717   7.879  71.825  1.00  0.00    -0.103 C  
HETATM    7  C   UNL     1      -6.461   7.579  71.007  1.00  0.00    -0.039 C  
HETATM    8  H   UNL     1      -4.480   8.988  71.826  1.00  0.00     0.000 HD 
HETATM    9  H2  UNL     1      -5.786   6.110  72.335  1.00  0.00     0.000 HD 
HETATM   10  N   UNL     1      -5.430   6.942  71.865  1.00  0.00    -0.036 NA 
HETATM   11  C   UNL     1      -5.880   8.872  70.411  1.00  0.00    -0.030 C  
HETATM   12  O   UNL     1      -5.146   9.549  71.445  1.00  0.00    -0.042 OA 
ENDROOT
BRANCH   4  13
HETATM   13  O   UNL     1      -9.282   7.884  69.969  1.00  0.00    -0.152 OA 
BRANCH  13  14
HETATM   14  C   UNL     1     -10.419   8.396  69.240  1.00  0.00    -0.215 C  
HETATM   15  C   UNL     1     -11.630   7.593  69.751  1.00  0.00     0.248 C  
HETATM   16  C   UNL     1     -11.924   7.932  71.227  1.00  0.00    -0.298 C  
HETATM   17  C   UNL     1     -12.429   9.370  71.289  1.00  0.00    -0.416 C  
HETATM   18  O   UNL     1     -10.768   7.810  72.068  1.00  0.00    -0.213 OA 
HETATM   19  H   UNL     1     -13.275  12.945  71.324  1.00  0.00     0.000 HD 
HETATM   20  O   UNL     1     -13.030  12.028  71.297  1.00  0.00    -0.334 OA 
HETATM   21  C   UNL     1     -12.030  11.684  70.417  1.00  0.00    -0.358 A  
HETATM   22  C   UNL     1     -11.667  10.327  70.376  1.00  0.00    -0.404 A  
HETATM   23  H   UNL     1     -10.950   8.019  72.978  1.00  0.00     0.000 HD 
HETATM   24  C   UNL     1     -10.702   9.887  69.429  1.00  0.00    -0.255 A  
HETATM   25  C   UNL     1     -10.108  10.849  68.582  1.00  0.00    -0.191 A  
HETATM   26  O   UNL     1      -9.224  10.470  67.607  1.00  0.00    -0.144 OA 
HETATM   27  C   UNL     1     -10.459  12.217  68.654  1.00  0.00    -0.228 A  
HETATM   28  C   UNL     1      -9.832  13.237  67.761  1.00  0.00    -0.224 C  
HETATM   29  H   UNL     1      -8.825  11.117  67.038  1.00  0.00     0.000 HD 
HETATM   30  C   UNL     1     -10.209  14.655  67.899  1.00  0.00    -0.226 A  
HETATM   31  O   UNL     1      -8.995  12.954  66.913  1.00  0.00    -0.215 OA 
HETATM   32  C   UNL     1      -9.572  15.624  67.114  1.00  0.00    -0.224 A  
HETATM   33  C   UNL     1      -9.898  16.972  67.248  1.00  0.00    -0.260 A  
HETATM   34  C   UNL     1     -10.875  17.360  68.165  1.00  0.00    -0.273 A  
HETATM   35  C   UNL     1     -11.516  16.407  68.941  1.00  0.00    -0.216 A  
HETATM   36  C   UNL     1     -11.179  15.044  68.802  1.00  0.00    -0.288 A  
HETATM   37  C   UNL     1     -11.861  14.040  69.630  1.00  0.00    -0.330 C  
HETATM   38  C   UNL     1     -11.432  12.627  69.570  1.00  0.00    -0.294 A  
HETATM   39  O   UNL     1     -12.790  14.364  70.368  1.00  0.00    -0.350 OA 
BRANCH  16  40
HETATM   40  C   UNL     1     -12.955   6.960  71.829  1.00  0.00    -0.277 C  
HETATM   41  O   UNL     1     -12.633   6.053  72.601  1.00  0.00     0.030 OA 
HETATM   42  C   UNL     1     -14.401   7.146  71.422  1.00  0.00    -0.417 C  
ENDBRANCH  16  40
ENDBRANCH  13  14
ENDBRANCH   4  13
TORSDOF 3
ENDMDL
MODEL       84
REMARK 921   NORMALIZED FREE ENERGY PREDICTED BY IDOCK:   -4.30 KCAL/MOL
REMARK 922        TOTAL FREE ENERGY PREDICTED BY IDOCK:   -5.94 KCAL/MOL
REMARK 923 INTER-LIGAND FREE ENERGY PREDICTED BY IDOCK:   -4.98 KCAL/MOL
REMARK 924 INTRA-LIGAND FREE ENERGY PREDICTED BY IDOCK:   -0.97 KCAL/MOL
REMARK 927      BINDING AFFINITY PREDICTED BY RF-SCORE:    0.00 PKD
ROOT
HETATM    1  C   UNL     1      -9.326   4.689  65.348  1.00  0.00    -0.160 C  
HETATM    2  C   UNL     1      -8.633   5.961  65.843  1.00  0.00    -0.145 C  
HETATM    3  O   UNL     1      -9.674   6.903  66.164  1.00  0.00    -0.048 OA 
HETATM    4  C   UNL     1      -9.231   8.219  66.467  1.00  0.00    -0.187 C  
HETATM    5  H1  UNL     1      -5.635   7.810  63.651  1.00  0.00     0.000 HD 
HETATM    6  C   UNL     1      -8.379   8.790  65.333  1.00  0.00    -0.159 C  
HETATM    7  C   UNL     1      -7.162   7.909  65.047  1.00  0.00    -0.062 C  
HETATM    8  H   UNL     1      -7.450   6.647  62.832  1.00  0.00     0.000 HD 
HETATM    9  H2  UNL     1      -6.194   9.383  63.922  1.00  0.00     0.000 HD 
HETATM   10  N   UNL     1      -6.447   8.398  63.841  1.00  0.00    -0.072 NA 
HETATM   11  C   UNL     1      -7.592   6.452  64.811  1.00  0.00    -0.098 C  
HETATM   12  O   UNL     1      -8.089   6.345  63.467  1.00  0.00    -0.105 OA 
ENDROOT
BRANCH   4  13
HETATM   13  O   UNL     1      -8.536   8.313  67.708  1.00  0.00    -0.129 OA 
BRANCH  13  14
HETATM   14  C   UNL     1      -8.986   9.289  68.672  1.00  0.00    -0.132 C  
HETATM   15  C   UNL     1      -8.740   8.648  70.051  1.00  0.00    -0.141 C  
HETATM   16  C   UNL     1      -7.229   8.498  70.320  1.00  0.00    -0.048 C  
HETATM   17  C   UNL     1      -6.641   9.895  70.494  1.00  0.00    -0.120 C  
HETATM   18  O   UNL     1      -6.536   7.834  69.254  1.00  0.00    -0.035 OA 
HETATM   19  H   UNL     1      -5.308  13.319  70.523  1.00  0.00     0.000 HD 
HETATM   20  O   UNL     1      -5.668  12.441  70.487  1.00  0.00    -0.158 OA 
HETATM   21  C   UNL     1      -6.655  12.218  69.555  1.00  0.00    -0.052 A  
HETATM   22  C   UNL     1      -7.188  10.919  69.503  1.00  0.00    -0.113 A  
HETATM   23  H   UNL     1      -5.604   7.741  69.420  1.00  0.00     0.000 HD 
HETATM   24  C   UNL     1      -8.271  10.640  68.623  1.00  0.00    -0.135 A  
HETATM   25  C   UNL     1      -8.749  11.681  67.797  1.00  0.00    -0.152 A  
HETATM   26  O   UNL     1      -9.831  11.486  66.982  1.00  0.00    -0.189 OA 
HETATM   27  C   UNL     1      -8.182  12.977  67.837  1.00  0.00    -0.166 A  
HETATM   28  C   UNL     1      -8.683  14.081  66.964  1.00  0.00    -0.203 C  
HETATM   29  H   UNL     1     -10.152  12.186  66.427  1.00  0.00     0.000 HD 
HETATM   30  C   UNL     1      -8.037  15.404  67.021  1.00  0.00    -0.265 A  
HETATM   31  O   UNL     1      -9.611  13.938  66.179  1.00  0.00    -0.281 OA 
HETATM   32  C   UNL     1      -8.455  16.421  66.153  1.00  0.00    -0.329 A  
HETATM   33  C   UNL     1      -7.839  17.670  66.175  1.00  0.00    -0.269 A  
HETATM   34  C   UNL     1      -6.803  17.915  67.077  1.00  0.00    -0.204 A  
HETATM   35  C   UNL     1      -6.387  16.917  67.944  1.00  0.00    -0.149 A  
HETATM   36  C   UNL     1      -7.013  15.653  67.914  1.00  0.00    -0.155 A  
HETATM   37  C   UNL     1      -6.565  14.599  68.834  1.00  0.00    -0.093 C  
HETATM   38  C   UNL     1      -7.139  13.242  68.729  1.00  0.00    -0.100 A  
HETATM   39  O   UNL     1      -5.721  14.839  69.696  1.00  0.00    -0.094 OA 
BRANCH  16  40
HETATM   40  C   UNL     1      -6.965   7.631  71.564  1.00  0.00    -0.057 C  
HETATM   41  O   UNL     1      -7.165   6.414  71.574  1.00  0.00    -0.079 OA 
HETATM   42  C   UNL     1      -6.459   8.337  72.804  1.00  0.00    -0.094 C  
ENDBRANCH  16  40
ENDBRANCH  13  14
ENDBRANCH   4  13
TORSDOF 3
ENDMDL
MODEL       85
REMARK 921   NORMALIZED FREE ENERGY PREDICTED BY IDOCK:   -4.26 KCAL/MOL
REMARK 922        TOTAL FREE ENERGY PREDICTED BY IDOCK:   -5.89 KCAL/MOL
REMARK 923 INTER-LIGAND FREE ENERGY PREDICTED BY IDOCK:   -5.28 KCAL/MOL
REMARK 924 INTRA-LIGAND FREE ENERGY PREDICTED BY IDOCK:   -0.61 KCAL/MOL
REMARK 927      BINDING AFFINITY PREDICTED BY RF-SCORE:    0.00 PKD
ROOT
HETATM    1  C   UNL     1     -10.533   2.851  63.811  1.00  0.00    -0.178 C  
HETATM    2  C   UNL     1      -9.877   3.456  65.055  1.00  0.00    -0.071 C  
HETATM    3  O   UNL     1     -10.546   4.706  65.311  1.00  0.00    -0.186 OA 
HETATM    4  C   UNL     1      -9.957   5.516  66.320  1.00  0.00    -0.140 C  
HETATM    5  H1  UNL     1      -5.765   3.931  65.345  1.00  0.00     0.000 HD 
HETATM    6  C   UNL     1      -8.485   5.795  66.015  1.00  0.00    -0.135 C  
HETATM    7  C   UNL     1      -7.683   4.500  65.885  1.00  0.00    -0.094 C  
HETATM    8  H   UNL     1      -7.055   4.056  63.438  1.00  0.00     0.000 HD 
HETATM    9  H2  UNL     1      -5.837   5.472  66.038  1.00  0.00     0.000 HD 
HETATM   10  N   UNL     1      -6.301   4.796  65.431  1.00  0.00    -0.034 NA 
HETATM   11  C   UNL     1      -8.345   3.552  64.872  1.00  0.00    -0.097 C  
HETATM   12  O   UNL     1      -7.996   3.997  63.551  1.00  0.00    -0.084 OA 
ENDROOT
BRANCH   4  13
HETATM   13  O   UNL     1     -10.100   4.981  67.634  1.00  0.00    -0.169 OA 
BRANCH  13  14
HETATM   14  C   UNL     1     -10.482   5.877  68.699  1.00  0.00    -0.240 C  
HETATM   15  C   UNL     1     -10.314   5.066  69.998  1.00  0.00    -0.303 C  
HETATM   16  C   UNL     1      -8.825   4.757  70.258  1.00  0.00    -0.101 C  
HETATM   17  C   UNL     1      -8.124   6.070  70.593  1.00  0.00    -0.116 C  
HETATM   18  O   UNL     1      -8.174   4.160  69.128  1.00  0.00    -0.069 OA 
HETATM   19  H   UNL     1      -6.506   9.341  71.019  1.00  0.00     0.000 HD 
HETATM   20  O   UNL     1      -6.939   8.507  70.882  1.00  0.00    -0.047 OA 
HETATM   21  C   UNL     1      -7.925   8.476  69.924  1.00  0.00    -0.106 A  
HETATM   22  C   UNL     1      -8.566   7.242  69.721  1.00  0.00    -0.141 A  
HETATM   23  H   UNL     1      -7.257   3.969  69.289  1.00  0.00     0.000 HD 
HETATM   24  C   UNL     1      -9.654   7.158  68.808  1.00  0.00    -0.144 A  
HETATM   25  C   UNL     1     -10.028   8.323  68.102  1.00  0.00    -0.191 A  
HETATM   26  O   UNL     1     -11.110   8.315  67.264  1.00  0.00    -0.429 OA 
HETATM   27  C   UNL     1      -9.354   9.553  68.293  1.00  0.00    -0.139 A  
HETATM   28  C   UNL     1      -9.745  10.786  67.547  1.00  0.00    -0.166 C  
HETATM   29  H   UNL     1     -11.361   9.098  66.789  1.00  0.00     0.000 HD 
HETATM   30  C   UNL     1      -8.990  12.034  67.758  1.00  0.00    -0.176 A  
HETATM   31  O   UNL     1     -10.669  10.813  66.745  1.00  0.00    -0.255 OA 
HETATM   32  C   UNL     1      -9.306  13.174  67.009  1.00  0.00    -0.238 A  
HETATM   33  C   UNL     1      -8.587  14.356  67.177  1.00  0.00    -0.237 A  
HETATM   34  C   UNL     1      -7.548  14.407  68.107  1.00  0.00    -0.128 A  
HETATM   35  C   UNL     1      -7.233  13.286  68.859  1.00  0.00    -0.054 A  
HETATM   36  C   UNL     1      -7.963  12.092  68.681  1.00  0.00    -0.082 A  
HETATM   37  C   UNL     1      -7.622  10.907  69.478  1.00  0.00    -0.050 C  
HETATM   38  C   UNL     1      -8.307   9.624  69.216  1.00  0.00    -0.137 A  
HETATM   39  O   UNL     1      -6.774  10.974  70.367  1.00  0.00    -0.263 OA 
BRANCH  16  40
HETATM   40  C   UNL     1      -8.657   3.737  71.397  1.00  0.00    -0.084 C  
HETATM   41  O   UNL     1      -8.009   2.696  71.260  1.00  0.00    -0.046 OA 
HETATM   42  C   UNL     1      -9.339   4.049  72.713  1.00  0.00    -0.150 C  
ENDBRANCH  16  40
ENDBRANCH  13  14
ENDBRANCH   4  13
TORSDOF 3
ENDMDL
MODEL       86
REMARK 921   NORMALIZED FREE ENERGY PREDICTED BY IDOCK:   -4.19 KCAL/MOL
REMARK 922        TOTAL FREE ENERGY PREDICTED BY IDOCK:   -5.81 KCAL/MOL
REMARK 923 INTER-LIGAND FREE ENERGY PREDICTED BY IDOCK:   -5.78 KCAL/MOL
REMARK 924 INTRA-LIGAND FREE ENERGY PREDICTED BY IDOCK:   -0.03 KCAL/MOL
REMARK 927      BINDING AFFINITY PREDICTED BY RF-SCORE:    0.00 PKD
ROOT
HETATM    1  C   UNL     1      -9.542   4.499  70.226  1.00  0.00    -0.263 C  
HETATM    2  C   UNL     1      -9.410   4.940  68.766  1.00  0.00    -0.135 C  
HETATM    3  O   UNL     1     -10.630   5.627  68.428  1.00  0.00    -0.208 OA 
HETATM    4  C   UNL     1     -10.782   5.954  67.052  1.00  0.00    -0.318 C  
HETATM    5  H1  UNL     1      -8.374   2.270  65.763  1.00  0.00     0.000 HD 
HETATM    6  C   UNL     1     -10.654   4.710  66.172  1.00  0.00    -0.202 C  
HETATM    7  C   UNL     1      -9.306   4.018  66.371  1.00  0.00    -0.177 C  
HETATM    8  H   UNL     1      -9.590   1.824  67.671  1.00  0.00     0.000 HD 
HETATM    9  H2  UNL     1      -9.496   2.857  64.642  1.00  0.00     0.000 HD 
HETATM   10  N   UNL     1      -9.274   2.732  65.630  1.00  0.00    -0.135 NA 
HETATM   11  C   UNL     1      -9.057   3.735  67.862  1.00  0.00    -0.152 C  
HETATM   12  O   UNL     1      -9.807   2.564  68.226  1.00  0.00     0.001 OA 
ENDROOT
BRANCH   4  13
HETATM   13  O   UNL     1      -9.890   6.973  66.608  1.00  0.00    -0.185 OA 
BRANCH  13  14
HETATM   14  C   UNL     1      -9.097   7.666  67.596  1.00  0.00    -0.129 C  
HETATM   15  C   UNL     1      -7.679   7.080  67.469  1.00  0.00    -0.111 C  
HETATM   16  C   UNL     1      -7.048   7.467  66.116  1.00  0.00    -0.070 C  
HETATM   17  C   UNL     1      -6.785   8.970  66.132  1.00  0.00    -0.070 C  
HETATM   18  O   UNL     1      -7.892   7.157  64.998  1.00  0.00    -0.111 OA 
HETATM   19  H   UNL     1      -6.553  12.637  66.176  1.00  0.00     0.000 HD 
HETATM   20  O   UNL     1      -6.644  11.691  66.175  1.00  0.00     0.100 OA 
HETATM   21  C   UNL     1      -7.779  11.182  66.762  1.00  0.00    -0.153 A  
HETATM   22  C   UNL     1      -7.914   9.783  66.761  1.00  0.00    -0.105 A  
HETATM   23  H   UNL     1      -7.503   7.396  64.164  1.00  0.00     0.000 HD 
HETATM   24  C   UNL     1      -9.018   9.184  67.428  1.00  0.00    -0.128 A  
HETATM   25  C   UNL     1      -9.971  10.029  68.039  1.00  0.00    -0.150 A  
HETATM   26  O   UNL     1     -11.015   9.505  68.751  1.00  0.00    -0.386 OA 
HETATM   27  C   UNL     1      -9.840  11.438  68.006  1.00  0.00    -0.191 A  
HETATM   28  C   UNL     1     -10.845  12.335  68.650  1.00  0.00    -0.236 C  
HETATM   29  H   UNL     1     -11.655  10.073  69.162  1.00  0.00     0.000 HD 
HETATM   30  C   UNL     1     -10.680  13.796  68.560  1.00  0.00    -0.274 A  
HETATM   31  O   UNL     1     -11.826  11.913  69.250  1.00  0.00    -0.296 OA 
HETATM   32  C   UNL     1     -11.657  14.643  69.099  1.00  0.00    -0.331 A  
HETATM   33  C   UNL     1     -11.530  16.027  69.001  1.00  0.00    -0.360 A  
HETATM   34  C   UNL     1     -10.414  16.576  68.369  1.00  0.00    -0.307 A  
HETATM   35  C   UNL     1      -9.438  15.747  67.839  1.00  0.00    -0.212 A  
HETATM   36  C   UNL     1      -9.575  14.346  67.939  1.00  0.00    -0.219 A  
HETATM   37  C   UNL     1      -8.538  13.473  67.372  1.00  0.00    -0.208 C  
HETATM   38  C   UNL     1      -8.732  12.008  67.374  1.00  0.00    -0.170 A  
HETATM   39  O   UNL     1      -7.507  13.951  66.901  1.00  0.00     0.167 OA 
BRANCH  16  40
HETATM   40  C   UNL     1      -5.748   6.684  65.860  1.00  0.00    -0.025 C  
HETATM   41  O   UNL     1      -5.155   6.726  64.779  1.00  0.00    -0.024 OA 
HETATM   42  C   UNL     1      -5.219   5.831  66.994  1.00  0.00    -0.005 C  
ENDBRANCH  16  40
ENDBRANCH  13  14
ENDBRANCH   4  13
TORSDOF 3
ENDMDL
MODEL       87
REMARK 921   NORMALIZED FREE ENERGY PREDICTED BY IDOCK:   -4.05 KCAL/MOL
REMARK 922        TOTAL FREE ENERGY PREDICTED BY IDOCK:   -5.64 KCAL/MOL
REMARK 923 INTER-LIGAND FREE ENERGY PREDICTED BY IDOCK:   -6.06 KCAL/MOL
REMARK 924 INTRA-LIGAND FREE ENERGY PREDICTED BY IDOCK:    0.41 KCAL/MOL
REMARK 927      BINDING AFFINITY PREDICTED BY RF-SCORE:    0.00 PKD
ROOT
HETATM    1  C   UNL     1      -9.752   7.936  72.971  1.00  0.00    -0.349 C  
HETATM    2  C   UNL     1      -9.853   7.183  71.642  1.00  0.00    -0.162 C  
HETATM    3  O   UNL     1     -11.255   7.083  71.326  1.00  0.00    -0.250 OA 
HETATM    4  C   UNL     1     -11.571   6.251  70.218  1.00  0.00    -0.309 C  
HETATM    5  H1  UNL     1      -7.973   3.531  71.051  1.00  0.00     0.000 HD 
HETATM    6  C   UNL     1     -11.003   4.843  70.404  1.00  0.00     0.689 C  
HETATM    7  C   UNL     1      -9.485   4.870  70.589  1.00  0.00    -0.173 C  
HETATM    8  H   UNL     1      -8.853   4.348  73.019  1.00  0.00     0.000 HD 
HETATM    9  H2  UNL     1      -9.274   2.819  70.238  1.00  0.00     0.000 HD 
HETATM   10  N   UNL     1      -8.986   3.514  70.927  1.00  0.00    -0.087 NA 
HETATM   11  C   UNL     1      -9.094   5.838  71.717  1.00  0.00    -0.142 C  
HETATM   12  O   UNL     1      -9.319   5.174  72.972  1.00  0.00    -0.132 OA 
ENDROOT
BRANCH   4  13
HETATM   13  O   UNL     1     -11.158   6.792  68.965  1.00  0.00    -0.240 OA 
BRANCH  13  14
HETATM   14  C   UNL     1      -9.972   7.614  68.933  1.00  0.00    -0.176 C  
HETATM   15  C   UNL     1      -8.936   6.808  68.127  1.00  0.00    -0.118 C  
HETATM   16  C   UNL     1      -9.370   6.685  66.651  1.00  0.00    -0.163 C  
HETATM   17  C   UNL     1      -9.279   8.070  66.018  1.00  0.00    -0.179 C  
HETATM   18  O   UNL     1     -10.710   6.195  66.503  1.00  0.00    -0.460 OA 
HETATM   19  H   UNL     1      -9.364  11.512  64.733  1.00  0.00     0.000 HD 
HETATM   20  O   UNL     1      -9.360  10.632  65.091  1.00  0.00    -0.186 OA 
HETATM   21  C   UNL     1      -9.794  10.493  66.389  1.00  0.00    -0.210 A  
HETATM   22  C   UNL     1      -9.787   9.192  66.919  1.00  0.00    -0.280 A  
HETATM   23  H   UNL     1     -10.977   6.119  65.594  1.00  0.00     0.000 HD 
HETATM   24  C   UNL     1     -10.141   8.987  68.281  1.00  0.00    -0.223 A  
HETATM   25  C   UNL     1     -10.530  10.108  69.048  1.00  0.00    -0.219 A  
HETATM   26  O   UNL     1     -10.815   9.978  70.381  1.00  0.00    -0.283 OA 
HETATM   27  C   UNL     1     -10.563  11.409  68.494  1.00  0.00    -0.225 A  
HETATM   28  C   UNL     1     -10.975  12.597  69.300  1.00  0.00    -0.066 C  
HETATM   29  H   UNL     1     -11.076  10.731  70.896  1.00  0.00     0.000 HD 
HETATM   30  C   UNL     1     -11.024  13.926  68.667  1.00  0.00    -0.281 A  
HETATM   31  O   UNL     1     -11.293  12.521  70.481  1.00  0.00     0.328 OA 
HETATM   32  C   UNL     1     -11.479  15.030  69.398  1.00  0.00    -0.320 A  
HETATM   33  C   UNL     1     -11.555  16.290  68.808  1.00  0.00    -0.223 A  
HETATM   34  C   UNL     1     -11.166  16.455  67.478  1.00  0.00    -0.019 A  
HETATM   35  C   UNL     1     -10.708  15.370  66.748  1.00  0.00    -0.310 A  
HETATM   36  C   UNL     1     -10.636  14.097  67.352  1.00  0.00    -0.279 A  
HETATM   37  C   UNL     1     -10.153  12.950  66.571  1.00  0.00    -0.261 C  
HETATM   38  C   UNL     1     -10.182  11.596  67.162  1.00  0.00    -0.240 A  
HETATM   39  O   UNL     1      -9.717  13.109  65.432  1.00  0.00    -0.151 OA 
BRANCH  16  40
HETATM   40  C   UNL     1      -8.492   5.674  65.893  1.00  0.00    -0.136 C  
HETATM   41  O   UNL     1      -7.260   5.698  65.948  1.00  0.00    -0.069 OA 
HETATM   42  C   UNL     1      -9.203   4.639  65.046  1.00  0.00    -0.152 C  
ENDBRANCH  16  40
ENDBRANCH  13  14
ENDBRANCH   4  13
TORSDOF 3
ENDMDL
MODEL       88
REMARK 921   NORMALIZED FREE ENERGY PREDICTED BY IDOCK:   -3.90 KCAL/MOL
REMARK 922        TOTAL FREE ENERGY PREDICTED BY IDOCK:   -5.47 KCAL/MOL
REMARK 923 INTER-LIGAND FREE ENERGY PREDICTED BY IDOCK:   -4.67 KCAL/MOL
REMARK 924 INTRA-LIGAND FREE ENERGY PREDICTED BY IDOCK:   -0.80 KCAL/MOL
REMARK 927      BINDING AFFINITY PREDICTED BY RF-SCORE:    0.00 PKD
ROOT
HETATM    1  C   UNL     1     -11.920  16.415  72.672  1.00  0.00    -0.595 C  
HETATM    2  C   UNL     1     -11.883  15.274  71.653  1.00  0.00    -0.388 C  
HETATM    3  O   UNL     1     -12.848  15.596  70.634  1.00  0.00    -0.463 OA 
HETATM    4  C   UNL     1     -13.101  14.565  69.688  1.00  0.00     0.715 C  
HETATM    5  H1  UNL     1     -12.267  11.305  72.805  1.00  0.00     0.000 HD 
HETATM    6  C   UNL     1     -13.528  13.271  70.383  1.00  0.00     0.952 C  
HETATM    7  C   UNL     1     -12.467  12.788  71.372  1.00  0.00    -0.121 C  
HETATM    8  H   UNL     1     -13.243  13.147  73.790  1.00  0.00     0.000 HD 
HETATM    9  H2  UNL     1     -13.297  10.876  71.535  1.00  0.00     0.000 HD 
HETATM   10  N   UNL     1     -12.975  11.627  72.144  1.00  0.00    -0.282 NA 
HETATM   11  C   UNL     1     -12.091  13.910  72.354  1.00  0.00     0.547 C  
HETATM   12  O   UNL     1     -13.115  13.984  73.360  1.00  0.00    -0.500 OA 
ENDROOT
BRANCH   4  13
HETATM   13  O   UNL     1     -12.007  14.320  68.808  1.00  0.00    -0.325 OA 
BRANCH  13  14
HETATM   14  C   UNL     1     -12.236  13.495  67.645  1.00  0.00    -0.175 C  
HETATM   15  C   UNL     1     -12.201  14.458  66.444  1.00  0.00    -0.363 C  
HETATM   16  C   UNL     1     -10.782  15.031  66.247  1.00  0.00    -0.322 C  
HETATM   17  C   UNL     1      -9.876  13.894  65.787  1.00  0.00    -0.262 C  
HETATM   18  O   UNL     1     -10.238  15.600  67.447  1.00  0.00    -0.255 OA 
HETATM   19  H   UNL     1      -7.744  10.994  65.043  1.00  0.00     0.000 HD 
HETATM   20  O   UNL     1      -8.308  11.727  65.261  1.00  0.00     0.489 OA 
HETATM   21  C   UNL     1      -9.287  11.494  66.198  1.00  0.00    -0.215 A  
HETATM   22  C   UNL     1     -10.121  12.578  66.520  1.00  0.00    -0.250 A  
HETATM   23  H   UNL     1      -9.364  15.953  67.325  1.00  0.00     0.000 HD 
HETATM   24  C   UNL     1     -11.210  12.385  67.415  1.00  0.00    -0.351 A  
HETATM   25  C   UNL     1     -11.389  11.105  67.985  1.00  0.00    -0.312 A  
HETATM   26  O   UNL     1     -12.459  10.846  68.799  1.00  0.00    -0.767 OA 
HETATM   27  C   UNL     1     -10.524  10.029  67.677  1.00  0.00    -0.297 A  
HETATM   28  C   UNL     1     -10.709   8.674  68.278  1.00  0.00    -0.052 C  
HETATM   29  H   UNL     1     -12.580   9.986  69.182  1.00  0.00     0.000 HD 
HETATM   30  C   UNL     1      -9.761   7.596  67.949  1.00  0.00    -0.174 A  
HETATM   31  O   UNL     1     -11.618   8.411  69.055  1.00  0.00     0.656 OA 
HETATM   32  C   UNL     1      -9.887   6.345  68.566  1.00  0.00    -0.145 A  
HETATM   33  C   UNL     1      -8.985   5.321  68.286  1.00  0.00    -0.116 A  
HETATM   34  C   UNL     1      -7.950   5.540  67.375  1.00  0.00    -0.101 A  
HETATM   35  C   UNL     1      -7.821   6.773  66.755  1.00  0.00    -0.107 A  
HETATM   36  C   UNL     1      -8.737   7.806  67.045  1.00  0.00    -0.131 A  
HETATM   37  C   UNL     1      -8.592   9.110  66.386  1.00  0.00    -0.125 C  
HETATM   38  C   UNL     1      -9.478  10.229  66.771  1.00  0.00    -0.198 A  
HETATM   39  O   UNL     1      -7.744   9.278  65.512  1.00  0.00    -0.093 OA 
BRANCH  16  40
HETATM   40  C   UNL     1     -10.781  16.184  65.227  1.00  0.00    -0.368 C  
HETATM   41  O   UNL     1     -10.228  17.263  65.452  1.00  0.00    -0.604 OA 
HETATM   42  C   UNL     1     -11.508  15.951  63.919  1.00  0.00     0.423 C  
ENDBRANCH  16  40
ENDBRANCH  13  14
ENDBRANCH   4  13
TORSDOF 3
ENDMDL
MODEL       89
REMARK 921   NORMALIZED FREE ENERGY PREDICTED BY IDOCK:   -3.86 KCAL/MOL
REMARK 922        TOTAL FREE ENERGY PREDICTED BY IDOCK:   -5.43 KCAL/MOL
REMARK 923 INTER-LIGAND FREE ENERGY PREDICTED BY IDOCK:   -7.93 KCAL/MOL
REMARK 924 INTRA-LIGAND FREE ENERGY PREDICTED BY IDOCK:    2.50 KCAL/MOL
REMARK 927      BINDING AFFINITY PREDICTED BY RF-SCORE:    0.00 PKD
ROOT
HETATM    1  C   UNL     1      -6.718  10.613  70.291  1.00  0.00    -0.099 C  
HETATM    2  C   UNL     1      -7.411  11.777  69.577  1.00  0.00     0.238 C  
HETATM    3  O   UNL     1      -7.844  11.280  68.297  1.00  0.00    -0.115 OA 
HETATM    4  C   UNL     1      -8.348  12.264  67.402  1.00  0.00    -0.177 C  
HETATM    5  H1  UNL     1      -5.581  15.477  69.149  1.00  0.00     0.000 HD 
HETATM    6  C   UNL     1      -7.329  13.382  67.180  1.00  0.00     0.098 C  
HETATM    7  C   UNL     1      -6.943  14.059  68.496  1.00  0.00    -0.103 C  
HETATM    8  H   UNL     1      -4.560  13.409  69.190  1.00  0.00     0.000 HD 
HETATM    9  H2  UNL     1      -6.069  15.705  67.546  1.00  0.00     0.000 HD 
HETATM   10  N   UNL     1      -5.838  15.025  68.271  1.00  0.00    -0.110 NA 
HETATM   11  C   UNL     1      -6.485  13.015  69.528  1.00  0.00    -0.075 C  
HETATM   12  O   UNL     1      -5.129  12.649  69.221  1.00  0.00    -0.068 OA 
ENDROOT
BRANCH   4  13
HETATM   13  O   UNL     1      -9.604  12.806  67.802  1.00  0.00    -0.192 OA 
BRANCH  13  14
HETATM   14  C   UNL     1     -10.765  11.949  67.758  1.00  0.00    -0.207 C  
HETATM   15  C   UNL     1     -11.287  12.040  66.312  1.00  0.00    -0.415 C  
HETATM   16  C   UNL     1     -10.286  11.399  65.329  1.00  0.00    -0.282 C  
HETATM   17  C   UNL     1     -10.275   9.895  65.583  1.00  0.00    -0.229 C  
HETATM   18  O   UNL     1      -8.952  11.905  65.482  1.00  0.00    -0.420 OA 
HETATM   19  H   UNL     1     -10.082   6.356  66.552  1.00  0.00     0.000 HD 
HETATM   20  O   UNL     1     -10.128   7.279  66.333  1.00  0.00    -0.131 OA 
HETATM   21  C   UNL     1     -10.238   8.157  67.386  1.00  0.00    -0.258 A  
HETATM   22  C   UNL     1     -10.307   9.522  67.063  1.00  0.00    -0.319 A  
HETATM   23  H   UNL     1      -8.335  11.510  64.877  1.00  0.00     0.000 HD 
HETATM   24  C   UNL     1     -10.509  10.480  68.095  1.00  0.00    -0.217 A  
HETATM   25  C   UNL     1     -10.594  10.019  69.428  1.00  0.00    -0.233 A  
HETATM   26  O   UNL     1     -10.856  10.889  70.452  1.00  0.00    -0.436 OA 
HETATM   27  C   UNL     1     -10.493   8.643  69.745  1.00  0.00    -0.220 A  
HETATM   28  C   UNL     1     -10.581   8.152  71.152  1.00  0.00    -0.204 C  
HETATM   29  H   UNL     1     -10.914  10.579  71.348  1.00  0.00     0.000 HD 
HETATM   30  C   UNL     1     -10.437   6.713  71.431  1.00  0.00    -0.241 A  
HETATM   31  O   UNL     1     -10.758   8.899  72.107  1.00  0.00    -0.342 OA 
HETATM   32  C   UNL     1     -10.447   6.256  72.755  1.00  0.00    -0.236 A  
HETATM   33  C   UNL     1     -10.287   4.902  73.039  1.00  0.00    -0.234 A  
HETATM   34  C   UNL     1     -10.125   3.990  71.995  1.00  0.00    -0.227 A  
HETATM   35  C   UNL     1     -10.121   4.432  70.682  1.00  0.00    -0.191 A  
HETATM   36  C   UNL     1     -10.280   5.805  70.402  1.00  0.00    -0.288 A  
HETATM   37  C   UNL     1     -10.272   6.267  69.007  1.00  0.00    -0.184 C  
HETATM   38  C   UNL     1     -10.325   7.715  68.714  1.00  0.00    -0.218 A  
HETATM   39  O   UNL     1     -10.228   5.459  68.081  1.00  0.00    -0.176 OA 
BRANCH  16  40
HETATM   40  C   UNL     1     -10.660  11.708  63.868  1.00  0.00    -0.391 C  
HETATM   41  O   UNL     1      -9.823  11.723  62.962  1.00  0.00    -0.398 OA 
HETATM   42  C   UNL     1     -12.114  12.015  63.576  1.00  0.00    -0.628 C  
ENDBRANCH  16  40
ENDBRANCH  13  14
ENDBRANCH   4  13
TORSDOF 3
ENDMDL
MODEL       90
REMARK 921   NORMALIZED FREE ENERGY PREDICTED BY IDOCK:   -3.63 KCAL/MOL
REMARK 922        TOTAL FREE ENERGY PREDICTED BY IDOCK:   -5.15 KCAL/MOL
REMARK 923 INTER-LIGAND FREE ENERGY PREDICTED BY IDOCK:   -5.48 KCAL/MOL
REMARK 924 INTRA-LIGAND FREE ENERGY PREDICTED BY IDOCK:    0.33 KCAL/MOL
REMARK 927      BINDING AFFINITY PREDICTED BY RF-SCORE:    0.00 PKD
ROOT
HETATM    1  C   UNL     1      -6.778   5.189  66.787  1.00  0.00    -0.061 C  
HETATM    2  C   UNL     1      -7.007   6.650  66.392  1.00  0.00    -0.062 C  
HETATM    3  O   UNL     1      -8.283   7.034  66.939  1.00  0.00    -0.114 OA 
HETATM    4  C   UNL     1      -8.766   8.304  66.523  1.00  0.00    -0.141 C  
HETATM    5  H1  UNL     1      -6.680   7.923  62.456  1.00  0.00     0.000 HD 
HETATM    6  C   UNL     1      -8.833   8.397  64.998  1.00  0.00    -0.028 C  
HETATM    7  C   UNL     1      -7.465   8.151  64.359  1.00  0.00    -0.103 C  
HETATM    8  H   UNL     1      -7.396   5.863  63.203  1.00  0.00     0.000 HD 
HETATM    9  H2  UNL     1      -8.047   8.918  62.502  1.00  0.00     0.000 HD 
HETATM   10  N   UNL     1      -7.593   8.087  62.882  1.00  0.00    -0.120 NA 
HETATM   11  C   UNL     1      -6.862   6.830  64.862  1.00  0.00    -0.050 C  
HETATM   12  O   UNL     1      -7.485   5.753  64.142  1.00  0.00    -0.062 OA 
ENDROOT
BRANCH   4  13
HETATM   13  O   UNL     1      -8.022   9.398  67.056  1.00  0.00    -0.101 OA 
BRANCH  13  14
HETATM   14  C   UNL     1      -8.056   9.617  68.482  1.00  0.00    -0.104 C  
HETATM   15  C   UNL     1      -8.515  11.077  68.662  1.00  0.00    -0.157 C  
HETATM   16  C   UNL     1      -9.977  11.249  68.201  1.00  0.00    -0.181 C  
HETATM   17  C   UNL     1     -10.871  10.497  69.182  1.00  0.00    -0.277 C  
HETATM   18  O   UNL     1     -10.209  10.740  66.880  1.00  0.00    -0.210 OA 
HETATM   19  H   UNL     1     -12.857   8.348  71.405  1.00  0.00     0.000 HD 
HETATM   20  O   UNL     1     -12.323   8.879  70.826  1.00  0.00    -0.162 OA 
HETATM   21  C   UNL     1     -11.102   8.358  70.465  1.00  0.00    -0.252 A  
HETATM   22  C   UNL     1     -10.312   9.142  69.608  1.00  0.00    -0.226 A  
HETATM   23  H   UNL     1     -11.110  10.847  66.596  1.00  0.00     0.000 HD 
HETATM   24  C   UNL     1      -9.002   8.705  69.264  1.00  0.00    -0.145 A  
HETATM   25  C   UNL     1      -8.556   7.464  69.771  1.00  0.00    -0.140 A  
HETATM   26  O   UNL     1      -7.281   7.028  69.527  1.00  0.00    -0.076 OA 
HETATM   27  C   UNL     1      -9.373   6.669  70.608  1.00  0.00    -0.164 A  
HETATM   28  C   UNL     1      -8.906   5.356  71.145  1.00  0.00    -0.136 C  
HETATM   29  H   UNL     1      -6.981   6.195  69.868  1.00  0.00     0.000 HD 
HETATM   30  C   UNL     1      -9.808   4.551  71.986  1.00  0.00    -0.240 A  
HETATM   31  O   UNL     1      -7.795   4.898  70.907  1.00  0.00    -0.079 OA 
HETATM   32  C   UNL     1      -9.401   3.287  72.432  1.00  0.00    -0.162 A  
HETATM   33  C   UNL     1     -10.250   2.500  73.207  1.00  0.00    -0.203 A  
HETATM   34  C   UNL     1     -11.515   2.980  73.552  1.00  0.00    -0.176 A  
HETATM   35  C   UNL     1     -11.924   4.232  73.121  1.00  0.00     0.141 A  
HETATM   36  C   UNL     1     -11.059   5.022  72.333  1.00  0.00    -0.161 A  
HETATM   37  C   UNL     1     -11.500   6.347  71.878  1.00  0.00    -0.304 C  
HETATM   38  C   UNL     1     -10.645   7.129  70.961  1.00  0.00    -0.239 A  
HETATM   39  O   UNL     1     -12.572   6.814  72.259  1.00  0.00    -0.167 OA 
BRANCH  16  40
HETATM   40  C   UNL     1     -10.369  12.736  68.127  1.00  0.00    -0.239 C  
HETATM   41  O   UNL     1      -9.532  13.633  68.001  1.00  0.00    -0.196 OA 
HETATM   42  C   UNL     1     -11.842  13.069  68.233  1.00  0.00    -0.381 C  
ENDBRANCH  16  40
ENDBRANCH  13  14
ENDBRANCH   4  13
TORSDOF 3
ENDMDL
MODEL       91
REMARK 921   NORMALIZED FREE ENERGY PREDICTED BY IDOCK:   -3.62 KCAL/MOL
REMARK 922        TOTAL FREE ENERGY PREDICTED BY IDOCK:   -5.14 KCAL/MOL
REMARK 923 INTER-LIGAND FREE ENERGY PREDICTED BY IDOCK:   -4.85 KCAL/MOL
REMARK 924 INTRA-LIGAND FREE ENERGY PREDICTED BY IDOCK:   -0.29 KCAL/MOL
REMARK 927      BINDING AFFINITY PREDICTED BY RF-SCORE:    0.00 PKD
ROOT
HETATM    1  C   UNL     1     -11.037   8.525  72.081  1.00  0.00    -0.436 C  
HETATM    2  C   UNL     1     -10.307   9.349  71.017  1.00  0.00    -0.312 C  
HETATM    3  O   UNL     1     -11.235   9.541  69.932  1.00  0.00    -0.234 OA 
HETATM    4  C   UNL     1     -10.685  10.126  68.758  1.00  0.00    -0.220 C  
HETATM    5  H1  UNL     1      -6.588   8.228  69.558  1.00  0.00     0.000 HD 
HETATM    6  C   UNL     1      -9.487   9.323  68.250  1.00  0.00    -0.148 C  
HETATM    7  C   UNL     1      -8.392   9.215  69.311  1.00  0.00    -0.123 C  
HETATM    8  H   UNL     1      -8.285   6.840  70.273  1.00  0.00     0.000 HD 
HETATM    9  H2  UNL     1      -6.945   8.578  67.942  1.00  0.00     0.000 HD 
HETATM   10  N   UNL     1      -7.319   8.300  68.849  1.00  0.00    -0.088 NA 
HETATM   11  C   UNL     1      -8.968   8.678  70.631  1.00  0.00    -0.171 C  
HETATM   12  O   UNL     1      -9.107   7.252  70.510  1.00  0.00    -0.156 OA 
ENDROOT
BRANCH   4  13
HETATM   13  O   UNL     1     -10.333  11.498  68.919  1.00  0.00    -0.209 OA 
BRANCH  13  14
HETATM   14  C   UNL     1     -11.248  12.501  68.426  1.00  0.00    -0.272 C  
HETATM   15  C   UNL     1     -12.538  12.319  69.248  1.00  0.00     0.530 C  
HETATM   16  C   UNL     1     -12.301  12.694  70.725  1.00  0.00    -0.283 C  
HETATM   17  C   UNL     1     -12.072  14.200  70.797  1.00  0.00    -0.419 C  
HETATM   18  O   UNL     1     -11.167  12.025  71.295  1.00  0.00     1.459 OA 
HETATM   19  H   UNL     1     -11.177  17.764  70.770  1.00  0.00     0.000 HD 
HETATM   20  O   UNL     1     -11.386  16.838  70.753  1.00  0.00    -0.101 OA 
HETATM   21  C   UNL     1     -10.881  16.112  69.700  1.00  0.00    -0.338 A  
HETATM   22  C   UNL     1     -11.191  14.742  69.674  1.00  0.00    -0.305 A  
HETATM   23  H   UNL     1     -11.021  12.257  72.206  1.00  0.00     0.000 HD 
HETATM   24  C   UNL     1     -10.775  13.948  68.569  1.00  0.00    -0.268 A  
HETATM   25  C   UNL     1     -10.021  14.567  67.547  1.00  0.00    -0.224 A  
HETATM   26  O   UNL     1      -9.653  13.867  66.430  1.00  0.00    -0.279 OA 
HETATM   27  C   UNL     1      -9.688  15.941  67.600  1.00  0.00    -0.223 A  
HETATM   28  C   UNL     1      -8.891  16.598  66.522  1.00  0.00    -0.279 C  
HETATM   29  H   UNL     1      -9.147  14.283  65.742  1.00  0.00     0.000 HD 
HETATM   30  C   UNL     1      -8.544  18.025  66.641  1.00  0.00    -0.281 A  
HETATM   31  O   UNL     1      -8.491  16.000  65.531  1.00  0.00     0.254 OA 
HETATM   32  C   UNL     1      -7.735  18.629  65.669  1.00  0.00     0.146 A  
HETATM   33  C   UNL     1      -7.376  19.970  65.778  1.00  0.00    -0.321 A  
HETATM   34  C   UNL     1      -7.833  20.723  66.860  1.00  0.00    -0.200 A  
HETATM   35  C   UNL     1      -8.640  20.137  67.823  1.00  0.00    -0.318 A  
HETATM   36  C   UNL     1      -8.997  18.777  67.708  1.00  0.00    -0.308 A  
HETATM   37  C   UNL     1      -9.849  18.161  68.733  1.00  0.00    -0.350 C  
HETATM   38  C   UNL     1     -10.133  16.712  68.678  1.00  0.00    -0.270 A  
HETATM   39  O   UNL     1     -10.335  18.843  69.634  1.00  0.00     0.168 OA 
BRANCH  16  40
HETATM   40  C   UNL     1     -13.491  12.275  71.606  1.00  0.00    -0.005 C  
HETATM   41  O   UNL     1     -14.213  13.098  72.174  1.00  0.00    -0.303 OA 
HETATM   42  C   UNL     1     -13.743  10.791  71.770  1.00  0.00     0.036 C  
ENDBRANCH  16  40
ENDBRANCH  13  14
ENDBRANCH   4  13
TORSDOF 3
ENDMDL
MODEL       92
REMARK 921   NORMALIZED FREE ENERGY PREDICTED BY IDOCK:   -3.60 KCAL/MOL
REMARK 922        TOTAL FREE ENERGY PREDICTED BY IDOCK:   -5.12 KCAL/MOL
REMARK 923 INTER-LIGAND FREE ENERGY PREDICTED BY IDOCK:   -4.24 KCAL/MOL
REMARK 924 INTRA-LIGAND FREE ENERGY PREDICTED BY IDOCK:   -0.88 KCAL/MOL
REMARK 927      BINDING AFFINITY PREDICTED BY RF-SCORE:    0.00 PKD
ROOT
HETATM    1  C   UNL     1      -9.442   7.426  69.780  1.00  0.00    -0.159 C  
HETATM    2  C   UNL     1     -10.184   8.737  69.509  1.00  0.00    -0.208 C  
HETATM    3  O   UNL     1      -9.269   9.805  69.822  1.00  0.00    -0.198 OA 
HETATM    4  C   UNL     1      -9.833  11.110  69.814  1.00  0.00     0.640 C  
HETATM    5  H1  UNL     1     -13.921   9.509  71.138  1.00  0.00     0.000 HD 
HETATM    6  C   UNL     1     -11.037  11.198  70.752  1.00  0.00     0.793 C  
HETATM    7  C   UNL     1     -12.120  10.187  70.373  1.00  0.00    -0.246 C  
HETATM    8  H   UNL     1     -12.217   8.271  72.076  1.00  0.00     0.000 HD 
HETATM    9  H2  UNL     1     -13.584  11.116  71.542  1.00  0.00     0.000 HD 
HETATM   10  N   UNL     1     -13.199  10.184  71.392  1.00  0.00    -0.386 NA 
HETATM   11  C   UNL     1     -11.528   8.771  70.273  1.00  0.00    -0.089 C  
HETATM   12  O   UNL     1     -11.391   8.250  71.606  1.00  0.00    -0.249 OA 
ENDROOT
BRANCH   4  13
HETATM   13  O   UNL     1     -10.183  11.570  68.511  1.00  0.00    -0.201 OA 
BRANCH  13  14
HETATM   14  C   UNL     1      -9.200  12.319  67.763  1.00  0.00    -0.191 C  
HETATM   15  C   UNL     1      -8.933  11.491  66.492  1.00  0.00    -0.190 C  
HETATM   16  C   UNL     1     -10.181  11.466  65.586  1.00  0.00    -0.251 C  
HETATM   17  C   UNL     1     -10.387  12.871  65.030  1.00  0.00    -0.334 C  
HETATM   18  O   UNL     1     -11.369  11.066  66.284  1.00  0.00    -0.141 OA 
HETATM   19  H   UNL     1     -10.967  16.369  64.066  1.00  0.00     0.000 HD 
HETATM   20  O   UNL     1     -10.814  15.475  64.347  1.00  0.00    -0.256 OA 
HETATM   21  C   UNL     1     -10.381  15.301  65.640  1.00  0.00    -0.366 A  
HETATM   22  C   UNL     1     -10.154  13.977  66.055  1.00  0.00    -0.327 A  
HETATM   23  H   UNL     1     -12.138  11.050  65.725  1.00  0.00     0.000 HD 
HETATM   24  C   UNL     1      -9.623  13.729  67.351  1.00  0.00    -0.229 A  
HETATM   25  C   UNL     1      -9.378  14.833  68.198  1.00  0.00    -0.197 A  
HETATM   26  O   UNL     1      -8.804  14.657  69.428  1.00  0.00    -0.394 OA 
HETATM   27  C   UNL     1      -9.640  16.160  67.779  1.00  0.00    -0.223 A  
HETATM   28  C   UNL     1      -9.384  17.330  68.671  1.00  0.00    -0.267 C  
HETATM   29  H   UNL     1      -8.639  15.399  69.996  1.00  0.00     0.000 HD 
HETATM   30  C   UNL     1      -9.704  18.688  68.199  1.00  0.00    -0.372 A  
HETATM   31  O   UNL     1      -8.925  17.217  69.801  1.00  0.00     0.591 OA 
HETATM   32  C   UNL     1      -9.534  19.782  69.058  1.00  0.00    -0.261 A  
HETATM   33  C   UNL     1      -9.855  21.071  68.638  1.00  0.00     0.777 A  
HETATM   34  C   UNL     1     -10.341  21.276  67.346  1.00  0.00     1.161 A  
HETATM   35  C   UNL     1     -10.507  20.201  66.487  1.00  0.00    -0.438 A  
HETATM   36  C   UNL     1     -10.182  18.898  66.921  1.00  0.00    -0.443 A  
HETATM   37  C   UNL     1     -10.363  17.763  66.006  1.00  0.00    -0.304 C  
HETATM   38  C   UNL     1     -10.132  16.387  66.491  1.00  0.00    -0.304 A  
HETATM   39  O   UNL     1     -10.698  17.949  64.837  1.00  0.00    -0.574 OA 
BRANCH  16  40
HETATM   40  C   UNL     1     -10.026  10.440  64.449  1.00  0.00    -0.318 C  
HETATM   41  O   UNL     1      -9.653   9.282  64.651  1.00  0.00    -0.001 OA 
HETATM   42  C   UNL     1     -10.337  10.913  63.044  1.00  0.00    -0.084 C  
ENDBRANCH  16  40
ENDBRANCH  13  14
ENDBRANCH   4  13
TORSDOF 3
ENDMDL
MODEL       93
REMARK 921   NORMALIZED FREE ENERGY PREDICTED BY IDOCK:   -3.59 KCAL/MOL
REMARK 922        TOTAL FREE ENERGY PREDICTED BY IDOCK:   -5.10 KCAL/MOL
REMARK 923 INTER-LIGAND FREE ENERGY PREDICTED BY IDOCK:   -7.60 KCAL/MOL
REMARK 924 INTRA-LIGAND FREE ENERGY PREDICTED BY IDOCK:    2.50 KCAL/MOL
REMARK 927      BINDING AFFINITY PREDICTED BY RF-SCORE:    0.00 PKD
ROOT
HETATM    1  C   UNL     1      -6.677  13.597  69.599  1.00  0.00     0.011 C  
HETATM    2  C   UNL     1      -7.946  14.341  69.174  1.00  0.00     0.046 C  
HETATM    3  O   UNL     1      -8.384  13.743  67.939  1.00  0.00    -0.147 OA 
HETATM    4  C   UNL     1      -9.448  14.418  67.280  1.00  0.00    -0.215 C  
HETATM    5  H1  UNL     1      -8.062  18.480  68.898  1.00  0.00     0.000 HD 
HETATM    6  C   UNL     1      -9.097  15.885  67.024  1.00  0.00    -0.236 C  
HETATM    7  C   UNL     1      -8.771  16.620  68.324  1.00  0.00    -0.216 C  
HETATM    8  H   UNL     1      -6.258  17.102  68.494  1.00  0.00     0.000 HD 
HETATM    9  H2  UNL     1      -8.935  18.513  67.450  1.00  0.00     0.000 HD 
HETATM   10  N   UNL     1      -8.280  17.989  68.030  1.00  0.00    -0.252 NA 
HETATM   11  C   UNL     1      -7.691  15.865  69.117  1.00  0.00    -0.220 C  
HETATM   12  O   UNL     1      -6.415  16.166  68.529  1.00  0.00    -0.112 OA 
ENDROOT
BRANCH   4  13
HETATM   13  O   UNL     1     -10.695  14.317  67.964  1.00  0.00    -0.233 OA 
BRANCH  13  14
HETATM   14  C   UNL     1     -11.474  13.114  67.792  1.00  0.00    -0.313 C  
HETATM   15  C   UNL     1     -12.332  13.356  66.536  1.00  0.00    -0.354 C  
HETATM   16  C   UNL     1     -11.444  13.435  65.276  1.00  0.00    -0.298 C  
HETATM   17  C   UNL     1     -10.867  12.047  65.021  1.00  0.00    -0.351 C  
HETATM   18  O   UNL     1     -10.363  14.368  65.413  1.00  0.00    -0.332 OA 
HETATM   19  H   UNL     1      -9.265   8.751  64.745  1.00  0.00     0.000 HD 
HETATM   20  O   UNL     1      -9.671   9.604  64.848  1.00  0.00    -0.267 OA 
HETATM   21  C   UNL     1      -9.810  10.067  66.135  1.00  0.00    -0.246 A  
HETATM   22  C   UNL     1     -10.410  11.328  66.288  1.00  0.00    -0.294 A  
HETATM   23  H   UNL     1      -9.817  14.416  64.637  1.00  0.00     0.000 HD 
HETATM   24  C   UNL     1     -10.665  11.831  67.594  1.00  0.00    -0.254 A  
HETATM   25  C   UNL     1     -10.264  11.052  68.702  1.00  0.00    -0.199 A  
HETATM   26  O   UNL     1     -10.545  11.456  69.979  1.00  0.00    -0.363 OA 
HETATM   27  C   UNL     1      -9.632   9.797  68.534  1.00  0.00    -0.155 A  
HETATM   28  C   UNL     1      -9.205   8.970  69.703  1.00  0.00    -0.159 C  
HETATM   29  H   UNL     1     -10.276  10.932  70.723  1.00  0.00     0.000 HD 
HETATM   30  C   UNL     1      -8.522   7.685  69.474  1.00  0.00    -0.132 A  
HETATM   31  O   UNL     1      -9.385   9.317  70.863  1.00  0.00    -0.251 OA 
HETATM   32  C   UNL     1      -8.055   6.941  70.565  1.00  0.00    -0.115 A  
HETATM   33  C   UNL     1      -7.385   5.735  70.367  1.00  0.00    -0.080 A  
HETATM   34  C   UNL     1      -7.185   5.260  69.070  1.00  0.00    -0.061 A  
HETATM   35  C   UNL     1      -7.650   5.986  67.985  1.00  0.00    -0.093 A  
HETATM   36  C   UNL     1      -8.325   7.207  68.193  1.00  0.00    -0.124 A  
HETATM   37  C   UNL     1      -8.812   7.973  67.038  1.00  0.00    -0.133 C  
HETATM   38  C   UNL     1      -9.418   9.305  67.244  1.00  0.00    -0.181 A  
HETATM   39  O   UNL     1      -8.725   7.512  65.901  1.00  0.00    -0.157 OA 
BRANCH  16  40
HETATM   40  C   UNL     1     -12.244  13.932  64.059  1.00  0.00    -0.369 C  
HETATM   41  O   UNL     1     -12.651  15.092  63.966  1.00  0.00    -0.791 OA 
HETATM   42  C   UNL     1     -12.533  12.926  62.964  1.00  0.00     0.045 C  
ENDBRANCH  16  40
ENDBRANCH  13  14
ENDBRANCH   4  13
TORSDOF 3
ENDMDL
MODEL       94
REMARK 921   NORMALIZED FREE ENERGY PREDICTED BY IDOCK:   -3.56 KCAL/MOL
REMARK 922        TOTAL FREE ENERGY PREDICTED BY IDOCK:   -5.07 KCAL/MOL
REMARK 923 INTER-LIGAND FREE ENERGY PREDICTED BY IDOCK:   -4.39 KCAL/MOL
REMARK 924 INTRA-LIGAND FREE ENERGY PREDICTED BY IDOCK:   -0.68 KCAL/MOL
REMARK 927      BINDING AFFINITY PREDICTED BY RF-SCORE:    0.00 PKD
ROOT
HETATM    1  C   UNL     1     -11.537  11.732  63.428  1.00  0.00    -0.419 C  
HETATM    2  C   UNL     1     -10.827  12.241  64.685  1.00  0.00    -0.308 C  
HETATM    3  O   UNL     1     -10.212  11.096  65.307  1.00  0.00    -0.253 OA 
HETATM    4  C   UNL     1      -9.657  11.329  66.595  1.00  0.00    -0.195 C  
HETATM    5  H1  UNL     1     -12.792  14.545  67.522  1.00  0.00     0.000 HD 
HETATM    6  C   UNL     1     -10.701  11.910  67.550  1.00  0.00    -0.263 C  
HETATM    7  C   UNL     1     -11.283  13.219  67.016  1.00  0.00    -0.292 C  
HETATM    8  H   UNL     1     -13.694  12.881  66.205  1.00  0.00     0.000 HD 
HETATM    9  H2  UNL     1     -12.123  13.750  68.856  1.00  0.00     0.000 HD 
HETATM   10  N   UNL     1     -12.403  13.672  67.879  1.00  0.00    -0.123 NA 
HETATM   11  C   UNL     1     -11.807  13.034  65.582  1.00  0.00    -0.399 C  
HETATM   12  O   UNL     1     -13.092  12.395  65.655  1.00  0.00     0.201 OA 
ENDROOT
BRANCH   4  13
HETATM   13  O   UNL     1      -8.492  12.150  66.572  1.00  0.00    -0.139 OA 
BRANCH  13  14
HETATM   14  C   UNL     1      -7.206  11.508  66.432  1.00  0.00     0.064 C  
HETATM   15  C   UNL     1      -6.263  12.266  67.385  1.00  0.00    -0.153 C  
HETATM   16  C   UNL     1      -6.665  12.025  68.855  1.00  0.00    -0.093 C  
HETATM   17  C   UNL     1      -6.373  10.566  69.190  1.00  0.00    -0.051 C  
HETATM   18  O   UNL     1      -8.054  12.288  69.104  1.00  0.00    -0.336 OA 
HETATM   19  H   UNL     1      -5.962   6.956  69.737  1.00  0.00     0.000 HD 
HETATM   20  O   UNL     1      -6.085   7.883  69.568  1.00  0.00    -0.032 OA 
HETATM   21  C   UNL     1      -6.572   8.222  68.328  1.00  0.00    -0.060 A  
HETATM   22  C   UNL     1      -6.754   9.593  68.077  1.00  0.00    -0.062 A  
HETATM   23  H   UNL     1      -8.301  12.140  70.009  1.00  0.00     0.000 HD 
HETATM   24  C   UNL     1      -7.172  10.021  66.787  1.00  0.00    -0.091 A  
HETATM   25  C   UNL     1      -7.431   9.038  65.806  1.00  0.00    -0.090 A  
HETATM   26  O   UNL     1      -7.770   9.397  64.529  1.00  0.00    -0.110 OA 
HETATM   27  C   UNL     1      -7.275   7.659  66.080  1.00  0.00    -0.070 A  
HETATM   28  C   UNL     1      -7.549   6.616  65.047  1.00  0.00    -0.099 C  
HETATM   29  H   UNL     1      -7.944   8.737  63.870  1.00  0.00     0.000 HD 
HETATM   30  C   UNL     1      -7.402   5.192  65.393  1.00  0.00    -0.072 A  
HETATM   31  O   UNL     1      -7.909   6.887  63.908  1.00  0.00    -0.118 OA 
HETATM   32  C   UNL     1      -7.727   4.209  64.451  1.00  0.00    -0.084 A  
HETATM   33  C   UNL     1      -7.618   2.857  64.768  1.00  0.00    -0.076 A  
HETATM   34  C   UNL     1      -7.171   2.478  66.035  1.00  0.00    -0.065 A  
HETATM   35  C   UNL     1      -6.840   3.443  66.972  1.00  0.00    -0.050 A  
HETATM   36  C   UNL     1      -6.956   4.811  66.644  1.00  0.00    -0.067 A  
HETATM   37  C   UNL     1      -6.606   5.829  67.643  1.00  0.00    -0.053 C  
HETATM   38  C   UNL     1      -6.833   7.258  67.344  1.00  0.00    -0.077 A  
HETATM   39  O   UNL     1      -6.120   5.502  68.725  1.00  0.00    -0.023 OA 
BRANCH  16  40
HETATM   40  C   UNL     1      -5.908  12.971  69.805  1.00  0.00    -0.123 C  
HETATM   41  O   UNL     1      -5.727  14.162  69.543  1.00  0.00    -0.091 OA 
HETATM   42  C   UNL     1      -5.367  12.375  71.088  1.00  0.00    -0.115 C  
ENDBRANCH  16  40
ENDBRANCH  13  14
ENDBRANCH   4  13
TORSDOF 3
ENDMDL
MODEL       95
REMARK 921   NORMALIZED FREE ENERGY PREDICTED BY IDOCK:   -3.40 KCAL/MOL
REMARK 922        TOTAL FREE ENERGY PREDICTED BY IDOCK:   -4.89 KCAL/MOL
REMARK 923 INTER-LIGAND FREE ENERGY PREDICTED BY IDOCK:   -4.10 KCAL/MOL
REMARK 924 INTRA-LIGAND FREE ENERGY PREDICTED BY IDOCK:   -0.79 KCAL/MOL
REMARK 927      BINDING AFFINITY PREDICTED BY RF-SCORE:    0.00 PKD
ROOT
HETATM    1  C   UNL     1     -11.662   5.266  72.467  1.00  0.00    -0.112 C  
HETATM    2  C   UNL     1     -10.418   5.916  71.856  1.00  0.00    -0.220 C  
HETATM    3  O   UNL     1      -9.832   4.942  70.971  1.00  0.00    -0.172 OA 
HETATM    4  C   UNL     1      -8.557   5.287  70.445  1.00  0.00    -0.115 C  
HETATM    5  H1  UNL     1      -7.489   7.672  74.215  1.00  0.00     0.000 HD 
HETATM    6  C   UNL     1      -7.564   5.599  71.566  1.00  0.00    -0.105 C  
HETATM    7  C   UNL     1      -8.060   6.740  72.455  1.00  0.00    -0.102 C  
HETATM    8  H   UNL     1      -8.806   5.854  74.744  1.00  0.00     0.000 HD 
HETATM    9  H2  UNL     1      -6.188   7.044  73.337  1.00  0.00     0.000 HD 
HETATM   10  N   UNL     1      -7.158   6.911  73.621  1.00  0.00    -0.074 NA 
HETATM   11  C   UNL     1      -9.481   6.450  72.965  1.00  0.00    -0.141 C  
HETATM   12  O   UNL     1      -9.381   5.527  74.062  1.00  0.00    -0.131 OA 
ENDROOT
BRANCH   4  13
HETATM   13  O   UNL     1      -8.600   6.359  69.506  1.00  0.00    -0.131 OA 
BRANCH  13  14
HETATM   14  C   UNL     1      -7.355   6.828  68.946  1.00  0.00    -0.094 C  
HETATM   15  C   UNL     1      -7.230   6.128  67.580  1.00  0.00    -0.076 C  
HETATM   16  C   UNL     1      -8.315   6.634  66.607  1.00  0.00    -0.117 C  
HETATM   17  C   UNL     1      -7.999   8.087  66.265  1.00  0.00    -0.105 C  
HETATM   18  O   UNL     1      -9.637   6.566  67.160  1.00  0.00    -0.128 OA 
HETATM   19  H   UNL     1      -7.323  11.673  65.827  1.00  0.00     0.000 HD 
HETATM   20  O   UNL     1      -7.495  10.750  65.973  1.00  0.00    -0.149 OA 
HETATM   21  C   UNL     1      -7.284  10.278  67.248  1.00  0.00    -0.089 A  
HETATM   22  C   UNL     1      -7.538   8.913  67.463  1.00  0.00    -0.093 A  
HETATM   23  H   UNL     1     -10.305   6.878  66.560  1.00  0.00     0.000 HD 
HETATM   24  C   UNL     1      -7.258   8.339  68.735  1.00  0.00    -0.079 A  
HETATM   25  C   UNL     1      -6.766   9.182  69.756  1.00  0.00    -0.050 A  
HETATM   26  O   UNL     1      -6.416   8.669  70.976  1.00  0.00    -0.041 OA 
HETATM   27  C   UNL     1      -6.544  10.562  69.536  1.00  0.00    -0.080 A  
HETATM   28  C   UNL     1      -6.026  11.456  70.613  1.00  0.00    -0.040 C  
HETATM   29  H   UNL     1      -6.086   9.236  71.663  1.00  0.00     0.000 HD 
HETATM   30  C   UNL     1      -5.842  12.892  70.341  1.00  0.00    -0.152 A  
HETATM   31  O   UNL     1      -5.753  11.054  71.737  1.00  0.00    -0.291 OA 
HETATM   32  C   UNL     1      -5.426  13.748  71.369  1.00  0.00    -0.219 A  
HETATM   33  C   UNL     1      -5.271  15.113  71.137  1.00  0.00    -0.126 A  
HETATM   34  C   UNL     1      -5.523  15.632  69.866  1.00  0.00    -0.120 A  
HETATM   35  C   UNL     1      -5.929  14.792  68.841  1.00  0.00    -0.085 A  
HETATM   36  C   UNL     1      -6.087  13.411  69.084  1.00  0.00    -0.093 A  
HETATM   37  C   UNL     1      -6.520  12.527  67.994  1.00  0.00    -0.087 C  
HETATM   38  C   UNL     1      -6.795  11.102  68.271  1.00  0.00    -0.068 A  
HETATM   39  O   UNL     1      -6.649  12.962  66.851  1.00  0.00    -0.050 OA 
BRANCH  16  40
HETATM   40  C   UNL     1      -8.373   5.770  65.335  1.00  0.00    -0.142 C  
HETATM   41  O   UNL     1      -9.193   4.860  65.193  1.00  0.00    -0.156 OA 
HETATM   42  C   UNL     1      -7.361   6.069  64.248  1.00  0.00    -0.069 C  
ENDBRANCH  16  40
ENDBRANCH  13  14
ENDBRANCH   4  13
TORSDOF 3
ENDMDL
MODEL       96
REMARK 921   NORMALIZED FREE ENERGY PREDICTED BY IDOCK:   -3.27 KCAL/MOL
REMARK 922        TOTAL FREE ENERGY PREDICTED BY IDOCK:   -4.73 KCAL/MOL
REMARK 923 INTER-LIGAND FREE ENERGY PREDICTED BY IDOCK:   -3.81 KCAL/MOL
REMARK 924 INTRA-LIGAND FREE ENERGY PREDICTED BY IDOCK:   -0.92 KCAL/MOL
REMARK 927      BINDING AFFINITY PREDICTED BY RF-SCORE:    0.00 PKD
ROOT
HETATM    1  C   UNL     1     -11.896  15.938  71.970  1.00  0.00    -0.609 C  
HETATM    2  C   UNL     1     -11.895  14.499  71.448  1.00  0.00    -0.249 C  
HETATM    3  O   UNL     1     -12.514  14.527  70.148  1.00  0.00    -0.331 OA 
HETATM    4  C   UNL     1     -12.779  13.255  69.572  1.00  0.00     0.499 C  
HETATM    5  H1  UNL     1     -13.406  11.358  73.701  1.00  0.00     0.000 HD 
HETATM    6  C   UNL     1     -13.628  12.392  70.507  1.00  0.00     1.780 C  
HETATM    7  C   UNL     1     -12.946  12.192  71.861  1.00  0.00    -0.314 C  
HETATM    8  H   UNL     1     -14.134  13.546  73.688  1.00  0.00     0.000 HD 
HETATM    9  H2  UNL     1     -14.202  10.612  72.409  1.00  0.00     0.000 HD 
HETATM   10  N   UNL     1     -13.860  11.491  72.797  1.00  0.00     0.859 NA 
HETATM   11  C   UNL     1     -12.553  13.546  72.474  1.00  0.00     0.122 C  
HETATM   12  O   UNL     1     -13.730  14.130  73.058  1.00  0.00    -0.617 OA 
ENDROOT
BRANCH   4  13
HETATM   13  O   UNL     1     -11.602  12.553  69.179  1.00  0.00    -0.281 OA 
BRANCH  13  14
HETATM   14  C   UNL     1     -11.745  11.417  68.299  1.00  0.00    -0.288 C  
HETATM   15  C   UNL     1     -11.953  12.010  66.893  1.00  0.00    -0.091 C  
HETATM   16  C   UNL     1     -10.674  12.724  66.408  1.00  0.00    -0.262 C  
HETATM   17  C   UNL     1      -9.606  11.663  66.166  1.00  0.00    -0.252 C  
HETATM   18  O   UNL     1     -10.174  13.677  67.357  1.00  0.00    -0.238 OA 
HETATM   19  H   UNL     1      -7.034   9.045  65.981  1.00  0.00     0.000 HD 
HETATM   20  O   UNL     1      -7.707   9.711  66.059  1.00  0.00    -0.099 OA 
HETATM   21  C   UNL     1      -8.573   9.589  67.121  1.00  0.00    -0.132 A  
HETATM   22  C   UNL     1      -9.568  10.574  67.236  1.00  0.00    -0.188 A  
HETATM   23  H   UNL     1      -9.386  14.117  67.058  1.00  0.00     0.000 HD 
HETATM   24  C   UNL     1     -10.551  10.463  68.259  1.00  0.00    -0.245 A  
HETATM   25  C   UNL     1     -10.464   9.375  69.156  1.00  0.00    -0.217 A  
HETATM   26  O   UNL     1     -11.421   9.183  70.115  1.00  0.00    -0.407 OA 
HETATM   27  C   UNL     1      -9.438   8.407  69.048  1.00  0.00    -0.151 A  
HETATM   28  C   UNL     1      -9.342   7.256  69.995  1.00  0.00    -0.154 C  
HETATM   29  H   UNL     1     -11.363   8.451  70.718  1.00  0.00     0.000 HD 
HETATM   30  C   UNL     1      -8.235   6.293  69.860  1.00  0.00    -0.121 A  
HETATM   31  O   UNL     1     -10.142   7.074  70.904  1.00  0.00    -0.193 OA 
HETATM   32  C   UNL     1      -8.099   5.253  70.789  1.00  0.00    -0.106 A  
HETATM   33  C   UNL     1      -7.045   4.348  70.691  1.00  0.00    -0.041 A  
HETATM   34  C   UNL     1      -6.121   4.471  69.653  1.00  0.00    -0.022 A  
HETATM   35  C   UNL     1      -6.251   5.492  68.724  1.00  0.00    -0.033 A  
HETATM   36  C   UNL     1      -7.320   6.407  68.831  1.00  0.00    -0.086 A  
HETATM   37  C   UNL     1      -7.451   7.489  67.846  1.00  0.00    -0.105 C  
HETATM   38  C   UNL     1      -8.500   8.515  68.018  1.00  0.00    -0.131 A  
HETATM   39  O   UNL     1      -6.698   7.544  66.875  1.00  0.00    -0.062 OA 
BRANCH  16  40
HETATM   40  C   UNL     1     -10.939  13.540  65.131  1.00  0.00    -0.320 C  
HETATM   41  O   UNL     1     -10.216  13.460  64.135  1.00  0.00    -0.363 OA 
HETATM   42  C   UNL     1     -12.131  14.475  65.141  1.00  0.00    -0.363 C  
ENDBRANCH  16  40
ENDBRANCH  13  14
ENDBRANCH   4  13
TORSDOF 3
ENDMDL
MODEL       97
REMARK 921   NORMALIZED FREE ENERGY PREDICTED BY IDOCK:   -3.26 KCAL/MOL
REMARK 922        TOTAL FREE ENERGY PREDICTED BY IDOCK:   -4.72 KCAL/MOL
REMARK 923 INTER-LIGAND FREE ENERGY PREDICTED BY IDOCK:   -6.90 KCAL/MOL
REMARK 924 INTRA-LIGAND FREE ENERGY PREDICTED BY IDOCK:    2.18 KCAL/MOL
REMARK 927      BINDING AFFINITY PREDICTED BY RF-SCORE:    0.00 PKD
ROOT
HETATM    1  C   UNL     1      -5.905   9.166  71.609  1.00  0.00    -0.073 C  
HETATM    2  C   UNL     1      -6.276   9.928  70.334  1.00  0.00    -0.094 C  
HETATM    3  O   UNL     1      -7.694   9.755  70.144  1.00  0.00    -0.150 OA 
HETATM    4  C   UNL     1      -8.205  10.234  68.907  1.00  0.00    -0.130 C  
HETATM    5  H1  UNL     1      -4.256   9.320  66.760  1.00  0.00     0.000 HD 
HETATM    6  C   UNL     1      -7.467   9.604  67.724  1.00  0.00    -0.087 C  
HETATM    7  C   UNL     1      -5.965   9.886  67.785  1.00  0.00    -0.047 C  
HETATM    8  H   UNL     1      -4.664   7.768  68.417  1.00  0.00     0.000 HD 
HETATM    9  H2  UNL     1      -5.645   9.323  65.796  1.00  0.00     0.000 HD 
HETATM   10  N   UNL     1      -5.258   9.131  66.720  1.00  0.00    -0.038 NA 
HETATM   11  C   UNL     1      -5.391   9.473  69.150  1.00  0.00    -0.036 C  
HETATM   12  O   UNL     1      -5.207   8.048  69.144  1.00  0.00    -0.025 OA 
ENDROOT
BRANCH   4  13
HETATM   13  O   UNL     1      -8.195  11.655  68.799  1.00  0.00    -0.134 OA 
BRANCH  13  14
HETATM   14  C   UNL     1      -7.581  12.249  67.635  1.00  0.00    -0.144 C  
HETATM   15  C   UNL     1      -8.201  11.521  66.428  1.00  0.00    -0.092 C  
HETATM   16  C   UNL     1      -9.700  11.860  66.298  1.00  0.00    -0.229 C  
HETATM   17  C   UNL     1      -9.817  13.327  65.897  1.00  0.00    -0.241 C  
HETATM   18  O   UNL     1     -10.427  11.654  67.518  1.00  0.00    -0.192 OA 
HETATM   19  H   UNL     1      -9.952  16.949  65.295  1.00  0.00     0.000 HD 
HETATM   20  O   UNL     1      -9.897  16.018  65.475  1.00  0.00    -0.411 OA 
HETATM   21  C   UNL     1      -8.924  15.621  66.362  1.00  0.00    -0.326 A  
HETATM   22  C   UNL     1      -8.841  14.244  66.630  1.00  0.00    -0.167 A  
HETATM   23  H   UNL     1     -11.350  11.863  67.438  1.00  0.00     0.000 HD 
HETATM   24  C   UNL     1      -7.804  13.752  67.470  1.00  0.00    -0.189 A  
HETATM   25  C   UNL     1      -6.909  14.683  68.043  1.00  0.00    -0.143 A  
HETATM   26  O   UNL     1      -5.853  14.259  68.803  1.00  0.00    -0.077 OA 
HETATM   27  C   UNL     1      -7.022  16.071  67.791  1.00  0.00    -0.163 A  
HETATM   28  C   UNL     1      -6.079  17.058  68.396  1.00  0.00    -0.144 C  
HETATM   29  H   UNL     1      -5.251  14.885  69.188  1.00  0.00     0.000 HD 
HETATM   30  C   UNL     1      -6.259  18.496  68.127  1.00  0.00    -0.195 A  
HETATM   31  O   UNL     1      -5.153  16.732  69.128  1.00  0.00    -0.125 OA 
HETATM   32  C   UNL     1      -5.423  19.431  68.750  1.00  0.00    -0.214 A  
HETATM   33  C   UNL     1      -5.594  20.795  68.528  1.00  0.00    -0.369 A  
HETATM   34  C   UNL     1      -6.603  21.235  67.669  1.00  0.00    -0.302 A  
HETATM   35  C   UNL     1      -7.431  20.317  67.043  1.00  0.00    -0.334 A  
HETATM   36  C   UNL     1      -7.253  18.937  67.276  1.00  0.00    -0.222 A  
HETATM   37  C   UNL     1      -8.137  17.969  66.611  1.00  0.00    -0.260 C  
HETATM   38  C   UNL     1      -8.028  16.532  66.938  1.00  0.00    -0.260 A  
HETATM   39  O   UNL     1      -8.962  18.345  65.780  1.00  0.00    -0.429 OA 
BRANCH  16  40
HETATM   40  C   UNL     1     -10.393  10.950  65.267  1.00  0.00    -0.268 C  
HETATM   41  O   UNL     1     -10.399   9.721  65.372  1.00  0.00    -0.154 OA 
HETATM   42  C   UNL     1     -11.064  11.625  64.090  1.00  0.00    -0.435 C  
ENDBRANCH  16  40
ENDBRANCH  13  14
ENDBRANCH   4  13
TORSDOF 3
ENDMDL
MODEL       98
REMARK 921   NORMALIZED FREE ENERGY PREDICTED BY IDOCK:   -2.92 KCAL/MOL
REMARK 922        TOTAL FREE ENERGY PREDICTED BY IDOCK:   -4.32 KCAL/MOL
REMARK 923 INTER-LIGAND FREE ENERGY PREDICTED BY IDOCK:   -5.31 KCAL/MOL
REMARK 924 INTRA-LIGAND FREE ENERGY PREDICTED BY IDOCK:    0.99 KCAL/MOL
REMARK 927      BINDING AFFINITY PREDICTED BY RF-SCORE:    0.00 PKD
ROOT
HETATM    1  C   UNL     1     -10.730   4.619  67.341  1.00  0.00     0.505 C  
HETATM    2  C   UNL     1      -9.517   4.821  66.429  1.00  0.00    -0.158 C  
HETATM    3  O   UNL     1      -9.515   6.208  66.040  1.00  0.00    -0.121 OA 
HETATM    4  C   UNL     1      -8.569   6.557  65.038  1.00  0.00     0.067 C  
HETATM    5  H1  UNL     1      -8.833   2.393  63.133  1.00  0.00     0.000 HD 
HETATM    6  C   UNL     1      -8.743   5.692  63.789  1.00  0.00     0.188 C  
HETATM    7  C   UNL     1      -8.598   4.205  64.111  1.00  0.00    -0.110 C  
HETATM    8  H   UNL     1     -10.872   3.023  64.007  1.00  0.00     0.000 HD 
HETATM    9  H2  UNL     1      -8.376   3.655  62.105  1.00  0.00     0.000 HD 
HETATM   10  N   UNL     1      -8.930   3.386  62.918  1.00  0.00    -0.092 NA 
HETATM   11  C   UNL     1      -9.536   3.806  65.262  1.00  0.00    -0.174 C  
HETATM   12  O   UNL     1     -10.860   3.646  64.723  1.00  0.00    -0.022 OA 
ENDROOT
BRANCH   4  13
HETATM   13  O   UNL     1      -7.218   6.512  65.491  1.00  0.00    -0.069 OA 
BRANCH  13  14
HETATM   14  C   UNL     1      -6.807   7.450  66.509  1.00  0.00    -0.062 C  
HETATM   15  C   UNL     1      -5.833   8.415  65.808  1.00  0.00    -0.044 C  
HETATM   16  C   UNL     1      -6.573   9.271  64.760  1.00  0.00    -0.076 C  
HETATM   17  C   UNL     1      -7.505  10.223  65.503  1.00  0.00    -0.149 C  
HETATM   18  O   UNL     1      -7.348   8.484  63.844  1.00  0.00    -0.097 OA 
HETATM   19  H   UNL     1      -9.961  12.189  67.402  1.00  0.00     0.000 HD 
HETATM   20  O   UNL     1      -9.336  11.654  66.927  1.00  0.00    -0.180 OA 
HETATM   21  C   UNL     1      -9.157  10.368  67.381  1.00  0.00    -0.135 A  
HETATM   22  C   UNL     1      -8.233   9.576  66.678  1.00  0.00    -0.116 A  
HETATM   23  H   UNL     1      -7.804   9.012  63.198  1.00  0.00     0.000 HD 
HETATM   24  C   UNL     1      -7.934   8.265  67.144  1.00  0.00    -0.105 A  
HETATM   25  C   UNL     1      -8.616   7.789  68.286  1.00  0.00    -0.124 A  
HETATM   26  O   UNL     1      -8.318   6.563  68.816  1.00  0.00    -0.120 OA 
HETATM   27  C   UNL     1      -9.568   8.585  68.966  1.00  0.00    -0.167 A  
HETATM   28  C   UNL     1     -10.292   8.084  70.173  1.00  0.00    -0.215 C  
HETATM   29  H   UNL     1      -8.776   6.242  69.584  1.00  0.00     0.000 HD 
HETATM   30  C   UNL     1     -11.297   8.941  70.826  1.00  0.00    -0.325 A  
HETATM   31  O   UNL     1     -10.100   6.973  70.650  1.00  0.00    -0.191 OA 
HETATM   32  C   UNL     1     -12.030   8.449  71.913  1.00  0.00    -0.397 A  
HETATM   33  C   UNL     1     -13.003   9.235  72.527  1.00  0.00    -0.384 A  
HETATM   34  C   UNL     1     -13.242  10.529  72.061  1.00  0.00    -0.483 A  
HETATM   35  C   UNL     1     -12.517  11.027  70.990  1.00  0.00    -0.512 A  
HETATM   36  C   UNL     1     -11.536  10.223  70.371  1.00  0.00    -0.415 A  
HETATM   37  C   UNL     1     -10.772  10.756  69.235  1.00  0.00    -0.229 C  
HETATM   38  C   UNL     1      -9.826   9.881  68.513  1.00  0.00    -0.168 A  
HETATM   39  O   UNL     1     -10.910  11.927  68.883  1.00  0.00    -0.221 OA 
BRANCH  16  40
HETATM   40  C   UNL     1      -5.584  10.050  63.873  1.00  0.00    -0.112 C  
HETATM   41  O   UNL     1      -5.161  11.166  64.181  1.00  0.00    -0.224 OA 
HETATM   42  C   UNL     1      -5.152   9.394  62.578  1.00  0.00    -0.075 C  
ENDBRANCH  16  40
ENDBRANCH  13  14
ENDBRANCH   4  13
TORSDOF 3
ENDMDL
MODEL       99
REMARK 921   NORMALIZED FREE ENERGY PREDICTED BY IDOCK:   -2.83 KCAL/MOL
REMARK 922        TOTAL FREE ENERGY PREDICTED BY IDOCK:   -4.22 KCAL/MOL
REMARK 923 INTER-LIGAND FREE ENERGY PREDICTED BY IDOCK:   -4.33 KCAL/MOL
REMARK 924 INTRA-LIGAND FREE ENERGY PREDICTED BY IDOCK:    0.11 KCAL/MOL
REMARK 927      BINDING AFFINITY PREDICTED BY RF-SCORE:    0.00 PKD
ROOT
HETATM    1  C   UNL     1     -13.282   9.902  70.975  1.00  0.00    -0.375 C  
HETATM    2  C   UNL     1     -13.016  11.276  70.355  1.00  0.00     0.075 C  
HETATM    3  O   UNL     1     -11.709  11.213  69.752  1.00  0.00    -0.281 OA 
HETATM    4  C   UNL     1     -11.196  12.453  69.282  1.00  0.00    -0.201 C  
HETATM    5  H1  UNL     1     -13.435  14.778  72.541  1.00  0.00     0.000 HD 
HETATM    6  C   UNL     1     -11.180  13.502  70.395  1.00  0.00     0.453 C  
HETATM    7  C   UNL     1     -12.576  13.729  70.974  1.00  0.00    -0.371 C  
HETATM    8  H   UNL     1     -12.767  12.714  73.322  1.00  0.00     0.000 HD 
HETATM    9  H2  UNL     1     -12.033  15.505  71.936  1.00  0.00     0.000 HD 
HETATM   10  N   UNL     1     -12.503  14.626  72.154  1.00  0.00    -0.328 NA 
HETATM   11  C   UNL     1     -13.208  12.395  71.405  1.00  0.00    -0.098 C  
HETATM   12  O   UNL     1     -12.649  12.027  72.677  1.00  0.00     0.671 OA 
ENDROOT
BRANCH   4  13
HETATM   13  O   UNL     1     -11.882  12.954  68.137  1.00  0.00    -0.336 OA 
BRANCH  13  14
HETATM   14  C   UNL     1     -12.028  12.085  66.993  1.00  0.00    -0.023 C  
HETATM   15  C   UNL     1     -12.352  13.015  65.809  1.00  0.00    -0.477 C  
HETATM   16  C   UNL     1     -11.142  13.910  65.472  1.00  0.00    -0.304 C  
HETATM   17  C   UNL     1     -10.043  13.018  64.902  1.00  0.00    -0.233 C  
HETATM   18  O   UNL     1     -10.626  14.606  66.616  1.00  0.00    -0.280 OA 
HETATM   19  H   UNL     1      -7.369  10.707  63.897  1.00  0.00     0.000 HD 
HETATM   20  O   UNL     1      -8.066  11.286  64.183  1.00  0.00     0.483 OA 
HETATM   21  C   UNL     1      -8.856  10.834  65.214  1.00  0.00    -0.187 A  
HETATM   22  C   UNL     1      -9.887  11.690  65.638  1.00  0.00    -0.270 A  
HETATM   23  H   UNL     1      -9.881  15.157  66.407  1.00  0.00     0.000 HD 
HETATM   24  C   UNL     1     -10.796  11.252  66.640  1.00  0.00    -0.325 A  
HETATM   25  C   UNL     1     -10.602   9.972  67.207  1.00  0.00    -0.257 A  
HETATM   26  O   UNL     1     -11.486   9.474  68.126  1.00  0.00    -0.444 OA 
HETATM   27  C   UNL     1      -9.540   9.132  66.794  1.00  0.00    -0.253 A  
HETATM   28  C   UNL     1      -9.331   7.780  67.392  1.00  0.00    -0.141 C  
HETATM   29  H   UNL     1     -11.355   8.614  68.507  1.00  0.00     0.000 HD 
HETATM   30  C   UNL     1      -8.192   6.957  66.949  1.00  0.00    -0.113 A  
HETATM   31  O   UNL     1     -10.062   7.315  68.257  1.00  0.00    -0.159 OA 
HETATM   32  C   UNL     1      -7.948   5.720  67.558  1.00  0.00    -0.102 A  
HETATM   33  C   UNL     1      -6.861   4.939  67.170  1.00  0.00    -0.056 A  
HETATM   34  C   UNL     1      -6.012   5.390  66.159  1.00  0.00    -0.022 A  
HETATM   35  C   UNL     1      -6.249   6.610  65.546  1.00  0.00    -0.038 A  
HETATM   36  C   UNL     1      -7.350   7.396  65.946  1.00  0.00    -0.075 A  
HETATM   37  C   UNL     1      -7.593   8.690  65.294  1.00  0.00    -0.088 C  
HETATM   38  C   UNL     1      -8.676   9.567  65.786  1.00  0.00    -0.170 A  
HETATM   39  O   UNL     1      -6.907   9.047  64.337  1.00  0.00    -0.084 OA 
BRANCH  16  40
HETATM   40  C   UNL     1     -11.525  15.017  64.474  1.00  0.00    -0.318 C  
HETATM   41  O   UNL     1     -10.881  16.064  64.371  1.00  0.00    -0.522 OA 
HETATM   42  C   UNL     1     -12.752  14.783  63.618  1.00  0.00     0.923 C  
ENDBRANCH  16  40
ENDBRANCH  13  14
ENDBRANCH   4  13
TORSDOF 3
ENDMDL
MODEL      100
REMARK 921   NORMALIZED FREE ENERGY PREDICTED BY IDOCK:   -2.83 KCAL/MOL
REMARK 922        TOTAL FREE ENERGY PREDICTED BY IDOCK:   -4.21 KCAL/MOL
REMARK 923 INTER-LIGAND FREE ENERGY PREDICTED BY IDOCK:   -4.91 KCAL/MOL
REMARK 924 INTRA-LIGAND FREE ENERGY PREDICTED BY IDOCK:    0.70 KCAL/MOL
REMARK 927      BINDING AFFINITY PREDICTED BY RF-SCORE:    0.00 PKD
ROOT
HETATM    1  C   UNL     1      -7.183  17.450  65.510  1.00  0.00     0.659 C  
HETATM    2  C   UNL     1      -7.288  16.207  66.397  1.00  0.00     0.173 C  
HETATM    3  O   UNL     1      -8.679  15.835  66.428  1.00  0.00    -0.290 OA 
HETATM    4  C   UNL     1      -9.014  14.809  67.354  1.00  0.00    -0.192 C  
HETATM    5  H1  UNL     1      -5.680  16.111  70.221  1.00  0.00     0.000 HD 
HETATM    6  C   UNL     1      -8.567  15.176  68.770  1.00  0.00    -0.182 C  
HETATM    7  C   UNL     1      -7.062  15.432  68.835  1.00  0.00    -0.131 C  
HETATM    8  H   UNL     1      -6.574  17.933  69.126  1.00  0.00     0.000 HD 
HETATM    9  H2  UNL     1      -6.998  15.318  70.922  1.00  0.00     0.000 HD 
HETATM   10  N   UNL     1      -6.685  15.940  70.178  1.00  0.00     0.048 NA 
HETATM   11  C   UNL     1      -6.642  16.467  67.778  1.00  0.00    -0.139 C  
HETATM   12  O   UNL     1      -6.970  17.774  68.278  1.00  0.00    -0.208 OA 
ENDROOT
BRANCH   4  13
HETATM   13  O   UNL     1      -8.509  13.527  66.988  1.00  0.00    -0.194 OA 
BRANCH  13  14
HETATM   14  C   UNL     1      -9.440  12.428  66.890  1.00  0.00    -0.219 C  
HETATM   15  C   UNL     1     -10.750  13.046  66.367  1.00  0.00    -0.295 C  
HETATM   16  C   UNL     1     -10.576  13.546  64.917  1.00  0.00    -0.397 C  
HETATM   17  C   UNL     1     -10.401  12.326  64.017  1.00  0.00    -0.423 C  
HETATM   18  O   UNL     1      -9.440  14.406  64.757  1.00  0.00    -0.234 OA 
HETATM   19  H   UNL     1      -9.628   9.330  62.035  1.00  0.00     0.000 HD 
HETATM   20  O   UNL     1      -9.806  10.095  62.570  1.00  0.00    -0.157 OA 
HETATM   21  C   UNL     1      -9.240  10.115  63.823  1.00  0.00    -0.281 A  
HETATM   22  C   UNL     1      -9.502  11.247  64.614  1.00  0.00    -0.215 A  
HETATM   23  H   UNL     1      -9.333  14.714  63.864  1.00  0.00     0.000 HD 
HETATM   24  C   UNL     1      -9.022  11.295  65.952  1.00  0.00    -0.206 A  
HETATM   25  C   UNL     1      -8.256  10.208  66.428  1.00  0.00    -0.122 A  
HETATM   26  O   UNL     1      -7.827  10.172  67.728  1.00  0.00    -0.097 OA 
HETATM   27  C   UNL     1      -7.972   9.087  65.612  1.00  0.00    -0.104 A  
HETATM   28  C   UNL     1      -7.162   7.937  66.111  1.00  0.00    -0.073 C  
HETATM   29  H   UNL     1      -7.312   9.441  68.048  1.00  0.00     0.000 HD 
HETATM   30  C   UNL     1      -6.868   6.809  65.210  1.00  0.00    -0.051 A  
HETATM   31  O   UNL     1      -6.709   7.886  67.247  1.00  0.00    -0.065 OA 
HETATM   32  C   UNL     1      -6.048   5.762  65.650  1.00  0.00    -0.032 A  
HETATM   33  C   UNL     1      -5.739   4.699  64.804  1.00  0.00    -0.014 A  
HETATM   34  C   UNL     1      -6.259   4.672  63.509  1.00  0.00    -0.022 A  
HETATM   35  C   UNL     1      -7.076   5.700  63.067  1.00  0.00    -0.045 A  
HETATM   36  C   UNL     1      -7.383   6.774  63.928  1.00  0.00    -0.079 A  
HETATM   37  C   UNL     1      -8.247   7.862  63.453  1.00  0.00    -0.017 C  
HETATM   38  C   UNL     1      -8.479   9.043  64.310  1.00  0.00    -0.185 A  
HETATM   39  O   UNL     1      -8.786   7.795  62.349  1.00  0.00     0.095 OA 
BRANCH  16  40
HETATM   40  C   UNL     1     -11.780  14.393  64.469  1.00  0.00    -0.419 C  
HETATM   41  O   UNL     1     -12.883  13.896  64.227  1.00  0.00    -0.618 OA 
HETATM   42  C   UNL     1     -11.560  15.883  64.317  1.00  0.00    -0.179 C  
ENDBRANCH  16  40
ENDBRANCH  13  14
ENDBRANCH   4  13
TORSDOF 3
ENDMDL
MODEL      101
REMARK 921   NORMALIZED FREE ENERGY PREDICTED BY IDOCK:   -2.74 KCAL/MOL
REMARK 922        TOTAL FREE ENERGY PREDICTED BY IDOCK:   -4.11 KCAL/MOL
REMARK 923 INTER-LIGAND FREE ENERGY PREDICTED BY IDOCK:   -4.63 KCAL/MOL
REMARK 924 INTRA-LIGAND FREE ENERGY PREDICTED BY IDOCK:    0.52 KCAL/MOL
REMARK 927      BINDING AFFINITY PREDICTED BY RF-SCORE:    0.00 PKD
ROOT
HETATM    1  C   UNL     1     -12.921  13.100  72.311  1.00  0.00    -0.354 C  
HETATM    2  C   UNL     1     -12.097  12.994  71.025  1.00  0.00     0.018 C  
HETATM    3  O   UNL     1     -12.606  13.995  70.122  1.00  0.00    -0.334 OA 
HETATM    4  C   UNL     1     -12.094  13.934  68.797  1.00  0.00    -0.309 C  
HETATM    5  H1  UNL     1     -11.592   9.382  69.045  1.00  0.00     0.000 HD 
HETATM    6  C   UNL     1     -12.317  12.552  68.181  1.00  0.00     0.392 C  
HETATM    7  C   UNL     1     -11.662  11.453  69.018  1.00  0.00    -0.343 C  
HETATM    8  H   UNL     1     -13.433  10.069  70.253  1.00  0.00     0.000 HD 
HETATM    9  H2  UNL     1     -11.807  10.025  67.496  1.00  0.00     0.000 HD 
HETATM   10  N   UNL     1     -12.030  10.116  68.487  1.00  0.00     0.081 NA 
HETATM   11  C   UNL     1     -12.114  11.545  70.484  1.00  0.00    -0.378 C  
HETATM   12  O   UNL     1     -13.422  10.958  70.585  1.00  0.00     0.104 OA 
ENDROOT
BRANCH   4  13
HETATM   13  O   UNL     1     -10.721  14.307  68.700  1.00  0.00    -0.235 OA 
BRANCH  13  14
HETATM   14  C   UNL     1     -10.121  14.371  67.388  1.00  0.00    -0.243 C  
HETATM   15  C   UNL     1      -9.364  15.712  67.349  1.00  0.00    -0.214 C  
HETATM   16  C   UNL     1      -8.171  15.693  68.327  1.00  0.00    -0.142 C  
HETATM   17  C   UNL     1      -7.136  14.710  67.787  1.00  0.00    -0.193 C  
HETATM   18  O   UNL     1      -8.543  15.291  69.653  1.00  0.00    -0.364 OA 
HETATM   19  H   UNL     1      -4.911  12.054  66.564  1.00  0.00     0.000 HD 
HETATM   20  O   UNL     1      -5.512  12.720  66.878  1.00  0.00    -0.314 OA 
HETATM   21  C   UNL     1      -6.854  12.442  66.762  1.00  0.00     0.310 A  
HETATM   22  C   UNL     1      -7.742  13.427  67.226  1.00  0.00    -0.092 A  
HETATM   23  H   UNL     1      -7.808  15.279  70.255  1.00  0.00     0.000 HD 
HETATM   24  C   UNL     1      -9.143  13.244  67.058  1.00  0.00    -0.232 A  
HETATM   25  C   UNL     1      -9.595  12.046  66.461  1.00  0.00    -0.224 A  
HETATM   26  O   UNL     1     -10.927  11.848  66.214  1.00  0.00    -0.278 OA 
HETATM   27  C   UNL     1      -8.691  11.048  66.026  1.00  0.00    -0.192 A  
HETATM   28  C   UNL     1      -9.165   9.780  65.396  1.00  0.00    -0.227 C  
HETATM   29  H   UNL     1     -11.231  11.043  65.812  1.00  0.00     0.000 HD 
HETATM   30  C   UNL     1      -8.185   8.758  64.990  1.00  0.00    -0.156 A  
HETATM   31  O   UNL     1     -10.350   9.534  65.206  1.00  0.00     0.119 OA 
HETATM   32  C   UNL     1      -8.627   7.537  64.466  1.00  0.00     0.259 A  
HETATM   33  C   UNL     1      -7.716   6.549  64.100  1.00  0.00    -0.105 A  
HETATM   34  C   UNL     1      -6.348   6.781  64.248  1.00  0.00    -0.035 A  
HETATM   35  C   UNL     1      -5.900   7.989  64.760  1.00  0.00    -0.045 A  
HETATM   36  C   UNL     1      -6.829   8.983  65.131  1.00  0.00    -0.076 A  
HETATM   37  C   UNL     1      -6.347  10.260  65.676  1.00  0.00    -0.118 C  
HETATM   38  C   UNL     1      -7.317  11.258  66.171  1.00  0.00     0.058 A  
HETATM   39  O   UNL     1      -5.143  10.507  65.718  1.00  0.00    -0.052 OA 
BRANCH  16  40
HETATM   40  C   UNL     1      -7.563  17.096  68.495  1.00  0.00    -0.245 C  
HETATM   41  O   UNL     1      -6.535  17.296  69.147  1.00  0.00    -0.211 OA 
HETATM   42  C   UNL     1      -8.290  18.249  67.835  1.00  0.00    -0.259 C  
ENDBRANCH  16  40
ENDBRANCH  13  14
ENDBRANCH   4  13
TORSDOF 3
ENDMDL
MODEL      102
REMARK 921   NORMALIZED FREE ENERGY PREDICTED BY IDOCK:   -2.62 KCAL/MOL
REMARK 922        TOTAL FREE ENERGY PREDICTED BY IDOCK:   -3.97 KCAL/MOL
REMARK 923 INTER-LIGAND FREE ENERGY PREDICTED BY IDOCK:   -3.23 KCAL/MOL
REMARK 924 INTRA-LIGAND FREE ENERGY PREDICTED BY IDOCK:   -0.74 KCAL/MOL
REMARK 927      BINDING AFFINITY PREDICTED BY RF-SCORE:    0.00 PKD
ROOT
HETATM    1  C   UNL     1      -9.027  18.150  66.483  1.00  0.00    -0.288 C  
HETATM    2  C   UNL     1      -9.924  16.912  66.562  1.00  0.00    -0.301 C  
HETATM    3  O   UNL     1      -9.052  15.766  66.557  1.00  0.00    -0.239 OA 
HETATM    4  C   UNL     1      -9.702  14.507  66.437  1.00  0.00    -0.296 C  
HETATM    5  H1  UNL     1     -13.086  16.334  63.939  1.00  0.00     0.000 HD 
HETATM    6  C   UNL     1     -10.588  14.461  65.192  1.00  0.00    -0.429 C  
HETATM    7  C   UNL     1     -11.645  15.566  65.213  1.00  0.00     0.000 C  
HETATM    8  H   UNL     1     -11.086  17.395  63.504  1.00  0.00     0.000 HD 
HETATM    9  H2  UNL     1     -12.784  14.688  63.694  1.00  0.00     0.000 HD 
HETATM   10  N   UNL     1     -12.381  15.596  63.924  1.00  0.00    -0.608 NA 
HETATM   11  C   UNL     1     -10.989  16.938  65.441  1.00  0.00    -0.026 C  
HETATM   12  O   UNL     1     -10.432  17.379  64.192  1.00  0.00     1.577 OA 
ENDROOT
BRANCH   4  13
HETATM   13  O   UNL     1     -10.449  14.141  67.594  1.00  0.00    -0.243 OA 
BRANCH  13  14
HETATM   14  C   UNL     1      -9.829  13.263  68.558  1.00  0.00    -0.168 C  
HETATM   15  C   UNL     1     -10.615  13.470  69.867  1.00  0.00     0.736 C  
HETATM   16  C   UNL     1     -12.057  12.943  69.726  1.00  0.00    -0.245 C  
HETATM   17  C   UNL     1     -11.994  11.423  69.614  1.00  0.00    -0.416 C  
HETATM   18  O   UNL     1     -12.731  13.464  68.571  1.00  0.00     0.176 OA 
HETATM   19  H   UNL     1     -11.661   7.817  68.988  1.00  0.00     0.000 HD 
HETATM   20  O   UNL     1     -11.724   8.755  69.127  1.00  0.00     0.680 OA 
HETATM   21  C   UNL     1     -10.765   9.532  68.521  1.00  0.00    -0.182 A  
HETATM   22  C   UNL     1     -10.858  10.919  68.726  1.00  0.00    -0.251 A  
HETATM   23  H   UNL     1     -13.620  13.139  68.484  1.00  0.00     0.000 HD 
HETATM   24  C   UNL     1      -9.851  11.776  68.202  1.00  0.00    -0.190 A  
HETATM   25  C   UNL     1      -8.803  11.197  67.452  1.00  0.00    -0.139 A  
HETATM   26  O   UNL     1      -7.772  11.966  66.983  1.00  0.00    -0.157 OA 
HETATM   27  C   UNL     1      -8.737   9.801  67.226  1.00  0.00    -0.135 A  
HETATM   28  C   UNL     1      -7.632   9.185  66.433  1.00  0.00    -0.093 C  
HETATM   29  H   UNL     1      -7.068  11.576  66.479  1.00  0.00     0.000 HD 
HETATM   30  C   UNL     1      -7.627   7.731  66.200  1.00  0.00    -0.087 A  
HETATM   31  O   UNL     1      -6.719   9.840  65.946  1.00  0.00    -0.083 OA 
HETATM   32  C   UNL     1      -6.634   7.158  65.396  1.00  0.00    -0.047 A  
HETATM   33  C   UNL     1      -6.627   5.788  65.144  1.00  0.00    -0.043 A  
HETATM   34  C   UNL     1      -7.614   4.977  65.704  1.00  0.00    -0.086 A  
HETATM   35  C   UNL     1      -8.598   5.533  66.507  1.00  0.00    -0.118 A  
HETATM   36  C   UNL     1      -8.600   6.922  66.755  1.00  0.00    -0.120 A  
HETATM   37  C   UNL     1      -9.646   7.506  67.604  1.00  0.00    -0.143 C  
HETATM   38  C   UNL     1      -9.719   8.972  67.775  1.00  0.00    -0.190 A  
HETATM   39  O   UNL     1     -10.460   6.784  68.179  1.00  0.00    -0.180 OA 
BRANCH  16  40
HETATM   40  C   UNL     1     -12.929  13.371  70.919  1.00  0.00    -0.123 C  
HETATM   41  O   UNL     1     -13.225  12.596  71.832  1.00  0.00    -0.450 OA 
HETATM   42  C   UNL     1     -13.436  14.798  70.929  1.00  0.00    -0.325 C  
ENDBRANCH  16  40
ENDBRANCH  13  14
ENDBRANCH   4  13
TORSDOF 3
ENDMDL
MODEL      103
REMARK 921   NORMALIZED FREE ENERGY PREDICTED BY IDOCK:   -2.26 KCAL/MOL
REMARK 922        TOTAL FREE ENERGY PREDICTED BY IDOCK:   -3.54 KCAL/MOL
REMARK 923 INTER-LIGAND FREE ENERGY PREDICTED BY IDOCK:   -6.71 KCAL/MOL
REMARK 924 INTRA-LIGAND FREE ENERGY PREDICTED BY IDOCK:    3.17 KCAL/MOL
REMARK 927      BINDING AFFINITY PREDICTED BY RF-SCORE:    0.00 PKD
ROOT
HETATM    1  C   UNL     1     -11.649  11.020  64.917  1.00  0.00     0.551 C  
HETATM    2  C   UNL     1     -11.294  12.435  65.381  1.00  0.00    -0.337 C  
HETATM    3  O   UNL     1     -12.006  12.659  66.613  1.00  0.00    -0.470 OA 
HETATM    4  C   UNL     1     -11.957  13.989  67.112  1.00  0.00    -0.430 C  
HETATM    5  H1  UNL     1     -11.678  15.719  62.874  1.00  0.00     0.000 HD 
HETATM    6  C   UNL     1     -12.450  14.990  66.066  1.00  0.00     0.448 C  
HETATM    7  C   UNL     1     -11.627  14.910  64.780  1.00  0.00    -0.410 C  
HETATM    8  H   UNL     1     -12.982  13.818  62.896  1.00  0.00     0.000 HD 
HETATM    9  H2  UNL     1     -12.344  16.734  64.051  1.00  0.00     0.000 HD 
HETATM   10  N   UNL     1     -12.227  15.772  63.732  1.00  0.00    -0.602 NA 
HETATM   11  C   UNL     1     -11.573  13.464  64.260  1.00  0.00    -0.402 C  
HETATM   12  O   UNL     1     -12.811  13.186  63.584  1.00  0.00    -0.656 OA 
ENDROOT
BRANCH   4  13
HETATM   13  O   UNL     1     -10.670  14.367  67.595  1.00  0.00    -0.258 OA 
BRANCH  13  14
HETATM   14  C   UNL     1     -10.043  13.536  68.595  1.00  0.00    -0.166 C  
HETATM   15  C   UNL     1     -10.534  14.083  69.949  1.00  0.00     0.505 C  
HETATM   16  C   UNL     1     -12.047  13.834  70.121  1.00  0.00    -0.359 C  
HETATM   17  C   UNL     1     -12.262  12.331  70.272  1.00  0.00    -0.342 C  
HETATM   18  O   UNL     1     -12.820  14.302  69.007  1.00  0.00    -0.275 OA 
HETATM   19  H   UNL     1     -12.661   8.678  70.253  1.00  0.00     0.000 HD 
HETATM   20  O   UNL     1     -12.539   9.620  70.231  1.00  0.00     0.052 OA 
HETATM   21  C   UNL     1     -11.587  10.097  69.360  1.00  0.00    -0.087 A  
HETATM   22  C   UNL     1     -11.406  11.490  69.328  1.00  0.00    -0.353 A  
HETATM   23  H   UNL     1     -13.751  14.149  69.113  1.00  0.00     0.000 HD 
HETATM   24  C   UNL     1     -10.380  12.046  68.515  1.00  0.00    -0.228 A  
HETATM   25  C   UNL     1      -9.597  11.170  67.731  1.00  0.00    -0.172 A  
HETATM   26  O   UNL     1      -8.553  11.644  66.985  1.00  0.00    -0.157 OA 
HETATM   27  C   UNL     1      -9.810   9.771  67.749  1.00  0.00    -0.191 A  
HETATM   28  C   UNL     1      -8.986   8.840  66.921  1.00  0.00    -0.132 C  
HETATM   29  H   UNL     1      -8.027  11.055  66.458  1.00  0.00     0.000 HD 
HETATM   30  C   UNL     1      -9.269   7.395  66.951  1.00  0.00    -0.183 A  
HETATM   31  O   UNL     1      -8.078   9.224  66.194  1.00  0.00    -0.108 OA 
HETATM   32  C   UNL     1      -8.547   6.527  66.122  1.00  0.00    -0.146 A  
HETATM   33  C   UNL     1      -8.818   5.160  66.118  1.00  0.00    -0.132 A  
HETATM   34  C   UNL     1      -9.811   4.650  66.955  1.00  0.00    -0.232 A  
HETATM   35  C   UNL     1     -10.525   5.500  67.785  1.00  0.00    -0.245 A  
HETATM   36  C   UNL     1     -10.247   6.883  67.781  1.00  0.00    -0.224 A  
HETATM   37  C   UNL     1     -11.010   7.779  68.660  1.00  0.00     0.166 C  
HETATM   38  C   UNL     1     -10.802   9.239  68.577  1.00  0.00    -0.119 A  
HETATM   39  O   UNL     1     -11.817   7.323  69.469  1.00  0.00     0.236 OA 
BRANCH  16  40
HETATM   40  C   UNL     1     -12.604  14.595  71.337  1.00  0.00    -0.335 C  
HETATM   41  O   UNL     1     -13.812  14.660  71.577  1.00  0.00    -0.385 OA 
HETATM   42  C   UNL     1     -11.603  15.288  72.238  1.00  0.00    -0.530 C  
ENDBRANCH  16  40
ENDBRANCH  13  14
ENDBRANCH   4  13
TORSDOF 3
ENDMDL
MODEL      104
REMARK 921   NORMALIZED FREE ENERGY PREDICTED BY IDOCK:   -2.16 KCAL/MOL
REMARK 922        TOTAL FREE ENERGY PREDICTED BY IDOCK:   -3.43 KCAL/MOL
REMARK 923 INTER-LIGAND FREE ENERGY PREDICTED BY IDOCK:   -3.37 KCAL/MOL
REMARK 924 INTRA-LIGAND FREE ENERGY PREDICTED BY IDOCK:   -0.07 KCAL/MOL
REMARK 927      BINDING AFFINITY PREDICTED BY RF-SCORE:    0.00 PKD
ROOT
HETATM    1  C   UNL     1     -11.708  17.076  65.402  1.00  0.00     1.658 C  
HETATM    2  C   UNL     1     -10.876  16.822  66.662  1.00  0.00    -0.005 C  
HETATM    3  O   UNL     1     -11.654  15.951  67.505  1.00  0.00    -0.103 OA 
HETATM    4  C   UNL     1     -11.133  15.745  68.812  1.00  0.00    -0.321 C  
HETATM    5  H1  UNL     1      -9.277  19.938  68.887  1.00  0.00     0.000 HD 
HETATM    6  C   UNL     1     -10.919  17.074  69.536  1.00  0.00     0.072 C  
HETATM    7  C   UNL     1      -9.971  17.990  68.762  1.00  0.00    -0.374 C  
HETATM    8  H   UNL     1     -11.252  19.940  67.697  1.00  0.00     0.000 HD 
HETATM    9  H2  UNL     1      -9.659  19.265  70.391  1.00  0.00     0.000 HD 
HETATM   10  N   UNL     1      -9.910  19.327  69.404  1.00  0.00    -0.239 NA 
HETATM   11  C   UNL     1     -10.446  18.159  67.310  1.00  0.00    -0.393 C  
HETATM   12  O   UNL     1     -11.516  19.119  67.299  1.00  0.00     0.090 OA 
ENDROOT
BRANCH   4  13
HETATM   13  O   UNL     1      -9.937  14.969  68.831  1.00  0.00    -0.221 OA 
BRANCH  13  14
HETATM   14  C   UNL     1      -9.634  14.151  67.681  1.00  0.00    -0.216 C  
HETATM   15  C   UNL     1      -8.622  14.965  66.854  1.00  0.00    -0.269 C  
HETATM   16  C   UNL     1      -7.282  15.096  67.608  1.00  0.00    -0.185 C  
HETATM   17  C   UNL     1      -6.635  13.716  67.659  1.00  0.00    -0.176 C  
HETATM   18  O   UNL     1      -7.442  15.583  68.948  1.00  0.00    -0.134 OA 
HETATM   19  H   UNL     1      -5.378  10.282  68.025  1.00  0.00     0.000 HD 
HETATM   20  O   UNL     1      -5.733  11.160  67.942  1.00  0.00    -0.043 OA 
HETATM   21  C   UNL     1      -7.095  11.289  68.074  1.00  0.00    -0.070 A  
HETATM   22  C   UNL     1      -7.620  12.586  67.950  1.00  0.00    -0.133 A  
HETATM   23  H   UNL     1      -6.616  15.664  69.412  1.00  0.00     0.000 HD 
HETATM   24  C   UNL     1      -9.028  12.782  67.990  1.00  0.00    -0.196 A  
HETATM   25  C   UNL     1      -9.855  11.655  68.195  1.00  0.00    -0.191 A  
HETATM   26  O   UNL     1     -11.218  11.776  68.174  1.00  0.00    -0.222 OA 
HETATM   27  C   UNL     1      -9.313  10.357  68.350  1.00  0.00    -0.150 A  
HETATM   28  C   UNL     1     -10.183   9.163  68.568  1.00  0.00    -0.198 C  
HETATM   29  H   UNL     1     -11.774  11.018  68.311  1.00  0.00     0.000 HD 
HETATM   30  C   UNL     1      -9.567   7.838  68.756  1.00  0.00    -0.154 A  
HETATM   31  O   UNL     1     -11.405   9.230  68.613  1.00  0.00     0.146 OA 
HETATM   32  C   UNL     1     -10.375   6.728  69.033  1.00  0.00    -0.212 A  
HETATM   33  C   UNL     1      -9.808   5.471  69.238  1.00  0.00    -0.233 A  
HETATM   34  C   UNL     1      -8.424   5.315  69.157  1.00  0.00    -0.098 A  
HETATM   35  C   UNL     1      -7.617   6.407  68.876  1.00  0.00    -0.100 A  
HETATM   36  C   UNL     1      -8.198   7.676  68.673  1.00  0.00    -0.128 A  
HETATM   37  C   UNL     1      -7.337   8.829  68.378  1.00  0.00    -0.086 C  
HETATM   38  C   UNL     1      -7.929  10.180  68.277  1.00  0.00    -0.101 A  
HETATM   39  O   UNL     1      -6.128   8.680  68.209  1.00  0.00    -0.048 OA 
BRANCH  16  40
HETATM   40  C   UNL     1      -6.353  16.115  66.924  1.00  0.00     0.079 C  
HETATM   41  O   UNL     1      -5.128  16.085  67.061  1.00  0.00    -0.332 OA 
HETATM   42  C   UNL     1      -7.006  17.187  66.076  1.00  0.00    -0.080 C  
ENDBRANCH  16  40
ENDBRANCH  13  14
ENDBRANCH   4  13
TORSDOF 3
ENDMDL
MODEL      105
REMARK 921   NORMALIZED FREE ENERGY PREDICTED BY IDOCK:   -2.00 KCAL/MOL
REMARK 922        TOTAL FREE ENERGY PREDICTED BY IDOCK:   -3.24 KCAL/MOL
REMARK 923 INTER-LIGAND FREE ENERGY PREDICTED BY IDOCK:   -3.52 KCAL/MOL
REMARK 924 INTRA-LIGAND FREE ENERGY PREDICTED BY IDOCK:    0.28 KCAL/MOL
REMARK 927      BINDING AFFINITY PREDICTED BY RF-SCORE:    0.00 PKD
ROOT
HETATM    1  C   UNL     1      -8.165   8.398  71.993  1.00  0.00    -0.212 C  
HETATM    2  C   UNL     1      -7.667   8.768  70.594  1.00  0.00    -0.094 C  
HETATM    3  O   UNL     1      -6.865   7.665  70.132  1.00  0.00    -0.048 OA 
HETATM    4  C   UNL     1      -6.154   7.893  68.923  1.00  0.00    -0.039 C  
HETATM    5  H1  UNL     1      -5.742  12.367  69.842  1.00  0.00     0.000 HD 
HETATM    6  C   UNL     1      -5.271   9.137  69.027  1.00  0.00    -0.037 C  
HETATM    7  C   UNL     1      -6.092  10.382  69.364  1.00  0.00    -0.044 C  
HETATM    8  H   UNL     1      -5.674  11.124  71.783  1.00  0.00     0.000 HD 
HETATM    9  H2  UNL     1      -4.555  11.700  68.840  1.00  0.00     0.000 HD 
HETATM   10  N   UNL     1      -5.194  11.536  69.618  1.00  0.00    -0.056 NA 
HETATM   11  C   UNL     1      -6.954  10.141  70.614  1.00  0.00     0.047 C  
HETATM   12  O   UNL     1      -6.112  10.282  71.771  1.00  0.00    -0.284 OA 
ENDROOT
BRANCH   4  13
HETATM   13  O   UNL     1      -6.997   7.976  67.775  1.00  0.00    -0.074 OA 
BRANCH  13  14
HETATM   14  C   UNL     1      -6.581   8.823  66.682  1.00  0.00    -0.064 C  
HETATM   15  C   UNL     1      -5.976   7.871  65.633  1.00  0.00    -0.038 C  
HETATM   16  C   UNL     1      -7.066   6.958  65.032  1.00  0.00    -0.064 C  
HETATM   17  C   UNL     1      -7.998   7.828  64.194  1.00  0.00    -0.113 C  
HETATM   18  O   UNL     1      -7.840   6.281  66.033  1.00  0.00    -0.100 OA 
HETATM   19  H   UNL     1     -10.358  10.093  62.520  1.00  0.00     0.000 HD 
HETATM   20  O   UNL     1      -9.749   9.526  62.979  1.00  0.00     0.364 OA 
HETATM   21  C   UNL     1      -9.234  10.006  64.161  1.00  0.00    -0.271 A  
HETATM   22  C   UNL     1      -8.332   9.169  64.840  1.00  0.00    -0.169 A  
HETATM   23  H   UNL     1      -8.511   5.719  65.663  1.00  0.00     0.000 HD 
HETATM   24  C   UNL     1      -7.695   9.637  66.023  1.00  0.00    -0.102 A  
HETATM   25  C   UNL     1      -8.026  10.926  66.497  1.00  0.00    -0.152 A  
HETATM   26  O   UNL     1      -7.392  11.451  67.591  1.00  0.00    -0.093 OA 
HETATM   27  C   UNL     1      -8.959  11.747  65.821  1.00  0.00    -0.011 A  
HETATM   28  C   UNL     1      -9.312  13.110  66.320  1.00  0.00    -0.127 C  
HETATM   29  H   UNL     1      -7.615  12.318  67.910  1.00  0.00     0.000 HD 
HETATM   30  C   UNL     1     -10.313  13.912  65.596  1.00  0.00    -0.337 A  
HETATM   31  O   UNL     1      -8.814  13.599  67.325  1.00  0.00    -0.203 OA 
HETATM   32  C   UNL     1     -10.702  15.160  66.100  1.00  0.00    -0.327 A  
HETATM   33  C   UNL     1     -11.666  15.922  65.443  1.00  0.00     0.445 A  
HETATM   34  C   UNL     1     -12.243  15.442  64.267  1.00  0.00    -0.140 A  
HETATM   35  C   UNL     1     -11.860  14.212  63.757  1.00  0.00    -0.079 A  
HETATM   36  C   UNL     1     -10.886  13.445  64.429  1.00  0.00    -0.422 A  
HETATM   37  C   UNL     1     -10.487  12.140  63.885  1.00  0.00    -0.409 C  
HETATM   38  C   UNL     1      -9.552  11.283  64.643  1.00  0.00    -0.265 A  
HETATM   39  O   UNL     1     -10.919  11.757  62.799  1.00  0.00     0.073 OA 
BRANCH  16  40
HETATM   40  C   UNL     1      -6.448   5.834  64.182  1.00  0.00    -0.033 C  
HETATM   41  O   UNL     1      -6.876   5.543  63.063  1.00  0.00    -0.035 OA 
HETATM   42  C   UNL     1      -5.285   5.072  64.782  1.00  0.00    -0.012 C  
ENDBRANCH  16  40
ENDBRANCH  13  14
ENDBRANCH   4  13
TORSDOF 3
ENDMDL
MODEL      106
REMARK 921   NORMALIZED FREE ENERGY PREDICTED BY IDOCK:   -1.81 KCAL/MOL
REMARK 922        TOTAL FREE ENERGY PREDICTED BY IDOCK:   -3.01 KCAL/MOL
REMARK 923 INTER-LIGAND FREE ENERGY PREDICTED BY IDOCK:   -2.42 KCAL/MOL
REMARK 924 INTRA-LIGAND FREE ENERGY PREDICTED BY IDOCK:   -0.59 KCAL/MOL
REMARK 927      BINDING AFFINITY PREDICTED BY RF-SCORE:    0.00 PKD
ROOT
HETATM    1  C   UNL     1      -9.073  15.656  67.627  1.00  0.00    -0.193 C  
HETATM    2  C   UNL     1      -9.573  14.356  66.993  1.00  0.00    -0.247 C  
HETATM    3  O   UNL     1      -8.797  14.152  65.796  1.00  0.00     0.453 OA 
HETATM    4  C   UNL     1      -9.237  13.090  64.960  1.00  0.00     0.875 C  
HETATM    5  H1  UNL     1     -13.600  13.703  66.233  1.00  0.00     0.000 HD 
HETATM    6  C   UNL     1     -10.707  13.263  64.574  1.00  0.00    -0.428 C  
HETATM    7  C   UNL     1     -11.608  13.329  65.807  1.00  0.00    -0.337 C  
HETATM    8  H   UNL     1     -12.475  15.715  66.175  1.00  0.00     0.000 HD 
HETATM    9  H2  UNL     1     -13.359  13.010  64.709  1.00  0.00     0.000 HD 
HETATM   10  N   UNL     1     -12.999  13.659  65.409  1.00  0.00    -0.699 NA 
HETATM   11  C   UNL     1     -11.106  14.403  66.787  1.00  0.00    -0.323 C  
HETATM   12  O   UNL     1     -11.535  15.686  66.302  1.00  0.00    -0.034 OA 
ENDROOT
BRANCH   4  13
HETATM   13  O   UNL     1      -9.019  11.797  65.520  1.00  0.00    -0.064 OA 
BRANCH  13  14
HETATM   14  C   UNL     1      -7.716  11.195  65.362  1.00  0.00     0.340 C  
HETATM   15  C   UNL     1      -6.822  11.868  66.420  1.00  0.00     0.350 C  
HETATM   16  C   UNL     1      -7.268  11.472  67.843  1.00  0.00    -0.085 C  
HETATM   17  C   UNL     1      -6.957   9.992  68.038  1.00  0.00    -0.080 C  
HETATM   18  O   UNL     1      -8.669  11.684  68.067  1.00  0.00    -0.144 OA 
HETATM   19  H   UNL     1      -6.492   6.352  68.233  1.00  0.00     0.000 HD 
HETATM   20  O   UNL     1      -6.627   7.289  68.154  1.00  0.00    -0.046 OA 
HETATM   21  C   UNL     1      -7.080   7.744  66.938  1.00  0.00    -0.081 A  
HETATM   22  C   UNL     1      -7.280   9.130  66.820  1.00  0.00    -0.086 A  
HETATM   23  H   UNL     1      -8.944  11.441  68.943  1.00  0.00     0.000 HD 
HETATM   24  C   UNL     1      -7.664   9.680  65.566  1.00  0.00    -0.112 A  
HETATM   25  C   UNL     1      -7.870   8.797  64.482  1.00  0.00    -0.129 A  
HETATM   26  O   UNL     1      -8.173   9.279  63.237  1.00  0.00    -0.154 OA 
HETATM   27  C   UNL     1      -7.695   7.400  64.621  1.00  0.00    -0.118 A  
HETATM   28  C   UNL     1      -7.912   6.463  63.479  1.00  0.00    -0.084 C  
HETATM   29  H   UNL     1      -8.311   8.685  62.509  1.00  0.00     0.000 HD 
HETATM   30  C   UNL     1      -7.748   5.014  63.685  1.00  0.00    -0.075 A  
HETATM   31  O   UNL     1      -8.240   6.842  62.362  1.00  0.00    -0.122 OA 
HETATM   32  C   UNL     1      -8.022   4.126  62.637  1.00  0.00    -0.067 A  
HETATM   33  C   UNL     1      -7.896   2.751  62.820  1.00  0.00    -0.067 A  
HETATM   34  C   UNL     1      -7.484   2.253  64.057  1.00  0.00    -0.059 A  
HETATM   35  C   UNL     1      -7.204   3.124  65.098  1.00  0.00    -0.066 A  
HETATM   36  C   UNL     1      -7.337   4.515  64.906  1.00  0.00    -0.072 A  
HETATM   37  C   UNL     1      -7.042   5.432  66.014  1.00  0.00    -0.068 C  
HETATM   38  C   UNL     1      -7.287   6.881  65.853  1.00  0.00    -0.079 A  
HETATM   39  O   UNL     1      -6.585   5.006  67.074  1.00  0.00    -0.047 OA 
BRANCH  16  40
HETATM   40  C   UNL     1      -6.562  12.329  68.909  1.00  0.00    -0.094 C  
HETATM   41  O   UNL     1      -6.829  13.520  69.079  1.00  0.00    -0.108 OA 
HETATM   42  C   UNL     1      -5.498  11.652  69.747  1.00  0.00    -0.076 C  
ENDBRANCH  16  40
ENDBRANCH  13  14
ENDBRANCH   4  13
TORSDOF 3
ENDMDL
MODEL      107
REMARK 921   NORMALIZED FREE ENERGY PREDICTED BY IDOCK:   -1.67 KCAL/MOL
REMARK 922        TOTAL FREE ENERGY PREDICTED BY IDOCK:   -2.85 KCAL/MOL
REMARK 923 INTER-LIGAND FREE ENERGY PREDICTED BY IDOCK:   -3.18 KCAL/MOL
REMARK 924 INTRA-LIGAND FREE ENERGY PREDICTED BY IDOCK:    0.33 KCAL/MOL
REMARK 927      BINDING AFFINITY PREDICTED BY RF-SCORE:    0.00 PKD
ROOT
HETATM    1  C   UNL     1     -13.421   9.666  71.692  1.00  0.00    -0.455 C  
HETATM    2  C   UNL     1     -13.124  10.705  70.608  1.00  0.00    -0.169 C  
HETATM    3  O   UNL     1     -11.724  10.584  70.288  1.00  0.00    -0.278 OA 
HETATM    4  C   UNL     1     -11.206  11.593  69.432  1.00  0.00    -0.246 C  
HETATM    5  H1  UNL     1     -14.160  14.697  71.067  1.00  0.00     0.000 HD 
HETATM    6  C   UNL     1     -11.464  12.988  70.003  1.00  0.00    -0.086 C  
HETATM    7  C   UNL     1     -12.957  13.239  70.220  1.00  0.00     0.305 C  
HETATM    8  H   UNL     1     -13.531  13.218  72.720  1.00  0.00     0.000 HD 
HETATM    9  H2  UNL     1     -12.714  15.305  70.435  1.00  0.00     0.000 HD 
HETATM   10  N   UNL     1     -13.163  14.530  70.922  1.00  0.00    -0.357 NA 
HETATM   11  C   UNL     1     -13.578  12.112  71.062  1.00  0.00     1.065 C  
HETATM   12  O   UNL     1     -13.252  12.354  72.441  1.00  0.00    -0.419 OA 
ENDROOT
BRANCH   4  13
HETATM   13  O   UNL     1     -11.689  11.506  68.093  1.00  0.00    -0.426 OA 
BRANCH  13  14
HETATM   14  C   UNL     1     -11.518  10.260  67.385  1.00  0.00     0.389 C  
HETATM   15  C   UNL     1     -11.491  10.637  65.892  1.00  0.00     0.888 C  
HETATM   16  C   UNL     1     -10.227  11.456  65.559  1.00  0.00    -0.264 C  
HETATM   17  C   UNL     1      -9.020  10.531  65.690  1.00  0.00    -0.200 C  
HETATM   18  O   UNL     1     -10.045  12.580  66.432  1.00  0.00    -0.233 OA 
HETATM   19  H   UNL     1      -6.192   8.295  66.399  1.00  0.00     0.000 HD 
HETATM   20  O   UNL     1      -6.936   8.865  66.245  1.00  0.00    -0.077 OA 
HETATM   21  C   UNL     1      -7.987   8.758  67.127  1.00  0.00    -0.096 A  
HETATM   22  C   UNL     1      -9.087   9.602  66.899  1.00  0.00    -0.160 A  
HETATM   23  H   UNL     1      -9.266  13.084  66.226  1.00  0.00     0.000 HD 
HETATM   24  C   UNL     1     -10.244   9.484  67.719  1.00  0.00    -0.265 A  
HETATM   25  C   UNL     1     -10.227   8.540  68.770  1.00  0.00    -0.200 A  
HETATM   26  O   UNL     1     -11.336   8.338  69.545  1.00  0.00    -0.441 OA 
HETATM   27  C   UNL     1      -9.100   7.718  69.009  1.00  0.00    -0.144 A  
HETATM   28  C   UNL     1      -9.077   6.720  70.119  1.00  0.00    -0.155 C  
HETATM   29  H   UNL     1     -11.324   7.703  70.252  1.00  0.00     0.000 HD 
HETATM   30  C   UNL     1      -7.867   5.911  70.345  1.00  0.00    -0.105 A  
HETATM   31  O   UNL     1     -10.024   6.544  70.874  1.00  0.00    -0.183 OA 
HETATM   32  C   UNL     1      -7.813   5.026  71.429  1.00  0.00    -0.109 A  
HETATM   33  C   UNL     1      -6.668   4.271  71.674  1.00  0.00    -0.030 A  
HETATM   34  C   UNL     1      -5.567   4.390  70.826  1.00  0.00    -0.012 A  
HETATM   35  C   UNL     1      -5.612   5.258  69.746  1.00  0.00    -0.012 A  
HETATM   36  C   UNL     1      -6.774   6.022  69.507  1.00  0.00    -0.056 A  
HETATM   37  C   UNL     1      -6.815   6.942  68.363  1.00  0.00    -0.074 C  
HETATM   38  C   UNL     1      -7.984   7.826  68.173  1.00  0.00    -0.122 A  
HETATM   39  O   UNL     1      -5.886   6.979  67.557  1.00  0.00    -0.022 OA 
BRANCH  16  40
HETATM   40  C   UNL     1     -10.307  12.060  64.146  1.00  0.00    -0.347 C  
HETATM   41  O   UNL     1      -9.569  12.977  63.778  1.00  0.00     0.125 OA 
HETATM   42  C   UNL     1     -11.353  11.492  63.209  1.00  0.00    -0.208 C  
ENDBRANCH  16  40
ENDBRANCH  13  14
ENDBRANCH   4  13
TORSDOF 3
ENDMDL
MODEL      108
REMARK 921   NORMALIZED FREE ENERGY PREDICTED BY IDOCK:   -1.50 KCAL/MOL
REMARK 922        TOTAL FREE ENERGY PREDICTED BY IDOCK:   -2.65 KCAL/MOL
REMARK 923 INTER-LIGAND FREE ENERGY PREDICTED BY IDOCK:   -3.27 KCAL/MOL
REMARK 924 INTRA-LIGAND FREE ENERGY PREDICTED BY IDOCK:    0.62 KCAL/MOL
REMARK 927      BINDING AFFINITY PREDICTED BY RF-SCORE:    0.00 PKD
ROOT
HETATM    1  C   UNL     1      -9.992   8.318  73.019  1.00  0.00    -0.220 C  
HETATM    2  C   UNL     1     -10.575   8.908  71.732  1.00  0.00    -0.362 C  
HETATM    3  O   UNL     1     -10.456  10.339  71.841  1.00  0.00     1.589 OA 
HETATM    4  C   UNL     1     -11.113  11.083  70.823  1.00  0.00     0.694 C  
HETATM    5  H1  UNL     1     -14.355   7.871  70.371  1.00  0.00     0.000 HD 
HETATM    6  C   UNL     1     -12.595  10.714  70.739  1.00  0.00    -0.479 C  
HETATM    7  C   UNL     1     -12.788   9.222  70.468  1.00  0.00     0.358 C  
HETATM    8  H   UNL     1     -13.650   8.017  72.562  1.00  0.00     0.000 HD 
HETATM    9  H2  UNL     1     -14.799   9.443  69.936  1.00  0.00     0.000 HD 
HETATM   10  N   UNL     1     -14.227   8.867  70.553  1.00  0.00     0.639 NA 
HETATM   11  C   UNL     1     -12.009   8.380  71.491  1.00  0.00    -0.299 C  
HETATM   12  O   UNL     1     -12.770   8.342  72.710  1.00  0.00    -0.190 OA 
ENDROOT
BRANCH   4  13
HETATM   13  O   UNL     1     -10.497  10.963  69.543  1.00  0.00    -0.215 OA 
BRANCH  13  14
HETATM   14  C   UNL     1     -11.208  10.251  68.507  1.00  0.00    -0.214 C  
HETATM   15  C   UNL     1     -12.034  11.320  67.767  1.00  0.00    -0.014 C  
HETATM   16  C   UNL     1     -11.110  12.297  67.011  1.00  0.00    -0.287 C  
HETATM   17  C   UNL     1     -10.454  11.533  65.865  1.00  0.00    -0.303 C  
HETATM   18  O   UNL     1     -10.082  12.851  67.846  1.00  0.00    -0.219 OA 
HETATM   19  H   UNL     1      -8.680   9.481  63.386  1.00  0.00     0.000 HD 
HETATM   20  O   UNL     1      -9.132   9.989  64.050  1.00  0.00    -0.220 OA 
HETATM   21  C   UNL     1      -9.338   9.373  65.262  1.00  0.00    -0.238 A  
HETATM   22  C   UNL     1     -10.005  10.124  66.244  1.00  0.00    -0.304 A  
HETATM   23  H   UNL     1      -9.513  13.453  67.380  1.00  0.00     0.000 HD 
HETATM   24  C   UNL     1     -10.329   9.520  67.491  1.00  0.00    -0.306 A  
HETATM   25  C   UNL     1      -9.927   8.184  67.713  1.00  0.00    -0.181 A  
HETATM   26  O   UNL     1     -10.271   7.533  68.866  1.00  0.00    -0.197 OA 
HETATM   27  C   UNL     1      -9.227   7.448  66.727  1.00  0.00    -0.190 A  
HETATM   28  C   UNL     1      -8.799   6.036  66.958  1.00  0.00    -0.113 C  
HETATM   29  H   UNL     1     -10.001   6.635  69.015  1.00  0.00     0.000 HD 
HETATM   30  C   UNL     1      -8.045   5.325  65.912  1.00  0.00    -0.110 A  
HETATM   31  O   UNL     1      -9.035   5.431  67.996  1.00  0.00    -0.109 OA 
HETATM   32  C   UNL     1      -7.578   4.026  66.151  1.00  0.00    -0.089 A  
HETATM   33  C   UNL     1      -6.841   3.346  65.183  1.00  0.00    -0.045 A  
HETATM   34  C   UNL     1      -6.574   3.962  63.959  1.00  0.00    -0.042 A  
HETATM   35  C   UNL     1      -7.037   5.244  63.710  1.00  0.00    -0.048 A  
HETATM   36  C   UNL     1      -7.780   5.927  64.697  1.00  0.00    -0.100 A  
HETATM   37  C   UNL     1      -8.266   7.286  64.427  1.00  0.00     0.010 C  
HETATM   38  C   UNL     1      -8.945   8.048  65.497  1.00  0.00    -0.046 A  
HETATM   39  O   UNL     1      -8.118   7.795  63.317  1.00  0.00    -0.139 OA 
BRANCH  16  40
HETATM   40  C   UNL     1     -11.892  13.514  66.486  1.00  0.00    -0.399 C  
HETATM   41  O   UNL     1     -12.142  14.493  67.193  1.00  0.00    -0.397 OA 
HETATM   42  C   UNL     1     -12.367  13.463  65.049  1.00  0.00    -0.481 C  
ENDBRANCH  16  40
ENDBRANCH  13  14
ENDBRANCH   4  13
TORSDOF 3
ENDMDL
MODEL      109
REMARK 921   NORMALIZED FREE ENERGY PREDICTED BY IDOCK:   -1.46 KCAL/MOL
REMARK 922        TOTAL FREE ENERGY PREDICTED BY IDOCK:   -2.60 KCAL/MOL
REMARK 923 INTER-LIGAND FREE ENERGY PREDICTED BY IDOCK:   -2.17 KCAL/MOL
REMARK 924 INTRA-LIGAND FREE ENERGY PREDICTED BY IDOCK:   -0.43 KCAL/MOL
REMARK 927      BINDING AFFINITY PREDICTED BY RF-SCORE:    0.00 PKD
ROOT
HETATM    1  C   UNL     1     -11.402   5.739  70.050  1.00  0.00    -0.035 C  
HETATM    2  C   UNL     1     -10.064   6.415  69.741  1.00  0.00    -0.176 C  
HETATM    3  O   UNL     1      -9.542   5.781  68.557  1.00  0.00    -0.120 OA 
HETATM    4  C   UNL     1      -8.211   6.141  68.211  1.00  0.00    -0.114 C  
HETATM    5  H1  UNL     1      -7.091   6.790  72.611  1.00  0.00     0.000 HD 
HETATM    6  C   UNL     1      -7.250   5.888  69.374  1.00  0.00    -0.067 C  
HETATM    7  C   UNL     1      -7.665   6.663  70.625  1.00  0.00    -0.104 C  
HETATM    8  H   UNL     1      -8.624   5.081  72.402  1.00  0.00     0.000 HD 
HETATM    9  H2  UNL     1      -5.821   6.385  71.571  1.00  0.00     0.000 HD 
HETATM   10  N   UNL     1      -6.814   6.273  71.776  1.00  0.00    -0.063 NA 
HETATM   11  C   UNL     1      -9.135   6.377  70.976  1.00  0.00    -0.154 C  
HETATM   12  O   UNL     1      -9.194   5.105  71.643  1.00  0.00    -0.142 OA 
ENDROOT
BRANCH   4  13
HETATM   13  O   UNL     1      -8.087   7.484  67.747  1.00  0.00    -0.116 OA 
BRANCH  13  14
HETATM   14  C   UNL     1      -6.763   8.049  67.633  1.00  0.00    -0.069 C  
HETATM   15  C   UNL     1      -6.388   7.919  66.145  1.00  0.00    -0.046 C  
HETATM   16  C   UNL     1      -7.281   8.829  65.277  1.00  0.00    -0.084 C  
HETATM   17  C   UNL     1      -6.916  10.278  65.586  1.00  0.00    -0.133 C  
HETATM   18  O   UNL     1      -8.681   8.641  65.527  1.00  0.00    -0.172 OA 
HETATM   19  H   UNL     1      -6.192  13.705  66.696  1.00  0.00     0.000 HD 
HETATM   20  O   UNL     1      -6.383  12.810  66.441  1.00  0.00     0.693 OA 
HETATM   21  C   UNL     1      -6.404  11.874  67.448  1.00  0.00    -0.128 A  
HETATM   22  C   UNL     1      -6.685  10.550  67.070  1.00  0.00    -0.082 A  
HETATM   23  H   UNL     1      -9.231   9.202  64.992  1.00  0.00     0.000 HD 
HETATM   24  C   UNL     1      -6.638   9.516  68.046  1.00  0.00    -0.062 A  
HETATM   25  C   UNL     1      -6.345   9.869  69.382  1.00  0.00    -0.045 A  
HETATM   26  O   UNL     1      -6.220   8.906  70.347  1.00  0.00    -0.036 OA 
HETATM   27  C   UNL     1      -6.094  11.210  69.756  1.00  0.00    -0.107 A  
HETATM   28  C   UNL     1      -5.785  11.588  71.167  1.00  0.00     0.138 C  
HETATM   29  H   UNL     1      -6.023   9.144  71.245  1.00  0.00     0.000 HD 
HETATM   30  C   UNL     1      -5.563  13.003  71.510  1.00  0.00     0.045 A  
HETATM   31  O   UNL     1      -5.718  10.769  72.075  1.00  0.00    -0.213 OA 
HETATM   32  C   UNL     1      -5.345  13.371  72.843  1.00  0.00     0.085 A  
HETATM   33  C   UNL     1      -5.158  14.707  73.190  1.00  0.00    -0.233 A  
HETATM   34  C   UNL     1      -5.178  15.688  72.198  1.00  0.00     0.203 A  
HETATM   35  C   UNL     1      -5.386  15.334  70.874  1.00  0.00    -0.124 A  
HETATM   36  C   UNL     1      -5.578  13.978  70.531  1.00  0.00    -0.144 A  
HETATM   37  C   UNL     1      -5.800  13.610  69.127  1.00  0.00    -0.084 C  
HETATM   38  C   UNL     1      -6.114  12.209  68.778  1.00  0.00    -0.067 A  
HETATM   39  O   UNL     1      -5.722  14.456  68.238  1.00  0.00    -0.099 OA 
BRANCH  16  40
HETATM   40  C   UNL     1      -7.102   8.524  63.779  1.00  0.00    -0.092 C  
HETATM   41  O   UNL     1      -8.022   8.093  63.080  1.00  0.00    -0.148 OA 
HETATM   42  C   UNL     1      -5.730   8.758  63.184  1.00  0.00    -0.073 C  
ENDBRANCH  16  40
ENDBRANCH  13  14
ENDBRANCH   4  13
TORSDOF 3
ENDMDL
MODEL      110
REMARK 921   NORMALIZED FREE ENERGY PREDICTED BY IDOCK:   -1.36 KCAL/MOL
REMARK 922        TOTAL FREE ENERGY PREDICTED BY IDOCK:   -2.49 KCAL/MOL
REMARK 923 INTER-LIGAND FREE ENERGY PREDICTED BY IDOCK:   -4.72 KCAL/MOL
REMARK 924 INTRA-LIGAND FREE ENERGY PREDICTED BY IDOCK:    2.23 KCAL/MOL
REMARK 927      BINDING AFFINITY PREDICTED BY RF-SCORE:    0.00 PKD
ROOT
HETATM    1  C   UNL     1      -6.045   6.048  72.434  1.00  0.00    -0.041 C  
HETATM    2  C   UNL     1      -6.155   6.632  71.024  1.00  0.00    -0.036 C  
HETATM    3  O   UNL     1      -7.561   6.738  70.727  1.00  0.00    -0.088 OA 
HETATM    4  C   UNL     1      -7.875   7.087  69.385  1.00  0.00    -0.113 C  
HETATM    5  H1  UNL     1      -4.122   4.975  67.808  1.00  0.00     0.000 HD 
HETATM    6  C   UNL     1      -7.233   6.112  68.397  1.00  0.00    -0.084 C  
HETATM    7  C   UNL     1      -5.713   6.070  68.557  1.00  0.00    -0.012 C  
HETATM    8  H   UNL     1      -4.971   3.869  69.645  1.00  0.00     0.000 HD 
HETATM    9  H2  UNL     1      -5.414   5.105  66.725  1.00  0.00     0.000 HD 
HETATM   10  N   UNL     1      -5.136   5.003  67.701  1.00  0.00    -0.004 NA 
HETATM   11  C   UNL     1      -5.330   5.793  70.020  1.00  0.00    -0.008 C  
HETATM   12  O   UNL     1      -5.478   4.384  70.261  1.00  0.00    -0.010 OA 
ENDROOT
BRANCH   4  13
HETATM   13  O   UNL     1      -7.534   8.431  69.052  1.00  0.00    -0.089 OA 
BRANCH  13  14
HETATM   14  C   UNL     1      -7.956   8.945  67.771  1.00  0.00    -0.102 C  
HETATM   15  C   UNL     1      -8.968   7.918  67.229  1.00  0.00    -0.137 C  
HETATM   16  C   UNL     1     -10.248   7.908  68.090  1.00  0.00    -0.205 C  
HETATM   17  C   UNL     1     -10.971   9.233  67.874  1.00  0.00    -0.076 C  
HETATM   18  O   UNL     1      -9.976   7.752  69.491  1.00  0.00    -0.180 OA 
HETATM   19  H   UNL     1     -12.404  12.600  67.538  1.00  0.00     0.000 HD 
HETATM   20  O   UNL     1     -12.004  11.744  67.631  1.00  0.00    -0.599 OA 
HETATM   21  C   UNL     1     -10.631  11.708  67.688  1.00  0.00    -0.203 A  
HETATM   22  C   UNL     1     -10.039  10.441  67.825  1.00  0.00    -0.212 A  
HETATM   23  H   UNL     1     -10.765   7.746  70.021  1.00  0.00     0.000 HD 
HETATM   24  C   UNL     1      -8.622  10.321  67.803  1.00  0.00    -0.118 A  
HETATM   25  C   UNL     1      -7.852  11.500  67.684  1.00  0.00    -0.125 A  
HETATM   26  O   UNL     1      -6.488  11.437  67.589  1.00  0.00    -0.056 OA 
HETATM   27  C   UNL     1      -8.459  12.774  67.578  1.00  0.00    -0.181 A  
HETATM   28  C   UNL     1      -7.649  14.022  67.453  1.00  0.00    -0.148 C  
HETATM   29  H   UNL     1      -5.971  12.229  67.509  1.00  0.00     0.000 HD 
HETATM   30  C   UNL     1      -8.330  15.326  67.378  1.00  0.00    -0.202 A  
HETATM   31  O   UNL     1      -6.425  14.020  67.421  1.00  0.00    -0.304 OA 
HETATM   32  C   UNL     1      -7.574  16.505  67.334  1.00  0.00    -0.175 A  
HETATM   33  C   UNL     1      -8.200  17.749  67.288  1.00  0.00    -0.226 A  
HETATM   34  C   UNL     1      -9.594  17.821  67.277  1.00  0.00    -0.272 A  
HETATM   35  C   UNL     1     -10.350  16.661  67.313  1.00  0.00    -0.298 A  
HETATM   36  C   UNL     1      -9.709  15.405  67.362  1.00  0.00    -0.215 A  
HETATM   37  C   UNL     1     -10.517  14.179  67.404  1.00  0.00    -0.271 C  
HETATM   38  C   UNL     1      -9.854  12.869  67.570  1.00  0.00    -0.208 A  
HETATM   39  O   UNL     1     -11.741  14.233  67.296  1.00  0.00    -0.356 OA 
BRANCH  16  40
HETATM   40  C   UNL     1     -11.156   6.719  67.729  1.00  0.00    -0.201 C  
HETATM   41  O   UNL     1     -11.978   6.253  68.521  1.00  0.00     0.754 OA 
HETATM   42  C   UNL     1     -10.993   6.119  66.348  1.00  0.00     0.085 C  
ENDBRANCH  16  40
ENDBRANCH  13  14
ENDBRANCH   4  13
TORSDOF 3
ENDMDL
MODEL      111
REMARK 921   NORMALIZED FREE ENERGY PREDICTED BY IDOCK:   -0.74 KCAL/MOL
REMARK 922        TOTAL FREE ENERGY PREDICTED BY IDOCK:   -1.76 KCAL/MOL
REMARK 923 INTER-LIGAND FREE ENERGY PREDICTED BY IDOCK:   -4.07 KCAL/MOL
REMARK 924 INTRA-LIGAND FREE ENERGY PREDICTED BY IDOCK:    2.31 KCAL/MOL
REMARK 927      BINDING AFFINITY PREDICTED BY RF-SCORE:    0.00 PKD
ROOT
HETATM    1  C   UNL     1      -9.948   3.982  66.859  1.00  0.00    -0.059 C  
HETATM    2  C   UNL     1      -8.769   4.619  66.120  1.00  0.00    -0.114 C  
HETATM    3  O   UNL     1      -8.779   6.021  66.453  1.00  0.00    -0.124 OA 
HETATM    4  C   UNL     1      -7.869   6.827  65.716  1.00  0.00    -0.102 C  
HETATM    5  H1  UNL     1      -8.213   4.107  62.040  1.00  0.00     0.000 HD 
HETATM    6  C   UNL     1      -8.090   6.674  64.211  1.00  0.00    -0.044 C  
HETATM    7  C   UNL     1      -7.937   5.219  63.766  1.00  0.00    -0.105 C  
HETATM    8  H   UNL     1     -10.217   4.202  63.176  1.00  0.00     0.000 HD 
HETATM    9  H2  UNL     1      -7.790   5.716  61.739  1.00  0.00     0.000 HD 
HETATM   10  N   UNL     1      -8.315   5.078  62.337  1.00  0.00    -0.090 NA 
HETATM   11  C   UNL     1      -8.834   4.298  64.609  1.00  0.00    -0.141 C  
HETATM   12  O   UNL     1     -10.177   4.399  64.104  1.00  0.00    -0.044 OA 
ENDROOT
BRANCH   4  13
HETATM   13  O   UNL     1      -6.503   6.589  66.045  1.00  0.00    -0.041 OA 
BRANCH  13  14
HETATM   14  C   UNL     1      -6.079   6.813  67.407  1.00  0.00    -0.032 C  
HETATM   15  C   UNL     1      -5.533   8.253  67.436  1.00  0.00    -0.038 C  
HETATM   16  C   UNL     1      -6.668   9.271  67.204  1.00  0.00    -0.076 C  
HETATM   17  C   UNL     1      -7.584   9.239  68.424  1.00  0.00    -0.086 C  
HETATM   18  O   UNL     1      -7.446   8.982  66.034  1.00  0.00    -0.092 OA 
HETATM   19  H   UNL     1      -9.891   8.790  71.248  1.00  0.00     0.000 HD 
HETATM   20  O   UNL     1      -9.295   8.874  70.514  1.00  0.00    -0.171 OA 
HETATM   21  C   UNL     1      -8.737   7.710  70.039  1.00  0.00    -0.142 A  
HETATM   22  C   UNL     1      -7.854   7.833  68.953  1.00  0.00    -0.122 A  
HETATM   23  H   UNL     1      -8.146   9.610  65.891  1.00  0.00     0.000 HD 
HETATM   24  C   UNL     1      -7.174   6.682  68.466  1.00  0.00    -0.085 A  
HETATM   25  C   UNL     1      -7.446   5.436  69.075  1.00  0.00    -0.074 A  
HETATM   26  O   UNL     1      -6.770   4.310  68.692  1.00  0.00    -0.044 OA 
HETATM   27  C   UNL     1      -8.361   5.320  70.148  1.00  0.00    -0.098 A  
HETATM   28  C   UNL     1      -8.652   4.006  70.793  1.00  0.00    -0.072 C  
HETATM   29  H   UNL     1      -6.952   3.473  69.101  1.00  0.00     0.000 HD 
HETATM   30  C   UNL     1      -9.637   3.934  71.886  1.00  0.00    -0.217 A  
HETATM   31  O   UNL     1      -8.114   2.961  70.447  1.00  0.00    -0.042 OA 
HETATM   32  C   UNL     1      -9.967   2.693  72.446  1.00  0.00    -0.235 A  
HETATM   33  C   UNL     1     -10.915   2.603  73.463  1.00  0.00    -0.312 A  
HETATM   34  C   UNL     1     -11.535   3.760  73.936  1.00  0.00     0.050 A  
HETATM   35  C   UNL     1     -11.210   4.993  73.393  1.00  0.00    -0.391 A  
HETATM   36  C   UNL     1     -10.251   5.077  72.361  1.00  0.00    -0.254 A  
HETATM   37  C   UNL     1      -9.913   6.386  71.789  1.00  0.00    -0.177 C  
HETATM   38  C   UNL     1      -8.996   6.467  70.633  1.00  0.00    -0.148 A  
HETATM   39  O   UNL     1     -10.383   7.418  72.267  1.00  0.00    -0.201 OA 
BRANCH  16  40
HETATM   40  C   UNL     1      -6.111  10.687  66.970  1.00  0.00    -0.064 C  
HETATM   41  O   UNL     1      -6.215  11.265  65.886  1.00  0.00    -0.043 OA 
HETATM   42  C   UNL     1      -5.404  11.353  68.132  1.00  0.00    -0.042 C  
ENDBRANCH  16  40
ENDBRANCH  13  14
ENDBRANCH   4  13
TORSDOF 3
ENDMDL
MODEL      112
REMARK 921   NORMALIZED FREE ENERGY PREDICTED BY IDOCK:    1.26 KCAL/MOL
REMARK 922        TOTAL FREE ENERGY PREDICTED BY IDOCK:    0.59 KCAL/MOL
REMARK 923 INTER-LIGAND FREE ENERGY PREDICTED BY IDOCK:    1.40 KCAL/MOL
REMARK 924 INTRA-LIGAND FREE ENERGY PREDICTED BY IDOCK:   -0.80 KCAL/MOL
REMARK 927      BINDING AFFINITY PREDICTED BY RF-SCORE:    0.00 PKD
ROOT
HETATM    1  C   UNL     1      -9.413  18.807  69.383  1.00  0.00     0.107 C  
HETATM    2  C   UNL     1      -9.961  17.423  69.740  1.00  0.00     0.402 C  
HETATM    3  O   UNL     1     -10.778  17.001  68.631  1.00  0.00    -0.345 OA 
HETATM    4  C   UNL     1     -11.533  15.816  68.848  1.00  0.00    -0.378 C  
HETATM    5  H1  UNL     1     -11.917  16.709  73.330  1.00  0.00     0.000 HD 
HETATM    6  C   UNL     1     -12.413  15.941  70.092  1.00  0.00    -0.104 C  
HETATM    7  C   UNL     1     -11.582  16.236  71.341  1.00  0.00    -0.361 C  
HETATM    8  H   UNL     1     -11.914  18.662  72.105  1.00  0.00     0.000 HD 
HETATM    9  H2  UNL     1     -13.139  15.756  72.652  1.00  0.00     0.000 HD 
HETATM   10  N   UNL     1     -12.472  16.512  72.496  1.00  0.00    -0.164 NA 
HETATM   11  C   UNL     1     -10.675  17.457  71.112  1.00  0.00     1.913 C  
HETATM   12  O   UNL     1     -11.475  18.641  71.263  1.00  0.00     4.002 OA 
ENDROOT
BRANCH   4  13
HETATM   13  O   UNL     1     -10.732  14.638  68.921  1.00  0.00    -0.234 OA 
BRANCH  13  14
HETATM   14  C   UNL     1     -11.274  13.410  68.389  1.00  0.00    -0.279 C  
HETATM   15  C   UNL     1     -11.572  13.701  66.906  1.00  0.00    -0.397 C  
HETATM   16  C   UNL     1     -10.264  13.926  66.121  1.00  0.00    -0.301 C  
HETATM   17  C   UNL     1      -9.520  12.596  66.056  1.00  0.00    -0.140 C  
HETATM   18  O   UNL     1      -9.409  14.905  66.730  1.00  0.00    -0.223 OA 
HETATM   19  H   UNL     1      -7.677   9.426  66.296  1.00  0.00     0.000 HD 
HETATM   20  O   UNL     1      -8.158  10.244  66.266  1.00  0.00    -0.121 OA 
HETATM   21  C   UNL     1      -8.841  10.598  67.406  1.00  0.00    -0.132 A  
HETATM   22  C   UNL     1      -9.553  11.808  67.363  1.00  0.00    -0.173 A  
HETATM   23  H   UNL     1      -8.603  15.043  66.246  1.00  0.00     0.000 HD 
HETATM   24  C   UNL     1     -10.351  12.194  68.476  1.00  0.00    -0.233 A  
HETATM   25  C   UNL     1     -10.366  11.354  69.612  1.00  0.00     0.312 A  
HETATM   26  O   UNL     1     -11.169  11.642  70.683  1.00  0.00    -0.185 OA 
HETATM   27  C   UNL     1      -9.619  10.153  69.655  1.00  0.00    -0.237 A  
HETATM   28  C   UNL     1      -9.631   9.264  70.855  1.00  0.00    -0.269 C  
HETATM   29  H   UNL     1     -11.179  11.078  71.446  1.00  0.00     0.000 HD 
HETATM   30  C   UNL     1      -8.811   8.041  70.862  1.00  0.00    -0.147 A  
HETATM   31  O   UNL     1     -10.289   9.509  71.858  1.00  0.00    -0.035 OA 
HETATM   32  C   UNL     1      -8.761   7.241  72.011  1.00  0.00    -0.129 A  
HETATM   33  C   UNL     1      -7.971   6.094  72.045  1.00  0.00    -0.106 A  
HETATM   34  C   UNL     1      -7.229   5.732  70.920  1.00  0.00    -0.080 A  
HETATM   35  C   UNL     1      -7.277   6.513  69.776  1.00  0.00    -0.078 A  
HETATM   36  C   UNL     1      -8.077   7.675  69.750  1.00  0.00    -0.125 A  
HETATM   37  C   UNL     1      -8.120   8.499  68.535  1.00  0.00    -0.122 C  
HETATM   38  C   UNL     1      -8.865   9.775  68.541  1.00  0.00    -0.121 A  
HETATM   39  O   UNL     1      -7.547   8.133  67.510  1.00  0.00    -0.098 OA 
BRANCH  16  40
HETATM   40  C   UNL     1     -10.545  14.470  64.709  1.00  0.00    -0.377 C  
HETATM   41  O   UNL     1      -9.978  15.471  64.264  1.00  0.00     0.580 OA 
HETATM   42  C   UNL     1     -11.571  13.732  63.875  1.00  0.00    -0.229 C  
ENDBRANCH  16  40
ENDBRANCH  13  14
ENDBRANCH   4  13
TORSDOF 3
ENDMDL
MODEL      113
REMARK 921   NORMALIZED FREE ENERGY PREDICTED BY IDOCK:    1.80 KCAL/MOL
REMARK 922        TOTAL FREE ENERGY PREDICTED BY IDOCK:    1.23 KCAL/MOL
REMARK 923 INTER-LIGAND FREE ENERGY PREDICTED BY IDOCK:   -3.39 KCAL/MOL
REMARK 924 INTRA-LIGAND FREE ENERGY PREDICTED BY IDOCK:    4.62 KCAL/MOL
REMARK 927      BINDING AFFINITY PREDICTED BY RF-SCORE:    0.00 PKD
ROOT
HETATM    1  C   UNL     1     -12.499  14.222  73.340  1.00  0.00    -0.037 C  
HETATM    2  C   UNL     1     -12.582  14.363  71.818  1.00  0.00    -0.351 C  
HETATM    3  O   UNL     1     -11.548  13.525  71.266  1.00  0.00     0.454 OA 
HETATM    4  C   UNL     1     -11.338  13.661  69.867  1.00  0.00    -0.056 C  
HETATM    5  H1  UNL     1     -12.578  18.075  69.964  1.00  0.00     0.000 HD 
HETATM    6  C   UNL     1     -11.051  15.115  69.490  1.00  0.00    -0.287 C  
HETATM    7  C   UNL     1     -12.192  16.040  69.913  1.00  0.00    -0.031 C  
HETATM    8  H   UNL     1     -11.500  17.486  71.915  1.00  0.00     0.000 HD 
HETATM    9  H2  UNL     1     -11.529  17.623  68.717  1.00  0.00     0.000 HD 
HETATM   10  N   UNL     1     -11.816  17.458  69.682  1.00  0.00     2.122 NA 
HETATM   11  C   UNL     1     -12.519  15.851  71.403  1.00  0.00    -0.403 C  
HETATM   12  O   UNL     1     -11.539  16.572  72.170  1.00  0.00    -0.424 OA 
ENDROOT
BRANCH   4  13
HETATM   13  O   UNL     1     -12.407  13.144  69.078  1.00  0.00    -0.153 OA 
BRANCH  13  14
HETATM   14  C   UNL     1     -12.183  11.924  68.338  1.00  0.00     0.197 C  
HETATM   15  C   UNL     1     -11.385  12.343  67.089  1.00  0.00    -0.390 C  
HETATM   16  C   UNL     1      -9.975  12.830  67.481  1.00  0.00    -0.210 C  
HETATM   17  C   UNL     1      -9.187  11.627  67.991  1.00  0.00    -0.178 C  
HETATM   18  O   UNL     1      -9.997  13.836  68.504  1.00  0.00    -0.230 OA 
HETATM   19  H   UNL     1      -7.543   8.724  69.533  1.00  0.00     0.000 HD 
HETATM   20  O   UNL     1      -7.995   9.469  69.153  1.00  0.00    -0.086 OA 
HETATM   21  C   UNL     1      -9.332   9.595  69.449  1.00  0.00    -0.193 A  
HETATM   22  C   UNL     1     -10.000  10.696  68.888  1.00  0.00    -0.213 A  
HETATM   23  H   UNL     1      -9.128  14.136  68.745  1.00  0.00     0.000 HD 
HETATM   24  C   UNL     1     -11.402  10.840  69.081  1.00  0.00    -0.348 A  
HETATM   25  C   UNL     1     -12.071   9.880  69.872  1.00  0.00     0.127 A  
HETATM   26  O   UNL     1     -13.429   9.933  70.034  1.00  0.00    -0.241 OA 
HETATM   27  C   UNL     1     -11.381   8.793  70.458  1.00  0.00    -0.255 A  
HETATM   28  C   UNL     1     -12.085   7.777  71.297  1.00  0.00    -0.306 C  
HETATM   29  H   UNL     1     -13.879   9.288  70.566  1.00  0.00     0.000 HD 
HETATM   30  C   UNL     1     -11.315   6.681  71.911  1.00  0.00    -0.318 A  
HETATM   31  O   UNL     1     -13.289   7.814  71.516  1.00  0.00    -0.342 OA 
HETATM   32  C   UNL     1     -11.957   5.768  72.757  1.00  0.00    -0.070 A  
HETATM   33  C   UNL     1     -11.240   4.740  73.366  1.00  0.00    -0.425 A  
HETATM   34  C   UNL     1      -9.872   4.613  73.124  1.00  0.00    -0.170 A  
HETATM   35  C   UNL     1      -9.229   5.507  72.283  1.00  0.00    -0.153 A  
HETATM   36  C   UNL     1      -9.961   6.547  71.672  1.00  0.00    -0.194 A  
HETATM   37  C   UNL     1      -9.273   7.494  70.784  1.00  0.00    -0.158 C  
HETATM   38  C   UNL     1     -10.009   8.650  70.232  1.00  0.00    -0.204 A  
HETATM   39  O   UNL     1      -8.090   7.328  70.490  1.00  0.00    -0.106 OA 
BRANCH  16  40
HETATM   40  C   UNL     1      -9.260  13.491  66.290  1.00  0.00    -0.050 C  
HETATM   41  O   UNL     1      -8.499  14.452  66.429  1.00  0.00     0.072 OA 
HETATM   42  C   UNL     1      -9.538  12.924  64.914  1.00  0.00     0.218 C  
ENDBRANCH  16  40
ENDBRANCH  13  14
ENDBRANCH   4  13
TORSDOF 3
ENDMDL
MODEL      114
REMARK 921   NORMALIZED FREE ENERGY PREDICTED BY IDOCK:    1.99 KCAL/MOL
REMARK 922        TOTAL FREE ENERGY PREDICTED BY IDOCK:    1.45 KCAL/MOL
REMARK 923 INTER-LIGAND FREE ENERGY PREDICTED BY IDOCK:   -5.06 KCAL/MOL
REMARK 924 INTRA-LIGAND FREE ENERGY PREDICTED BY IDOCK:    6.50 KCAL/MOL
REMARK 927      BINDING AFFINITY PREDICTED BY RF-SCORE:    0.00 PKD
ROOT
HETATM    1  C   UNL     1     -11.296  15.580  64.428  1.00  0.00    -0.260 C  
HETATM    2  C   UNL     1     -10.361  16.157  65.494  1.00  0.00    -0.367 C  
HETATM    3  O   UNL     1     -10.778  15.603  66.756  1.00  0.00    -0.308 OA 
HETATM    4  C   UNL     1     -10.151  16.162  67.903  1.00  0.00    -0.244 C  
HETATM    5  H1  UNL     1      -9.713  20.240  65.851  1.00  0.00     0.000 HD 
HETATM    6  C   UNL     1     -10.330  17.680  67.945  1.00  0.00    -0.371 C  
HETATM    7  C   UNL     1      -9.761  18.348  66.692  1.00  0.00    -0.337 C  
HETATM    8  H   UNL     1     -11.648  19.187  65.170  1.00  0.00     0.000 HD 
HETATM    9  H2  UNL     1      -9.783  20.260  67.540  1.00  0.00     0.000 HD 
HETATM   10  N   UNL     1     -10.092  19.795  66.687  1.00  0.00    -0.423 NA 
HETATM   11  C   UNL     1     -10.342  17.702  65.424  1.00  0.00     0.177 C  
HETATM   12  O   UNL     1     -11.659  18.238  65.213  1.00  0.00     0.915 OA 
ENDROOT
BRANCH   4  13
HETATM   13  O   UNL     1      -8.772  15.820  68.020  1.00  0.00    -0.169 OA 
BRANCH  13  14
HETATM   14  C   UNL     1      -8.414  14.705  68.865  1.00  0.00    -0.136 C  
HETATM   15  C   UNL     1      -9.367  14.782  70.072  1.00  0.00     0.543 C  
HETATM   16  C   UNL     1     -10.820  14.496  69.638  1.00  0.00    -0.151 C  
HETATM   17  C   UNL     1     -10.910  13.028  69.237  1.00  0.00    -0.048 C  
HETATM   18  O   UNL     1     -11.240  15.306  68.531  1.00  0.00    -0.271 OA 
HETATM   19  H   UNL     1     -10.890   9.582  67.959  1.00  0.00     0.000 HD 
HETATM   20  O   UNL     1     -10.869  10.479  68.271  1.00  0.00    -0.211 OA 
HETATM   21  C   UNL     1      -9.745  11.211  67.965  1.00  0.00    -0.176 A  
HETATM   22  C   UNL     1      -9.713  12.538  68.426  1.00  0.00    -0.189 A  
HETATM   23  H   UNL     1     -12.135  15.130  68.264  1.00  0.00     0.000 HD 
HETATM   24  C   UNL     1      -8.546  13.325  68.221  1.00  0.00    -0.169 A  
HETATM   25  C   UNL     1      -7.465  12.748  67.518  1.00  0.00    -0.154 A  
HETATM   26  O   UNL     1      -6.293  13.437  67.352  1.00  0.00    -0.287 OA 
HETATM   27  C   UNL     1      -7.521  11.421  67.031  1.00  0.00    -0.147 A  
HETATM   28  C   UNL     1      -6.381  10.809  66.285  1.00  0.00    -0.129 C  
HETATM   29  H   UNL     1      -5.567  13.049  66.879  1.00  0.00     0.000 HD 
HETATM   30  C   UNL     1      -6.503   9.434  65.771  1.00  0.00    -0.069 A  
HETATM   31  O   UNL     1      -5.335  11.405  66.063  1.00  0.00    -0.243 OA 
HETATM   32  C   UNL     1      -5.466   8.881  65.009  1.00  0.00    -0.039 A  
HETATM   33  C   UNL     1      -5.574   7.591  64.493  1.00  0.00    -0.033 A  
HETATM   34  C   UNL     1      -6.722   6.839  64.746  1.00  0.00    -0.042 A  
HETATM   35  C   UNL     1      -7.750   7.375  65.504  1.00  0.00    -0.107 A  
HETATM   36  C   UNL     1      -7.635   8.683  66.021  1.00  0.00    -0.093 A  
HETATM   37  C   UNL     1      -8.731   9.246  66.822  1.00  0.00    -0.127 C  
HETATM   38  C   UNL     1      -8.664  10.653  67.268  1.00  0.00    -0.129 A  
HETATM   39  O   UNL     1      -9.700   8.554  67.129  1.00  0.00    -0.163 OA 
BRANCH  16  40
HETATM   40  C   UNL     1     -11.815  14.821  70.766  1.00  0.00    -0.312 C  
HETATM   41  O   UNL     1     -12.052  15.978  71.124  1.00  0.00    -0.413 OA 
HETATM   42  C   UNL     1     -12.496  13.652  71.447  1.00  0.00    -0.374 C  
ENDBRANCH  16  40
ENDBRANCH  13  14
ENDBRANCH   4  13
TORSDOF 3
ENDMDL
MODEL      115
REMARK 921   NORMALIZED FREE ENERGY PREDICTED BY IDOCK:    2.78 KCAL/MOL
REMARK 922        TOTAL FREE ENERGY PREDICTED BY IDOCK:    2.38 KCAL/MOL
REMARK 923 INTER-LIGAND FREE ENERGY PREDICTED BY IDOCK:    3.08 KCAL/MOL
REMARK 924 INTRA-LIGAND FREE ENERGY PREDICTED BY IDOCK:   -0.70 KCAL/MOL
REMARK 927      BINDING AFFINITY PREDICTED BY RF-SCORE:    0.00 PKD
ROOT
HETATM    1  C   UNL     1      -6.927  20.483  65.990  1.00  0.00    -0.233 C  
HETATM    2  C   UNL     1      -7.633  19.244  66.545  1.00  0.00    -0.252 C  
HETATM    3  O   UNL     1      -9.001  19.309  66.096  1.00  0.00    -0.386 OA 
HETATM    4  C   UNL     1      -9.874  18.340  66.662  1.00  0.00    -0.352 C  
HETATM    5  H1  UNL     1      -7.480  18.262  70.574  1.00  0.00     0.000 HD 
HETATM    6  C   UNL     1      -9.850  18.402  68.190  1.00  0.00    -0.365 C  
HETATM    7  C   UNL     1      -8.441  18.183  68.740  1.00  0.00    -0.208 C  
HETATM    8  H   UNL     1      -7.464  20.374  69.648  1.00  0.00     0.000 HD 
HETATM    9  H2  UNL     1      -9.112  17.835  70.690  1.00  0.00     0.000 HD 
HETATM   10  N   UNL     1      -8.421  18.409  70.207  1.00  0.00     2.382 NA 
HETATM   11  C   UNL     1      -7.444  19.148  68.077  1.00  0.00    -0.263 C  
HETATM   12  O   UNL     1      -7.580  20.433  68.707  1.00  0.00     0.026 OA 
ENDROOT
BRANCH   4  13
HETATM   13  O   UNL     1      -9.616  17.011  66.214  1.00  0.00    -0.265 OA 
BRANCH  13  14
HETATM   14  C   UNL     1     -10.332  15.927  66.843  1.00  0.00    -0.291 C  
HETATM   15  C   UNL     1     -11.537  15.644  65.926  1.00  0.00     0.296 C  
HETATM   16  C   UNL     1     -11.068  15.073  64.572  1.00  0.00    -0.234 C  
HETATM   17  C   UNL     1     -10.505  13.677  64.820  1.00  0.00    -0.436 C  
HETATM   18  O   UNL     1     -10.057  15.877  63.948  1.00  0.00     1.382 OA 
HETATM   19  H   UNL     1      -8.849  10.495  65.619  1.00  0.00     0.000 HD 
HETATM   20  O   UNL     1      -9.260  11.332  65.436  1.00  0.00    -0.212 OA 
HETATM   21  C   UNL     1      -9.042  12.337  66.350  1.00  0.00    -0.158 A  
HETATM   22  C   UNL     1      -9.649  13.575  66.080  1.00  0.00    -0.179 A  
HETATM   23  H   UNL     1      -9.768  15.525  63.113  1.00  0.00     0.000 HD 
HETATM   24  C   UNL     1      -9.538  14.633  67.024  1.00  0.00    -0.246 A  
HETATM   25  C   UNL     1      -8.778  14.409  68.194  1.00  0.00    -0.175 A  
HETATM   26  O   UNL     1      -8.695  15.368  69.167  1.00  0.00    -0.208 OA 
HETATM   27  C   UNL     1      -8.145  13.167  68.440  1.00  0.00    -0.130 A  
HETATM   28  C   UNL     1      -7.340  12.926  69.674  1.00  0.00     0.653 C  
HETATM   29  H   UNL     1      -8.184  15.217  69.954  1.00  0.00     0.000 HD 
HETATM   30  C   UNL     1      -6.675  11.626  69.867  1.00  0.00     0.042 A  
HETATM   31  O   UNL     1      -7.190  13.773  70.546  1.00  0.00     0.820 OA 
HETATM   32  C   UNL     1      -5.860  11.420  70.988  1.00  0.00     0.133 A  
HETATM   33  C   UNL     1      -5.203  10.206  71.174  1.00  0.00    -0.074 A  
HETATM   34  C   UNL     1      -5.365   9.182  70.241  1.00  0.00    -0.027 A  
HETATM   35  C   UNL     1      -6.175   9.373  69.133  1.00  0.00    -0.041 A  
HETATM   36  C   UNL     1      -6.835  10.607  68.949  1.00  0.00    -0.066 A  
HETATM   37  C   UNL     1      -7.690  10.804  67.771  1.00  0.00    -0.104 C  
HETATM   38  C   UNL     1      -8.291  12.129  67.515  1.00  0.00    -0.166 A  
HETATM   39  O   UNL     1      -7.914   9.874  66.998  1.00  0.00    -0.108 OA 
BRANCH  16  40
HETATM   40  C   UNL     1     -12.222  15.028  63.554  1.00  0.00     0.829 C  
HETATM   41  O   UNL     1     -12.871  16.032  63.249  1.00  0.00     0.781 OA 
HETATM   42  C   UNL     1     -12.551  13.684  62.940  1.00  0.00     0.918 C  
ENDBRANCH  16  40
ENDBRANCH  13  14
ENDBRANCH   4  13
TORSDOF 3
ENDMDL
MODEL      116
REMARK 921   NORMALIZED FREE ENERGY PREDICTED BY IDOCK:    3.04 KCAL/MOL
REMARK 922        TOTAL FREE ENERGY PREDICTED BY IDOCK:    2.68 KCAL/MOL
REMARK 923 INTER-LIGAND FREE ENERGY PREDICTED BY IDOCK:    1.50 KCAL/MOL
REMARK 924 INTRA-LIGAND FREE ENERGY PREDICTED BY IDOCK:    1.18 KCAL/MOL
REMARK 927      BINDING AFFINITY PREDICTED BY RF-SCORE:    0.00 PKD
ROOT
HETATM    1  C   UNL     1     -11.690   5.980  68.127  1.00  0.00     1.406 C  
HETATM    2  C   UNL     1     -10.268   6.446  67.804  1.00  0.00    -0.162 C  
HETATM    3  O   UNL     1     -10.098   6.306  66.381  1.00  0.00    -0.134 OA 
HETATM    4  C   UNL     1      -8.775   6.513  65.903  1.00  0.00    -0.141 C  
HETATM    5  H1  UNL     1      -6.965   4.937  69.810  1.00  0.00     0.000 HD 
HETATM    6  C   UNL     1      -7.781   5.594  66.614  1.00  0.00    -0.100 C  
HETATM    7  C   UNL     1      -7.802   5.807  68.127  1.00  0.00    -0.104 C  
HETATM    8  H   UNL     1      -8.924   3.828  69.312  1.00  0.00     0.000 HD 
HETATM    9  H2  UNL     1      -6.001   4.788  68.429  1.00  0.00     0.000 HD 
HETATM   10  N   UNL     1      -6.951   4.794  68.800  1.00  0.00    -0.051 NA 
HETATM   11  C   UNL     1      -9.235   5.690  68.671  1.00  0.00    -0.122 C  
HETATM   12  O   UNL     1      -9.558   4.293  68.780  1.00  0.00    -0.158 OA 
ENDROOT
BRANCH   4  13
HETATM   13  O   UNL     1      -8.346   7.870  65.987  1.00  0.00    -0.114 OA 
BRANCH  13  14
HETATM   14  C   UNL     1      -6.956   8.131  66.279  1.00  0.00    -0.062 C  
HETATM   15  C   UNL     1      -6.342   8.611  64.951  1.00  0.00    -0.065 C  
HETATM   16  C   UNL     1      -6.922   9.982  64.546  1.00  0.00    -0.136 C  
HETATM   17  C   UNL     1      -6.415  11.020  65.542  1.00  0.00     0.168 C  
HETATM   18  O   UNL     1      -8.357  10.002  64.547  1.00  0.00    -0.149 OA 
HETATM   19  H   UNL     1      -5.418  13.334  68.217  1.00  0.00     0.000 HD 
HETATM   20  O   UNL     1      -5.686  12.715  67.548  1.00  0.00    -0.125 OA 
HETATM   21  C   UNL     1      -6.023  11.453  67.978  1.00  0.00    -0.046 A  
HETATM   22  C   UNL     1      -6.419  10.536  66.989  1.00  0.00    -0.076 A  
HETATM   23  H   UNL     1      -8.715  10.847  64.297  1.00  0.00     0.000 HD 
HETATM   24  C   UNL     1      -6.697   9.189  67.352  1.00  0.00    -0.069 A  
HETATM   25  C   UNL     1      -6.603   8.828  68.714  1.00  0.00    -0.054 A  
HETATM   26  O   UNL     1      -6.793   7.532  69.109  1.00  0.00    -0.053 OA 
HETATM   27  C   UNL     1      -6.233   9.769  69.705  1.00  0.00    -0.048 A  
HETATM   28  C   UNL     1      -6.133   9.392  71.147  1.00  0.00    -0.078 C  
HETATM   29  H   UNL     1      -6.729   7.290  70.025  1.00  0.00     0.000 HD 
HETATM   30  C   UNL     1      -5.775  10.417  72.143  1.00  0.00     0.511 A  
HETATM   31  O   UNL     1      -6.349   8.258  71.554  1.00  0.00    -0.040 OA 
HETATM   32  C   UNL     1      -5.751  10.086  73.504  1.00  0.00     0.562 A  
HETATM   33  C   UNL     1      -5.439  11.048  74.463  1.00  0.00     0.503 A  
HETATM   34  C   UNL     1      -5.138  12.350  74.063  1.00  0.00     0.272 A  
HETATM   35  C   UNL     1      -5.153  12.686  72.719  1.00  0.00     0.236 A  
HETATM   36  C   UNL     1      -5.473  11.707  71.754  1.00  0.00     0.383 A  
HETATM   37  C   UNL     1      -5.489  12.070  70.330  1.00  0.00    -0.148 C  
HETATM   38  C   UNL     1      -5.933  11.080  69.327  1.00  0.00    -0.046 A  
HETATM   39  O   UNL     1      -5.131  13.189  69.966  1.00  0.00    -0.083 OA 
BRANCH  16  40
HETATM   40  C   UNL     1      -6.522  10.357  63.108  1.00  0.00    -0.095 C  
HETATM   41  O   UNL     1      -7.151  11.184  62.443  1.00  0.00    -0.001 OA 
HETATM   42  C   UNL     1      -5.319   9.651  62.518  1.00  0.00    -0.083 C  
ENDBRANCH  16  40
ENDBRANCH  13  14
ENDBRANCH   4  13
TORSDOF 3
ENDMDL
MODEL      117
REMARK 921   NORMALIZED FREE ENERGY PREDICTED BY IDOCK:    3.12 KCAL/MOL
REMARK 922        TOTAL FREE ENERGY PREDICTED BY IDOCK:    2.78 KCAL/MOL
REMARK 923 INTER-LIGAND FREE ENERGY PREDICTED BY IDOCK:   -4.15 KCAL/MOL
REMARK 924 INTRA-LIGAND FREE ENERGY PREDICTED BY IDOCK:    6.93 KCAL/MOL
REMARK 927      BINDING AFFINITY PREDICTED BY RF-SCORE:    0.00 PKD
ROOT
HETATM    1  C   UNL     1      -6.902   7.913  67.824  1.00  0.00    -0.069 C  
HETATM    2  C   UNL     1      -7.425   9.350  67.897  1.00  0.00    -0.084 C  
HETATM    3  O   UNL     1      -7.524   9.825  66.540  1.00  0.00    -0.093 OA 
HETATM    4  C   UNL     1      -7.815  11.209  66.400  1.00  0.00    -0.136 C  
HETATM    5  H1  UNL     1      -5.623  12.211  70.302  1.00  0.00     0.000 HD 
HETATM    6  C   UNL     1      -6.797  12.067  67.153  1.00  0.00    -0.136 C  
HETATM    7  C   UNL     1      -6.756  11.716  68.640  1.00  0.00    -0.074 C  
HETATM    8  H   UNL     1      -4.601  10.451  69.220  1.00  0.00     0.000 HD 
HETATM    9  H2  UNL     1      -5.712  13.453  69.157  1.00  0.00     0.000 HD 
HETATM   10  N   UNL     1      -5.650  12.446  69.309  1.00  0.00    -0.071 NA 
HETATM   11  C   UNL     1      -6.541  10.206  68.834  1.00  0.00    -0.049 C  
HETATM   12  O   UNL     1      -5.144   9.926  68.644  1.00  0.00    -0.033 OA 
ENDROOT
BRANCH   4  13
HETATM   13  O   UNL     1      -9.142  11.554  66.793  1.00  0.00    -0.170 OA 
BRANCH  13  14
HETATM   14  C   UNL     1      -9.395  11.818  68.190  1.00  0.00    -0.190 C  
HETATM   15  C   UNL     1     -10.115  13.179  68.226  1.00  0.00    -0.247 C  
HETATM   16  C   UNL     1     -11.515  13.072  67.586  1.00  0.00    -0.324 C  
HETATM   17  C   UNL     1     -12.384  12.212  68.498  1.00  0.00     0.381 C  
HETATM   18  O   UNL     1     -11.487  12.479  66.279  1.00  0.00    -0.328 OA 
HETATM   19  H   UNL     1     -14.239   9.831  70.595  1.00  0.00     0.000 HD 
HETATM   20  O   UNL     1     -13.734  10.425  70.052  1.00  0.00     0.354 OA 
HETATM   21  C   UNL     1     -12.407  10.116  69.870  1.00  0.00     0.072 A  
HETATM   22  C   UNL     1     -11.660  10.994  69.067  1.00  0.00    -0.392 A  
HETATM   23  H   UNL     1     -12.350  12.414  65.886  1.00  0.00     0.000 HD 
HETATM   24  C   UNL     1     -10.262  10.784  68.907  1.00  0.00    -0.219 A  
HETATM   25  C   UNL     1      -9.678   9.662  69.537  1.00  0.00    -0.203 A  
HETATM   26  O   UNL     1      -8.327   9.450  69.472  1.00  0.00    -0.108 OA 
HETATM   27  C   UNL     1     -10.447   8.766  70.318  1.00  0.00    -0.231 A  
HETATM   28  C   UNL     1      -9.833   7.579  70.984  1.00  0.00    -0.179 C  
HETATM   29  H   UNL     1      -7.934   8.696  69.896  1.00  0.00     0.000 HD 
HETATM   30  C   UNL     1     -10.684   6.660  71.759  1.00  0.00    -0.257 A  
HETATM   31  O   UNL     1      -8.639   7.317  70.907  1.00  0.00    -0.134 OA 
HETATM   32  C   UNL     1     -10.127   5.506  72.325  1.00  0.00    -0.225 A  
HETATM   33  C   UNL     1     -10.920   4.611  73.040  1.00  0.00    -0.329 A  
HETATM   34  C   UNL     1     -12.281   4.872  73.203  1.00  0.00     0.310 A  
HETATM   35  C   UNL     1     -12.840   6.015  72.653  1.00  0.00     0.504 A  
HETATM   36  C   UNL     1     -12.031   6.914  71.927  1.00  0.00    -0.363 A  
HETATM   37  C   UNL     1     -12.630   8.122  71.344  1.00  0.00    -0.283 C  
HETATM   38  C   UNL     1     -11.813   9.007  70.489  1.00  0.00    -0.107 A  
HETATM   39  O   UNL     1     -13.806   8.406  71.567  1.00  0.00    -0.360 OA 
BRANCH  16  40
HETATM   40  C   UNL     1     -12.143  14.461  67.377  1.00  0.00    -0.313 C  
HETATM   41  O   UNL     1     -12.765  14.757  66.354  1.00  0.00     0.112 OA 
HETATM   42  C   UNL     1     -11.954  15.479  68.483  1.00  0.00    -0.179 C  
ENDBRANCH  16  40
ENDBRANCH  13  14
ENDBRANCH   4  13
TORSDOF 3
ENDMDL
MODEL      118
REMARK 921   NORMALIZED FREE ENERGY PREDICTED BY IDOCK:    3.23 KCAL/MOL
REMARK 922        TOTAL FREE ENERGY PREDICTED BY IDOCK:    2.91 KCAL/MOL
REMARK 923 INTER-LIGAND FREE ENERGY PREDICTED BY IDOCK:    1.98 KCAL/MOL
REMARK 924 INTRA-LIGAND FREE ENERGY PREDICTED BY IDOCK:    0.93 KCAL/MOL
REMARK 927      BINDING AFFINITY PREDICTED BY RF-SCORE:    0.00 PKD
ROOT
HETATM    1  C   UNL     1     -11.363   3.725  66.645  1.00  0.00     5.032 C  
HETATM    2  C   UNL     1      -9.915   4.026  67.041  1.00  0.00    -0.000 C  
HETATM    3  O   UNL     1      -9.218   4.381  65.831  1.00  0.00    -0.125 OA 
HETATM    4  C   UNL     1      -7.808   4.516  65.959  1.00  0.00    -0.095 C  
HETATM    5  H1  UNL     1      -7.661   1.355  69.278  1.00  0.00     0.000 HD 
HETATM    6  C   UNL     1      -7.182   3.247  66.538  1.00  0.00    -0.063 C  
HETATM    7  C   UNL     1      -7.773   2.902  67.905  1.00  0.00    -0.056 C  
HETATM    8  H   UNL     1      -9.307   0.852  67.744  1.00  0.00     0.000 HD 
HETATM    9  H2  UNL     1      -6.247   1.551  68.372  1.00  0.00     0.000 HD 
HETATM   10  N   UNL     1      -7.266   1.586  68.366  1.00  0.00    -0.039 NA 
HETATM   11  C   UNL     1      -9.308   2.844  67.832  1.00  0.00    -0.205 C  
HETATM   12  O   UNL     1      -9.680   1.579  67.259  1.00  0.00     0.109 OA 
ENDROOT
BRANCH   4  13
HETATM   13  O   UNL     1      -7.413   5.657  66.716  1.00  0.00    -0.085 OA 
BRANCH  13  14
HETATM   14  C   UNL     1      -8.324   6.162  67.717  1.00  0.00    -0.116 C  
HETATM   15  C   UNL     1      -7.797   5.625  69.060  1.00  0.00    -0.096 C  
HETATM   16  C   UNL     1      -6.437   6.264  69.408  1.00  0.00    -0.043 C  
HETATM   17  C   UNL     1      -6.675   7.740  69.711  1.00  0.00    -0.039 C  
HETATM   18  O   UNL     1      -5.483   6.159  68.341  1.00  0.00    -0.007 OA 
HETATM   19  H   UNL     1      -7.345  11.337  70.053  1.00  0.00     0.000 HD 
HETATM   20  O   UNL     1      -7.188  10.407  69.936  1.00  0.00    -0.142 OA 
HETATM   21  C   UNL     1      -7.896   9.785  68.935  1.00  0.00    -0.087 A  
HETATM   22  C   UNL     1      -7.665   8.410  68.762  1.00  0.00    -0.102 A  
HETATM   23  H   UNL     1      -4.645   6.553  68.555  1.00  0.00     0.000 HD 
HETATM   24  C   UNL     1      -8.426   7.685  67.803  1.00  0.00    -0.122 A  
HETATM   25  C   UNL     1      -9.369   8.392  67.023  1.00  0.00    -0.159 A  
HETATM   26  O   UNL     1     -10.174   7.733  66.134  1.00  0.00    -0.442 OA 
HETATM   27  C   UNL     1      -9.570   9.783  67.185  1.00  0.00    -0.211 A  
HETATM   28  C   UNL     1     -10.564  10.534  66.362  1.00  0.00    -0.149 C  
HETATM   29  H   UNL     1     -10.808   8.208  65.610  1.00  0.00     0.000 HD 
HETATM   30  C   UNL     1     -10.712  11.988  66.547  1.00  0.00    -0.293 A  
HETATM   31  O   UNL     1     -11.267   9.997  65.515  1.00  0.00     0.914 OA 
HETATM   32  C   UNL     1     -11.591  12.709  65.728  1.00  0.00    -0.431 A  
HETATM   33  C   UNL     1     -11.726  14.088  65.872  1.00  0.00    -0.373 A  
HETATM   34  C   UNL     1     -10.986  14.757  66.848  1.00  0.00    -0.328 A  
HETATM   35  C   UNL     1     -10.119  14.052  67.668  1.00  0.00    -0.241 A  
HETATM   36  C   UNL     1      -9.986  12.656  67.514  1.00  0.00    -0.205 A  
HETATM   37  C   UNL     1      -9.064  11.915  68.385  1.00  0.00    -0.167 C  
HETATM   38  C   UNL     1      -8.835  10.473  68.153  1.00  0.00    -0.134 A  
HETATM   39  O   UNL     1      -8.484  12.483  69.309  1.00  0.00     0.519 OA 
BRANCH  16  40
HETATM   40  C   UNL     1      -5.774   5.557  70.603  1.00  0.00    -0.016 C  
HETATM   41  O   UNL     1      -5.543   6.136  71.667  1.00  0.00    -0.025 OA 
HETATM   42  C   UNL     1      -5.393   4.102  70.421  1.00  0.00    -0.004 C  
ENDBRANCH  16  40
ENDBRANCH  13  14
ENDBRANCH   4  13
TORSDOF 3
ENDMDL
MODEL      119
REMARK 921   NORMALIZED FREE ENERGY PREDICTED BY IDOCK:    5.17 KCAL/MOL
REMARK 922        TOTAL FREE ENERGY PREDICTED BY IDOCK:    5.19 KCAL/MOL
REMARK 923 INTER-LIGAND FREE ENERGY PREDICTED BY IDOCK:    3.72 KCAL/MOL
REMARK 924 INTRA-LIGAND FREE ENERGY PREDICTED BY IDOCK:    1.46 KCAL/MOL
REMARK 927      BINDING AFFINITY PREDICTED BY RF-SCORE:    0.00 PKD
ROOT
HETATM    1  C   UNL     1     -12.132  20.752  69.014  1.00  0.00     4.549 C  
HETATM    2  C   UNL     1     -10.875  20.090  68.445  1.00  0.00     0.377 C  
HETATM    3  O   UNL     1     -11.207  18.711  68.197  1.00  0.00     0.165 OA 
HETATM    4  C   UNL     1     -10.113  17.876  67.840  1.00  0.00    -0.349 C  
HETATM    5  H1  UNL     1      -7.202  20.371  70.356  1.00  0.00     0.000 HD 
HETATM    6  C   UNL     1      -9.005  17.937  68.892  1.00  0.00    -0.123 C  
HETATM    7  C   UNL     1      -8.496  19.365  69.089  1.00  0.00    -0.113 C  
HETATM    8  H   UNL     1      -9.288  20.312  71.338  1.00  0.00     0.000 HD 
HETATM    9  H2  UNL     1      -6.776  18.753  70.109  1.00  0.00     0.000 HD 
HETATM   10  N   UNL     1      -7.541  19.417  70.224  1.00  0.00     0.705 NA 
HETATM   11  C   UNL     1      -9.665  20.321  69.381  1.00  0.00     0.324 C  
HETATM   12  O   UNL     1     -10.030  20.170  70.763  1.00  0.00     0.724 OA 
ENDROOT
BRANCH   4  13
HETATM   13  O   UNL     1      -9.586  18.154  66.544  1.00  0.00    -0.299 OA 
BRANCH  13  14
HETATM   14  C   UNL     1      -8.922  17.087  65.833  1.00  0.00    -0.014 C  
HETATM   15  C   UNL     1      -7.751  17.756  65.089  1.00  0.00     2.077 C  
HETATM   16  C   UNL     1      -6.698  18.278  66.089  1.00  0.00    -0.253 C  
HETATM   17  C   UNL     1      -6.031  17.072  66.742  1.00  0.00    -0.227 C  
HETATM   18  O   UNL     1      -7.265  19.106  67.115  1.00  0.00    -0.208 OA 
HETATM   19  H   UNL     1      -4.778  14.092  68.490  1.00  0.00     0.000 HD 
HETATM   20  O   UNL     1      -5.132  14.852  68.043  1.00  0.00    -0.110 OA 
HETATM   21  C   UNL     1      -6.479  14.829  67.764  1.00  0.00    -0.164 A  
HETATM   22  C   UNL     1      -7.004  15.953  67.104  1.00  0.00    -0.227 A  
HETATM   23  H   UNL     1      -6.616  19.427  67.730  1.00  0.00     0.000 HD 
HETATM   24  C   UNL     1      -8.370  15.960  66.707  1.00  0.00    -0.306 A  
HETATM   25  C   UNL     1      -9.167  14.840  67.031  1.00  0.00    -0.233 A  
HETATM   26  O   UNL     1     -10.469  14.764  66.614  1.00  0.00    -0.277 OA 
HETATM   27  C   UNL     1      -8.634  13.727  67.725  1.00  0.00    -0.184 A  
HETATM   28  C   UNL     1      -9.474  12.542  68.071  1.00  0.00    -0.209 C  
HETATM   29  H   UNL     1     -11.004  14.011  66.832  1.00  0.00     0.000 HD 
HETATM   30  C   UNL     1      -8.879  11.423  68.822  1.00  0.00    -0.076 A  
HETATM   31  O   UNL     1     -10.657  12.454  67.769  1.00  0.00    -0.210 OA 
HETATM   32  C   UNL     1      -9.679  10.342  69.212  1.00  0.00    -0.240 A  
HETATM   33  C   UNL     1      -9.140   9.287  69.945  1.00  0.00    -0.203 A  
HETATM   34  C   UNL     1      -7.787   9.302  70.285  1.00  0.00    -0.148 A  
HETATM   35  C   UNL     1      -6.985  10.364  69.898  1.00  0.00    -0.149 A  
HETATM   36  C   UNL     1      -7.539  11.430  69.159  1.00  0.00    -0.038 A  
HETATM   37  C   UNL     1      -6.684  12.554  68.754  1.00  0.00    -0.093 C  
HETATM   38  C   UNL     1      -7.282  13.725  68.079  1.00  0.00    -0.137 A  
HETATM   39  O   UNL     1      -5.473  12.526  68.966  1.00  0.00    -0.065 OA 
BRANCH  16  40
HETATM   40  C   UNL     1      -5.658  19.172  65.389  1.00  0.00    -0.174 C  
HETATM   41  O   UNL     1      -5.244  20.219  65.892  1.00  0.00    -0.165 OA 
HETATM   42  C   UNL     1      -5.162  18.723  64.031  1.00  0.00    -0.204 C  
ENDBRANCH  16  40
ENDBRANCH  13  14
ENDBRANCH   4  13
TORSDOF 3
ENDMDL
MODEL      120
REMARK 921   NORMALIZED FREE ENERGY PREDICTED BY IDOCK:    5.31 KCAL/MOL
REMARK 922        TOTAL FREE ENERGY PREDICTED BY IDOCK:    5.35 KCAL/MOL
REMARK 923 INTER-LIGAND FREE ENERGY PREDICTED BY IDOCK:   -2.88 KCAL/MOL
REMARK 924 INTRA-LIGAND FREE ENERGY PREDICTED BY IDOCK:    8.24 KCAL/MOL
REMARK 927      BINDING AFFINITY PREDICTED BY RF-SCORE:    0.00 PKD
ROOT
HETATM    1  C   UNL     1      -8.833  10.085  69.859  1.00  0.00    -0.177 C  
HETATM    2  C   UNL     1      -8.517   8.669  69.369  1.00  0.00    -0.126 C  
HETATM    3  O   UNL     1      -8.689   7.791  70.498  1.00  0.00    -0.137 OA 
HETATM    4  C   UNL     1      -8.260   6.450  70.296  1.00  0.00    -0.125 C  
HETATM    5  H1  UNL     1      -4.988   7.786  67.373  1.00  0.00     0.000 HD 
HETATM    6  C   UNL     1      -6.799   6.400  69.846  1.00  0.00    -0.058 C  
HETATM    7  C   UNL     1      -6.581   7.191  68.556  1.00  0.00    -0.048 C  
HETATM    8  H   UNL     1      -5.302   9.364  69.025  1.00  0.00     0.000 HD 
HETATM    9  H2  UNL     1      -4.710   6.331  68.189  1.00  0.00     0.000 HD 
HETATM   10  N   UNL     1      -5.134   7.258  68.234  1.00  0.00    -0.019 NA 
HETATM   11  C   UNL     1      -7.123   8.622  68.700  1.00  0.00    -0.068 C  
HETATM   12  O   UNL     1      -6.158   9.393  69.435  1.00  0.00    -0.037 OA 
ENDROOT
BRANCH   4  13
HETATM   13  O   UNL     1      -9.085   5.720  69.391  1.00  0.00    -0.124 OA 
BRANCH  13  14
HETATM   14  C   UNL     1     -10.504   5.988  69.392  1.00  0.00    -0.267 C  
HETATM   15  C   UNL     1     -11.124   4.916  70.308  1.00  0.00     1.166 C  
HETATM   16  C   UNL     1     -10.683   5.129  71.771  1.00  0.00    -0.133 C  
HETATM   17  C   UNL     1     -11.332   6.413  72.276  1.00  0.00    -0.330 C  
HETATM   18  O   UNL     1      -9.260   5.242  71.913  1.00  0.00    -0.137 OA 
HETATM   19  H   UNL     1     -12.661   9.703  73.231  1.00  0.00     0.000 HD 
HETATM   20  O   UNL     1     -12.306   8.866  72.956  1.00  0.00    -0.103 OA 
HETATM   21  C   UNL     1     -11.848   8.787  71.662  1.00  0.00    -0.330 A  
HETATM   22  C   UNL     1     -11.323   7.548  71.256  1.00  0.00    -0.284 A  
HETATM   23  H   UNL     1      -8.988   5.373  72.815  1.00  0.00     0.000 HD 
HETATM   24  C   UNL     1     -10.911   7.369  69.906  1.00  0.00    -0.239 A  
HETATM   25  C   UNL     1     -11.010   8.468  69.024  1.00  0.00     0.111 A  
HETATM   26  O   UNL     1     -10.693   8.332  67.699  1.00  0.00    -0.432 OA 
HETATM   27  C   UNL     1     -11.512   9.720  69.453  1.00  0.00    -0.015 A  
HETATM   28  C   UNL     1     -11.617  10.885  68.525  1.00  0.00    -0.290 C  
HETATM   29  H   UNL     1     -10.760   9.071  67.107  1.00  0.00     0.000 HD 
HETATM   30  C   UNL     1     -12.117  12.175  69.030  1.00  0.00    -0.208 A  
HETATM   31  O   UNL     1     -11.292  10.826  67.346  1.00  0.00    -0.416 OA 
HETATM   32  C   UNL     1     -12.149  13.290  68.182  1.00  0.00    -0.248 A  
HETATM   33  C   UNL     1     -12.595  14.524  68.649  1.00  0.00     0.377 A  
HETATM   34  C   UNL     1     -13.022  14.650  69.971  1.00  0.00     0.039 A  
HETATM   35  C   UNL     1     -13.000  13.552  70.816  1.00  0.00    -0.168 A  
HETATM   36  C   UNL     1     -12.545  12.305  70.337  1.00  0.00    -0.106 A  
HETATM   37  C   UNL     1     -12.522  11.146  71.238  1.00  0.00    -0.360 C  
HETATM   38  C   UNL     1     -11.941   9.868  70.775  1.00  0.00    -0.410 A  
HETATM   39  O   UNL     1     -12.988  11.227  72.374  1.00  0.00    -0.105 OA 
BRANCH  16  40
HETATM   40  C   UNL     1     -11.074   3.930  72.653  1.00  0.00     0.208 C  
HETATM   41  O   UNL     1     -10.617   2.799  72.470  1.00  0.00    -0.119 OA 
HETATM   42  C   UNL     1     -12.071   4.185  73.764  1.00  0.00     0.834 C  
ENDBRANCH  16  40
ENDBRANCH  13  14
ENDBRANCH   4  13
TORSDOF 3
ENDMDL
MODEL      121
REMARK 921   NORMALIZED FREE ENERGY PREDICTED BY IDOCK:    5.68 KCAL/MOL
REMARK 922        TOTAL FREE ENERGY PREDICTED BY IDOCK:    5.79 KCAL/MOL
REMARK 923 INTER-LIGAND FREE ENERGY PREDICTED BY IDOCK:    3.14 KCAL/MOL
REMARK 924 INTRA-LIGAND FREE ENERGY PREDICTED BY IDOCK:    2.65 KCAL/MOL
REMARK 927      BINDING AFFINITY PREDICTED BY RF-SCORE:    0.00 PKD
ROOT
HETATM    1  C   UNL     1     -11.505  11.514  66.344  1.00  0.00    -0.150 C  
HETATM    2  C   UNL     1     -10.721  12.761  65.928  1.00  0.00    -0.270 C  
HETATM    3  O   UNL     1     -11.275  13.867  66.667  1.00  0.00    -0.308 OA 
HETATM    4  C   UNL     1     -10.805  15.152  66.282  1.00  0.00    -0.333 C  
HETATM    5  H1  UNL     1     -10.218  13.795  61.941  1.00  0.00     0.000 HD 
HETATM    6  C   UNL     1     -11.024  15.396  64.788  1.00  0.00    -0.411 C  
HETATM    7  C   UNL     1     -10.323  14.336  63.938  1.00  0.00     1.829 C  
HETATM    8  H   UNL     1     -12.030  12.732  62.891  1.00  0.00     0.000 HD 
HETATM    9  H2  UNL     1     -10.493  15.447  62.174  1.00  0.00     0.000 HD 
HETATM   10  N   UNL     1     -10.686  14.503  62.508  1.00  0.00     7.027 NA 
HETATM   11  C   UNL     1     -10.730  12.923  64.390  1.00  0.00    -0.386 C  
HETATM   12  O   UNL     1     -12.024  12.633  63.835  1.00  0.00    -0.399 OA 
ENDROOT
BRANCH   4  13
HETATM   13  O   UNL     1      -9.443  15.388  66.630  1.00  0.00    -0.228 OA 
BRANCH  13  14
HETATM   14  C   UNL     1      -9.042  15.180  68.002  1.00  0.00    -0.180 C  
HETATM   15  C   UNL     1      -8.857  16.590  68.593  1.00  0.00    -0.237 C  
HETATM   16  C   UNL     1     -10.210  17.324  68.685  1.00  0.00    -0.351 C  
HETATM   17  C   UNL     1     -11.053  16.626  69.748  1.00  0.00    -0.137 C  
HETATM   18  O   UNL     1     -10.933  17.320  67.446  1.00  0.00    -0.216 OA 
HETATM   19  H   UNL     1     -13.095  14.629  72.060  1.00  0.00     0.000 HD 
HETATM   20  O   UNL     1     -12.560  15.118  71.446  1.00  0.00    -0.303 OA 
HETATM   21  C   UNL     1     -11.754  14.381  70.610  1.00  0.00    -0.252 A  
HETATM   22  C   UNL     1     -10.961  15.103  69.703  1.00  0.00    -0.291 A  
HETATM   23  H   UNL     1     -11.766  17.773  67.503  1.00  0.00     0.000 HD 
HETATM   24  C   UNL     1     -10.041  14.411  68.868  1.00  0.00    -0.202 A  
HETATM   25  C   UNL     1      -9.986  13.002  68.956  1.00  0.00     0.234 A  
HETATM   26  O   UNL     1      -9.072  12.291  68.226  1.00  0.00    -0.194 OA 
HETATM   27  C   UNL     1     -10.813  12.283  69.852  1.00  0.00     0.546 A  
HETATM   28  C   UNL     1     -10.760  10.794  69.947  1.00  0.00    -0.144 C  
HETATM   29  H   UNL     1      -9.036  11.344  68.285  1.00  0.00     0.000 HD 
HETATM   30  C   UNL     1     -11.664  10.091  70.873  1.00  0.00    -0.462 A  
HETATM   31  O   UNL     1      -9.998  10.111  69.273  1.00  0.00    -0.195 OA 
HETATM   32  C   UNL     1     -11.669   8.691  70.913  1.00  0.00    -0.287 A  
HETATM   33  C   UNL     1     -12.535   8.008  71.765  1.00  0.00    -0.355 A  
HETATM   34  C   UNL     1     -13.399   8.726  72.593  1.00  0.00    -0.340 A  
HETATM   35  C   UNL     1     -13.397  10.111  72.565  1.00  0.00    -0.004 A  
HETATM   36  C   UNL     1     -12.519  10.796  71.698  1.00  0.00    -0.381 A  
HETATM   37  C   UNL     1     -12.523  12.264  71.672  1.00  0.00     0.068 C  
HETATM   38  C   UNL     1     -11.689  12.983  70.686  1.00  0.00     0.130 A  
HETATM   39  O   UNL     1     -13.211  12.902  72.468  1.00  0.00    -0.426 OA 
BRANCH  16  40
HETATM   40  C   UNL     1     -10.017  18.813  69.026  1.00  0.00    -0.296 C  
HETATM   41  O   UNL     1     -10.626  19.708  68.435  1.00  0.00    -0.361 OA 
HETATM   42  C   UNL     1      -9.024  19.150  70.118  1.00  0.00     1.403 C  
ENDBRANCH  16  40
ENDBRANCH  13  14
ENDBRANCH   4  13
TORSDOF 3
ENDMDL
MODEL      122
REMARK 921   NORMALIZED FREE ENERGY PREDICTED BY IDOCK:    5.71 KCAL/MOL
REMARK 922        TOTAL FREE ENERGY PREDICTED BY IDOCK:    5.82 KCAL/MOL
REMARK 923 INTER-LIGAND FREE ENERGY PREDICTED BY IDOCK:   -2.09 KCAL/MOL
REMARK 924 INTRA-LIGAND FREE ENERGY PREDICTED BY IDOCK:    7.92 KCAL/MOL
REMARK 927      BINDING AFFINITY PREDICTED BY RF-SCORE:    0.00 PKD
ROOT
HETATM    1  C   UNL     1      -9.418  14.597  70.763  1.00  0.00     2.148 C  
HETATM    2  C   UNL     1     -10.771  14.535  70.051  1.00  0.00     0.075 C  
HETATM    3  O   UNL     1     -10.701  15.454  68.944  1.00  0.00    -0.228 OA 
HETATM    4  C   UNL     1     -11.929  15.682  68.264  1.00  0.00    -0.002 C  
HETATM    5  H1  UNL     1     -14.345  15.013  72.104  1.00  0.00     0.000 HD 
HETATM    6  C   UNL     1     -13.017  16.152  69.231  1.00  0.00     1.794 C  
HETATM    7  C   UNL     1     -13.250  15.137  70.350  1.00  0.00    -0.133 C  
HETATM    8  H   UNL     1     -12.318  16.005  72.577  1.00  0.00     0.000 HD 
HETATM    9  H2  UNL     1     -15.065  15.998  70.933  1.00  0.00     0.000 HD 
HETATM   10  N   UNL     1     -14.190  15.691  71.357  1.00  0.00    -0.503 NA 
HETATM   11  C   UNL     1     -11.926  14.788  71.049  1.00  0.00    -0.331 C  
HETATM   12  O   UNL     1     -11.610  15.850  71.964  1.00  0.00    -0.423 OA 
ENDROOT
BRANCH   4  13
HETATM   13  O   UNL     1     -12.381  14.557  67.515  1.00  0.00    -0.240 OA 
BRANCH  13  14
HETATM   14  C   UNL     1     -11.585  14.118  66.393  1.00  0.00    -0.369 C  
HETATM   15  C   UNL     1     -11.270  15.394  65.589  1.00  0.00    -0.208 C  
HETATM   16  C   UNL     1     -10.339  16.327  66.391  1.00  0.00    -0.314 C  
HETATM   17  C   UNL     1      -8.974  15.655  66.495  1.00  0.00    -0.343 C  
HETATM   18  O   UNL     1     -10.825  16.596  67.715  1.00  0.00    -0.340 OA 
HETATM   19  H   UNL     1      -5.864  13.758  66.976  1.00  0.00     0.000 HD 
HETATM   20  O   UNL     1      -6.685  14.222  66.861  1.00  0.00     0.159 OA 
HETATM   21  C   UNL     1      -7.833  13.469  66.939  1.00  0.00     0.281 A  
HETATM   22  C   UNL     1      -9.048  14.155  66.770  1.00  0.00    -0.266 A  
HETATM   23  H   UNL     1     -10.251  17.171  68.209  1.00  0.00     0.000 HD 
HETATM   24  C   UNL     1     -10.269  13.426  66.751  1.00  0.00    -0.259 A  
HETATM   25  C   UNL     1     -10.218  12.028  66.946  1.00  0.00    -0.208 A  
HETATM   26  O   UNL     1     -11.355  11.270  66.871  1.00  0.00    -0.379 OA 
HETATM   27  C   UNL     1      -8.991  11.353  67.147  1.00  0.00    -0.162 A  
HETATM   28  C   UNL     1      -8.932   9.875  67.355  1.00  0.00    -0.135 C  
HETATM   29  H   UNL     1     -11.321  10.330  67.002  1.00  0.00     0.000 HD 
HETATM   30  C   UNL     1      -7.632   9.225  67.592  1.00  0.00    -0.088 A  
HETATM   31  O   UNL     1      -9.929   9.163  67.352  1.00  0.00    -0.178 OA 
HETATM   32  C   UNL     1      -7.579   7.851  67.860  1.00  0.00    -0.109 A  
HETATM   33  C   UNL     1      -6.361   7.223  68.111  1.00  0.00    -0.044 A  
HETATM   34  C   UNL     1      -5.181   7.968  68.086  1.00  0.00    -0.032 A  
HETATM   35  C   UNL     1      -5.222   9.326  67.815  1.00  0.00    -0.034 A  
HETATM   36  C   UNL     1      -6.460   9.956  67.565  1.00  0.00    -0.068 A  
HETATM   37  C   UNL     1      -6.497  11.396  67.282  1.00  0.00    -0.098 C  
HETATM   38  C   UNL     1      -7.798  12.081  67.131  1.00  0.00    -0.168 A  
HETATM   39  O   UNL     1      -5.454  12.037  67.162  1.00  0.00    -0.113 OA 
BRANCH  16  40
HETATM   40  C   UNL     1     -10.223  17.710  65.725  1.00  0.00    -0.150 C  
HETATM   41  O   UNL     1     -11.114  18.173  65.009  1.00  0.00    -0.650 OA 
HETATM   42  C   UNL     1      -8.948  18.490  65.967  1.00  0.00     0.025 C  
ENDBRANCH  16  40
ENDBRANCH  13  14
ENDBRANCH   4  13
TORSDOF 3
ENDMDL
MODEL      123
REMARK 921   NORMALIZED FREE ENERGY PREDICTED BY IDOCK:    6.21 KCAL/MOL
REMARK 922        TOTAL FREE ENERGY PREDICTED BY IDOCK:    6.41 KCAL/MOL
REMARK 923 INTER-LIGAND FREE ENERGY PREDICTED BY IDOCK:    0.07 KCAL/MOL
REMARK 924 INTRA-LIGAND FREE ENERGY PREDICTED BY IDOCK:    6.34 KCAL/MOL
REMARK 927      BINDING AFFINITY PREDICTED BY RF-SCORE:    0.00 PKD
ROOT
HETATM    1  C   UNL     1     -10.214   9.643  64.183  1.00  0.00     1.440 C  
HETATM    2  C   UNL     1      -9.043   9.547  65.164  1.00  0.00    -0.228 C  
HETATM    3  O   UNL     1      -8.382  10.827  65.148  1.00  0.00    -0.152 OA 
HETATM    4  C   UNL     1      -7.151  10.884  65.857  1.00  0.00    -0.029 C  
HETATM    5  H1  UNL     1      -6.258   6.478  64.950  1.00  0.00     0.000 HD 
HETATM    6  C   UNL     1      -6.176   9.817  65.359  1.00  0.00    -0.080 C  
HETATM    7  C   UNL     1      -6.763   8.412  65.496  1.00  0.00    -0.059 C  
HETATM    8  H   UNL     1      -7.394   7.459  63.200  1.00  0.00     0.000 HD 
HETATM    9  H2  UNL     1      -4.916   7.469  65.226  1.00  0.00     0.000 HD 
HETATM   10  N   UNL     1      -5.866   7.416  64.859  1.00  0.00    -0.037 NA 
HETATM   11  C   UNL     1      -8.145   8.334  64.826  1.00  0.00    -0.151 C  
HETATM   12  O   UNL     1      -7.946   8.203  63.408  1.00  0.00    -0.150 OA 
ENDROOT
BRANCH   4  13
HETATM   13  O   UNL     1      -7.305  10.796  67.272  1.00  0.00    -0.091 OA 
BRANCH  13  14
HETATM   14  C   UNL     1      -6.415   9.926  68.004  1.00  0.00    -0.056 C  
HETATM   15  C   UNL     1      -5.753  10.820  69.070  1.00  0.00    -0.040 C  
HETATM   16  C   UNL     1      -6.791  11.286  70.111  1.00  0.00     0.224 C  
HETATM   17  C   UNL     1      -7.225  10.069  70.921  1.00  0.00     0.324 C  
HETATM   18  O   UNL     1      -7.951  11.882  69.513  1.00  0.00    -0.162 OA 
HETATM   19  H   UNL     1      -8.441   6.999  72.534  1.00  0.00     0.000 HD 
HETATM   20  O   UNL     1      -8.131   7.779  72.088  1.00  0.00    -0.099 OA 
HETATM   21  C   UNL     1      -7.891   7.661  70.739  1.00  0.00    -0.096 A  
HETATM   22  C   UNL     1      -7.433   8.813  70.078  1.00  0.00    -0.054 A  
HETATM   23  H   UNL     1      -8.591  12.170  70.155  1.00  0.00     0.000 HD 
HETATM   24  C   UNL     1      -7.082   8.741  68.702  1.00  0.00    -0.072 A  
HETATM   25  C   UNL     1      -7.247   7.508  68.032  1.00  0.00    -0.090 A  
HETATM   26  O   UNL     1      -6.862   7.365  66.727  1.00  0.00    -0.062 OA 
HETATM   27  C   UNL     1      -7.740   6.362  68.701  1.00  0.00    -0.101 A  
HETATM   28  C   UNL     1      -7.918   5.057  67.997  1.00  0.00    -0.090 C  
HETATM   29  H   UNL     1      -6.973   6.536  66.277  1.00  0.00     0.000 HD 
HETATM   30  C   UNL     1      -8.464   3.903  68.731  1.00  0.00    -0.098 A  
HETATM   31  O   UNL     1      -7.640   4.896  66.815  1.00  0.00    -0.086 OA 
HETATM   32  C   UNL     1      -8.701   2.698  68.057  1.00  0.00    -0.134 A  
HETATM   33  C   UNL     1      -9.241   1.603  68.729  1.00  0.00    -0.203 A  
HETATM   34  C   UNL     1      -9.540   1.705  70.088  1.00  0.00    -0.092 A  
HETATM   35  C   UNL     1      -9.303   2.890  70.765  1.00  0.00    -0.222 A  
HETATM   36  C   UNL     1      -8.759   3.996  70.078  1.00  0.00    -0.117 A  
HETATM   37  C   UNL     1      -8.512   5.251  70.800  1.00  0.00    -0.122 C  
HETATM   38  C   UNL     1      -8.050   6.444  70.061  1.00  0.00    -0.121 A  
HETATM   39  O   UNL     1      -8.682   5.315  72.017  1.00  0.00    -0.128 OA 
BRANCH  16  40
HETATM   40  C   UNL     1      -6.212  12.380  71.027  1.00  0.00     0.979 C  
HETATM   41  O   UNL     1      -5.796  12.137  72.162  1.00  0.00     0.381 OA 
HETATM   42  C   UNL     1      -6.185  13.793  70.485  1.00  0.00    -0.058 C  
ENDBRANCH  16  40
ENDBRANCH  13  14
ENDBRANCH   4  13
TORSDOF 3
ENDMDL
MODEL      124
REMARK 921   NORMALIZED FREE ENERGY PREDICTED BY IDOCK:    6.73 KCAL/MOL
REMARK 922        TOTAL FREE ENERGY PREDICTED BY IDOCK:    7.03 KCAL/MOL
REMARK 923 INTER-LIGAND FREE ENERGY PREDICTED BY IDOCK:    0.76 KCAL/MOL
REMARK 924 INTRA-LIGAND FREE ENERGY PREDICTED BY IDOCK:    6.27 KCAL/MOL
REMARK 927      BINDING AFFINITY PREDICTED BY RF-SCORE:    0.00 PKD
ROOT
HETATM    1  C   UNL     1     -11.486   4.899  67.881  1.00  0.00     3.479 C  
HETATM    2  C   UNL     1     -10.093   5.257  67.358  1.00  0.00    -0.187 C  
HETATM    3  O   UNL     1     -10.128   5.084  65.929  1.00  0.00    -0.187 OA 
HETATM    4  C   UNL     1      -8.871   5.187  65.272  1.00  0.00    -0.152 C  
HETATM    5  H1  UNL     1      -6.661   3.539  68.937  1.00  0.00     0.000 HD 
HETATM    6  C   UNL     1      -7.857   4.208  65.864  1.00  0.00    -0.094 C  
HETATM    7  C   UNL     1      -7.656   4.444  67.362  1.00  0.00    -0.081 C  
HETATM    8  H   UNL     1      -8.743   2.569  68.734  1.00  0.00     0.000 HD 
HETATM    9  H2  UNL     1      -5.907   3.301  67.442  1.00  0.00     0.000 HD 
HETATM   10  N   UNL     1      -6.795   3.381  67.937  1.00  0.00    -0.049 NA 
HETATM   11  C   UNL     1      -9.007   4.439  68.096  1.00  0.00    -0.119 C  
HETATM   12  O   UNL     1      -9.410   3.072  68.281  1.00  0.00    -0.185 OA 
ENDROOT
BRANCH   4  13
HETATM   13  O   UNL     1      -8.341   6.511  65.265  1.00  0.00    -0.142 OA 
BRANCH  13  14
HETATM   14  C   UNL     1      -6.965   6.697  65.663  1.00  0.00    -0.056 C  
HETATM   15  C   UNL     1      -6.292   7.422  64.483  1.00  0.00    -0.040 C  
HETATM   16  C   UNL     1      -6.854   8.851  64.328  1.00  0.00    -0.082 C  
HETATM   17  C   UNL     1      -6.392   9.670  65.529  1.00  0.00    -0.071 C  
HETATM   18  O   UNL     1      -8.287   8.882  64.270  1.00  0.00    -0.166 OA 
HETATM   19  H   UNL     1      -5.516  11.409  68.645  1.00  0.00     0.000 HD 
HETATM   20  O   UNL     1      -5.754  10.935  67.857  1.00  0.00    -0.042 OA 
HETATM   21  C   UNL     1      -6.109   9.616  68.017  1.00  0.00    -0.051 A  
HETATM   22  C   UNL     1      -6.461   8.913  66.852  1.00  0.00    -0.060 A  
HETATM   23  H   UNL     1      -8.634   9.762  64.175  1.00  0.00     0.000 HD 
HETATM   24  C   UNL     1      -6.755   7.524  66.932  1.00  0.00    -0.066 A  
HETATM   25  C   UNL     1      -6.721   6.904  68.201  1.00  0.00    -0.068 A  
HETATM   26  O   UNL     1      -6.929   5.557  68.326  1.00  0.00    -0.058 OA 
HETATM   27  C   UNL     1      -6.396   7.629  69.372  1.00  0.00    -0.035 A  
HETATM   28  C   UNL     1      -6.361   6.978  70.715  1.00  0.00    -0.043 C  
HETATM   29  H   UNL     1      -6.906   5.140  69.179  1.00  0.00     0.000 HD 
HETATM   30  C   UNL     1      -6.048   7.785  71.907  1.00  0.00    -0.039 A  
HETATM   31  O   UNL     1      -6.595   5.788  70.884  1.00  0.00    -0.041 OA 
HETATM   32  C   UNL     1      -6.085   7.196  73.177  1.00  0.00    -0.056 A  
HETATM   33  C   UNL     1      -5.817   7.949  74.318  1.00  0.00    -0.082 A  
HETATM   34  C   UNL     1      -5.499   9.302  74.194  1.00  0.00    -0.110 A  
HETATM   35  C   UNL     1      -5.453   9.893  72.941  1.00  0.00     0.219 A  
HETATM   36  C   UNL     1      -5.729   9.125  71.791  1.00  0.00    -0.073 A  
HETATM   37  C   UNL     1      -5.682   9.758  70.466  1.00  0.00    -0.057 C  
HETATM   38  C   UNL     1      -6.080   8.987  69.270  1.00  0.00    -0.041 A  
HETATM   39  O   UNL     1      -5.307  10.923  70.343  1.00  0.00    -0.066 OA 
BRANCH  16  40
HETATM   40  C   UNL     1      -6.390   9.495  63.010  1.00  0.00    -0.101 C  
HETATM   41  O   UNL     1      -5.344   9.164  62.447  1.00  0.00    -0.081 OA 
HETATM   42  C   UNL     1      -7.268  10.581  62.424  1.00  0.00    -0.161 C  
ENDBRANCH  16  40
ENDBRANCH  13  14
ENDBRANCH   4  13
TORSDOF 3
ENDMDL
MODEL      125
REMARK 921   NORMALIZED FREE ENERGY PREDICTED BY IDOCK:    8.68 KCAL/MOL
REMARK 922        TOTAL FREE ENERGY PREDICTED BY IDOCK:    9.32 KCAL/MOL
REMARK 923 INTER-LIGAND FREE ENERGY PREDICTED BY IDOCK:    0.18 KCAL/MOL
REMARK 924 INTRA-LIGAND FREE ENERGY PREDICTED BY IDOCK:    9.14 KCAL/MOL
REMARK 927      BINDING AFFINITY PREDICTED BY RF-SCORE:    0.00 PKD
ROOT
HETATM    1  C   UNL     1      -7.343   6.313  73.424  1.00  0.00    -0.087 C  
HETATM    2  C   UNL     1      -7.698   7.220  72.243  1.00  0.00    -0.092 C  
HETATM    3  O   UNL     1      -9.101   7.524  72.360  1.00  0.00    -0.128 OA 
HETATM    4  C   UNL     1      -9.670   8.206  71.249  1.00  0.00    -0.164 C  
HETATM    5  H1  UNL     1      -6.761   6.185  68.335  1.00  0.00     0.000 HD 
HETATM    6  C   UNL     1      -9.436   7.436  69.949  1.00  0.00    -0.153 C  
HETATM    7  C   UNL     1      -7.945   7.217  69.687  1.00  0.00    -0.124 C  
HETATM    8  H   UNL     1      -7.304   4.762  70.066  1.00  0.00     0.000 HD 
HETATM    9  H2  UNL     1      -8.240   6.686  67.685  1.00  0.00     0.000 HD 
HETATM   10  N   UNL     1      -7.756   6.332  68.510  1.00  0.00    -0.099 NA 
HETATM   11  C   UNL     1      -7.271   6.569  70.907  1.00  0.00    -0.071 C  
HETATM   12  O   UNL     1      -7.567   5.162  70.887  1.00  0.00    -0.075 OA 
ENDROOT
BRANCH   4  13
HETATM   13  O   UNL     1      -9.220   9.553  71.119  1.00  0.00    -0.226 OA 
BRANCH  13  14
HETATM   14  C   UNL     1      -8.422   9.898  69.966  1.00  0.00    -0.165 C  
HETATM   15  C   UNL     1      -8.967   9.031  68.815  1.00  0.00    -0.137 C  
HETATM   16  C   UNL     1     -10.402   9.459  68.443  1.00  0.00    -0.205 C  
HETATM   17  C   UNL     1     -10.330  10.845  67.810  1.00  0.00    -0.218 C  
HETATM   18  O   UNL     1     -11.280   9.513  69.577  1.00  0.00    -0.388 OA 
HETATM   19  H   UNL     1     -10.045  14.319  66.646  1.00  0.00     0.000 HD 
HETATM   20  O   UNL     1     -10.101  13.429  66.973  1.00  0.00    -0.241 OA 
HETATM   21  C   UNL     1      -9.279  13.108  68.028  1.00  0.00    -0.211 A  
HETATM   22  C   UNL     1      -9.361  11.792  68.512  1.00  0.00    -0.158 A  
HETATM   23  H   UNL     1     -12.164   9.776  69.347  1.00  0.00     0.000 HD 
HETATM   24  C   UNL     1      -8.479  11.367  69.544  1.00  0.00     0.659 A  
HETATM   25  C   UNL     1      -7.569  12.307  70.078  1.00  0.00     1.848 A  
HETATM   26  O   UNL     1      -6.653  11.934  71.024  1.00  0.00     0.032 OA 
HETATM   27  C   UNL     1      -7.518  13.639  69.603  1.00  0.00     0.530 A  
HETATM   28  C   UNL     1      -6.560  14.637  70.165  1.00  0.00    -0.143 C  
HETATM   29  H   UNL     1      -6.042  12.566  71.382  1.00  0.00     0.000 HD 
HETATM   30  C   UNL     1      -6.569  16.020  69.659  1.00  0.00    -0.185 A  
HETATM   31  O   UNL     1      -5.760  14.364  71.052  1.00  0.00    -0.166 OA 
HETATM   32  C   UNL     1      -5.723  16.978  70.232  1.00  0.00    -0.173 A  
HETATM   33  C   UNL     1      -5.735  18.296  69.783  1.00  0.00    -0.235 A  
HETATM   34  C   UNL     1      -6.591  18.665  68.745  1.00  0.00    -0.281 A  
HETATM   35  C   UNL     1      -7.427  17.724  68.166  1.00  0.00    -0.237 A  
HETATM   36  C   UNL     1      -7.411  16.391  68.629  1.00  0.00    -0.194 A  
HETATM   37  C   UNL     1      -8.302  15.398  68.013  1.00  0.00    -0.142 C  
HETATM   38  C   UNL     1      -8.371  14.030  68.568  1.00  0.00    -0.143 A  
HETATM   39  O   UNL     1      -8.987  15.694  67.034  1.00  0.00    -0.198 OA 
BRANCH  16  40
HETATM   40  C   UNL     1     -11.056   8.449  67.484  1.00  0.00     0.422 C  
HETATM   41  O   UNL     1     -11.522   8.782  66.392  1.00  0.00     1.860 OA 
HETATM   42  C   UNL     1     -11.126   7.006  67.941  1.00  0.00    -0.135 C  
ENDBRANCH  16  40
ENDBRANCH  13  14
ENDBRANCH   4  13
TORSDOF 3
ENDMDL
MODEL      126
REMARK 921   NORMALIZED FREE ENERGY PREDICTED BY IDOCK:   12.51 KCAL/MOL
REMARK 922        TOTAL FREE ENERGY PREDICTED BY IDOCK:   13.82 KCAL/MOL
REMARK 923 INTER-LIGAND FREE ENERGY PREDICTED BY IDOCK:    1.69 KCAL/MOL
REMARK 924 INTRA-LIGAND FREE ENERGY PREDICTED BY IDOCK:   12.12 KCAL/MOL
REMARK 927      BINDING AFFINITY PREDICTED BY RF-SCORE:    0.00 PKD
ROOT
HETATM    1  C   UNL     1     -11.591   2.165  65.317  1.00  0.00     6.080 C  
HETATM    2  C   UNL     1     -10.247   2.895  65.397  1.00  0.00     0.754 C  
HETATM    3  O   UNL     1     -10.543   4.283  65.645  1.00  0.00    -0.201 OA 
HETATM    4  C   UNL     1      -9.431   5.165  65.567  1.00  0.00    -0.080 C  
HETATM    5  H1  UNL     1      -7.386   2.538  62.413  1.00  0.00     0.000 HD 
HETATM    6  C   UNL     1      -8.722   5.043  64.217  1.00  0.00    -0.106 C  
HETATM    7  C   UNL     1      -8.242   3.614  63.962  1.00  0.00    -0.090 C  
HETATM    8  H   UNL     1      -9.677   2.476  62.166  1.00  0.00     0.000 HD 
HETATM    9  H2  UNL     1      -6.975   4.178  62.396  1.00  0.00     0.000 HD 
HETATM   10  N   UNL     1      -7.706   3.491  62.583  1.00  0.00    -0.058 NA 
HETATM   11  C   UNL     1      -9.398   2.615  64.135  1.00  0.00    -0.125 C  
HETATM   12  O   UNL     1     -10.199   2.648  62.941  1.00  0.00    -0.103 OA 
ENDROOT
BRANCH   4  13
HETATM   13  O   UNL     1      -8.500   5.002  66.634  1.00  0.00    -0.108 OA 
BRANCH  13  14
HETATM   14  C   UNL     1      -7.755   6.158  67.075  1.00  0.00    -0.100 C  
HETATM   15  C   UNL     1      -6.709   6.416  65.975  1.00  0.00    -0.049 C  
HETATM   16  C   UNL     1      -7.393   6.864  64.667  1.00  0.00    -0.090 C  
HETATM   17  C   UNL     1      -7.984   8.252  64.896  1.00  0.00    -0.144 C  
HETATM   18  O   UNL     1      -8.442   5.977  64.254  1.00  0.00    -0.308 OA 
HETATM   19  H   UNL     1      -9.662  11.419  65.704  1.00  0.00     0.000 HD 
HETATM   20  O   UNL     1      -9.242  10.587  65.522  1.00  0.00    -0.169 OA 
HETATM   21  C   UNL     1      -9.278   9.647  66.525  1.00  0.00    -0.158 A  
HETATM   22  C   UNL     1      -8.655   8.416  66.257  1.00  0.00    -0.149 A  
HETATM   23  H   UNL     1      -8.863   6.253  63.448  1.00  0.00     0.000 HD 
HETATM   24  C   UNL     1      -8.579   7.430  67.279  1.00  0.00    -0.118 A  
HETATM   25  C   UNL     1      -9.174   7.713  68.529  1.00  0.00    -0.143 A  
HETATM   26  O   UNL     1      -9.071   6.828  69.568  1.00  0.00    -0.141 OA 
HETATM   27  C   UNL     1      -9.826   8.944  68.777  1.00  0.00    -0.182 A  
HETATM   28  C   UNL     1     -10.458   9.247  70.095  1.00  0.00    -0.230 C  
HETATM   29  H   UNL     1      -9.471   7.019  70.408  1.00  0.00     0.000 HD 
HETATM   30  C   UNL     1     -11.152  10.531  70.292  1.00  0.00    -0.359 A  
HETATM   31  O   UNL     1     -10.440   8.464  71.036  1.00  0.00    -0.198 OA 
HETATM   32  C   UNL     1     -11.808  10.790  71.502  1.00  0.00     0.125 A  
HETATM   33  C   UNL     1     -12.491  11.989  71.697  1.00  0.00    -0.078 A  
HETATM   34  C   UNL     1     -12.514  12.945  70.681  1.00  0.00    -0.333 A  
HETATM   35  C   UNL     1     -11.862  12.701  69.482  1.00  0.00    -0.376 A  
HETATM   36  C   UNL     1     -11.174  11.484  69.291  1.00  0.00    -0.336 A  
HETATM   37  C   UNL     1     -10.487  11.230  68.018  1.00  0.00    -0.188 C  
HETATM   38  C   UNL     1      -9.864   9.914  67.770  1.00  0.00    -0.184 A  
HETATM   39  O   UNL     1     -10.422  12.107  67.158  1.00  0.00    -0.215 OA 
BRANCH  16  40
HETATM   40  C   UNL     1      -6.400   6.876  63.491  1.00  0.00    -0.043 C  
HETATM   41  O   UNL     1      -5.593   5.962  63.301  1.00  0.00    -0.017 OA 
HETATM   42  C   UNL     1      -6.434   8.076  62.568  1.00  0.00    -0.086 C  
ENDBRANCH  16  40
ENDBRANCH  13  14
ENDBRANCH   4  13
TORSDOF 3
ENDMDL
MODEL      127
REMARK 921   NORMALIZED FREE ENERGY PREDICTED BY IDOCK:   14.43 KCAL/MOL
REMARK 922        TOTAL FREE ENERGY PREDICTED BY IDOCK:   16.07 KCAL/MOL
REMARK 923 INTER-LIGAND FREE ENERGY PREDICTED BY IDOCK:   13.26 KCAL/MOL
REMARK 924 INTRA-LIGAND FREE ENERGY PREDICTED BY IDOCK:    2.81 KCAL/MOL
REMARK 927      BINDING AFFINITY PREDICTED BY RF-SCORE:    0.00 PKD
ROOT
HETATM    1  C   UNL     1     -11.114  10.231  64.730  1.00  0.00     1.487 C  
HETATM    2  C   UNL     1     -10.991  11.685  65.190  1.00  0.00    -0.266 C  
HETATM    3  O   UNL     1     -12.108  12.396  64.622  1.00  0.00    -0.398 OA 
HETATM    4  C   UNL     1     -12.073  13.809  64.778  1.00  0.00    -0.410 C  
HETATM    5  H1  UNL     1      -7.488  13.850  64.678  1.00  0.00     0.000 HD 
HETATM    6  C   UNL     1     -10.776  14.395  64.219  1.00  0.00     0.172 C  
HETATM    7  C   UNL     1      -9.547  13.789  64.897  1.00  0.00     0.446 C  
HETATM    8  H   UNL     1      -8.320  12.194  63.307  1.00  0.00     0.000 HD 
HETATM    9  H2  UNL     1      -8.257  15.272  64.183  1.00  0.00     0.000 HD 
HETATM   10  N   UNL     1      -8.308  14.254  64.225  1.00  0.00     7.889 NA 
HETATM   11  C   UNL     1      -9.597  12.254  64.837  1.00  0.00     0.069 C  
HETATM   12  O   UNL     1      -9.177  11.845  63.524  1.00  0.00    -0.017 OA 
ENDROOT
BRANCH   4  13
HETATM   13  O   UNL     1     -12.273  14.237  66.124  1.00  0.00    -0.431 OA 
BRANCH  13  14
HETATM   14  C   UNL     1     -11.302  13.843  67.117  1.00  0.00    -0.327 C  
HETATM   15  C   UNL     1     -10.606  15.147  67.551  1.00  0.00    -0.269 C  
HETATM   16  C   UNL     1     -11.590  16.065  68.305  1.00  0.00    -0.232 C  
HETATM   17  C   UNL     1     -11.921  15.405  69.640  1.00  0.00    -0.366 C  
HETATM   18  O   UNL     1     -12.811  16.286  67.583  1.00  0.00     1.674 OA 
HETATM   19  H   UNL     1     -12.905  13.530  72.643  1.00  0.00     0.000 HD 
HETATM   20  O   UNL     1     -12.657  13.988  71.848  1.00  0.00    -0.317 OA 
HETATM   21  C   UNL     1     -12.503  13.220  70.718  1.00  0.00    -0.324 A  
HETATM   22  C   UNL     1     -12.135  13.897  69.543  1.00  0.00    -0.393 A  
HETATM   23  H   UNL     1     -13.417  16.852  68.047  1.00  0.00     0.000 HD 
HETATM   24  C   UNL     1     -11.874  13.155  68.357  1.00  0.00    -0.386 A  
HETATM   25  C   UNL     1     -12.035  11.752  68.396  1.00  0.00    -0.183 A  
HETATM   26  O   UNL     1     -11.733  10.984  67.305  1.00  0.00    -0.504 OA 
HETATM   27  C   UNL     1     -12.437  11.085  69.578  1.00  0.00    -0.148 A  
HETATM   28  C   UNL     1     -12.610   9.602  69.623  1.00  0.00     1.117 C  
HETATM   29  H   UNL     1     -11.841  10.041  67.331  1.00  0.00     0.000 HD 
HETATM   30  C   UNL     1     -13.060   8.960  70.870  1.00  0.00     0.116 A  
HETATM   31  O   UNL     1     -12.405   8.880  68.656  1.00  0.00     2.759 OA 
HETATM   32  C   UNL     1     -13.294   7.579  70.897  1.00  0.00     0.012 A  
HETATM   33  C   UNL     1     -13.744   6.958  72.060  1.00  0.00    -0.111 A  
HETATM   34  C   UNL     1     -13.956   7.717  73.211  1.00  0.00     1.916 A  
HETATM   35  C   UNL     1     -13.721   9.082  73.197  1.00  0.00     0.430 A  
HETATM   36  C   UNL     1     -13.268   9.705  72.015  1.00  0.00    -0.546 A  
HETATM   37  C   UNL     1     -13.023  11.153  72.005  1.00  0.00    -0.280 C  
HETATM   38  C   UNL     1     -12.658  11.827  70.741  1.00  0.00    -0.344 A  
HETATM   39  O   UNL     1     -13.114  11.809  73.041  1.00  0.00     1.268 OA 
BRANCH  16  40
HETATM   40  C   UNL     1     -10.996  17.468  68.516  1.00  0.00     0.004 C  
HETATM   41  O   UNL     1     -11.125  18.371  67.686  1.00  0.00    -0.243 OA 
HETATM   42  C   UNL     1     -10.218  17.705  69.794  1.00  0.00     0.396 C  
ENDBRANCH  16  40
ENDBRANCH  13  14
ENDBRANCH   4  13
TORSDOF 3
ENDMDL
MODEL      128
REMARK 921   NORMALIZED FREE ENERGY PREDICTED BY IDOCK:   16.26 KCAL/MOL
REMARK 922        TOTAL FREE ENERGY PREDICTED BY IDOCK:   18.22 KCAL/MOL
REMARK 923 INTER-LIGAND FREE ENERGY PREDICTED BY IDOCK:    6.04 KCAL/MOL
REMARK 924 INTRA-LIGAND FREE ENERGY PREDICTED BY IDOCK:   12.18 KCAL/MOL
REMARK 927      BINDING AFFINITY PREDICTED BY RF-SCORE:    0.00 PKD
ROOT
HETATM    1  C   UNL     1      -9.459  14.137  71.491  1.00  0.00     6.407 C  
HETATM    2  C   UNL     1     -10.802  14.204  70.759  1.00  0.00     1.041 C  
HETATM    3  O   UNL     1     -11.005  15.581  70.389  1.00  0.00    -0.296 OA 
HETATM    4  C   UNL     1     -12.290  15.886  69.861  1.00  0.00    -0.071 C  
HETATM    5  H1  UNL     1     -14.268  12.623  72.405  1.00  0.00     0.000 HD 
HETATM    6  C   UNL     1     -13.398  15.464  70.826  1.00  0.00    -0.385 C  
HETATM    7  C   UNL     1     -13.331  13.969  71.138  1.00  0.00    -0.223 C  
HETATM    8  H   UNL     1     -12.494  13.573  73.530  1.00  0.00     0.000 HD 
HETATM    9  H2  UNL     1     -15.257  13.917  71.952  1.00  0.00     0.000 HD 
HETATM   10  N   UNL     1     -14.312  13.621  72.196  1.00  0.00    -0.456 NA 
HETATM   11  C   UNL     1     -11.924  13.578  71.620  1.00  0.00     0.657 C  
HETATM   12  O   UNL     1     -11.805  13.957  73.001  1.00  0.00     0.805 OA 
ENDROOT
BRANCH   4  13
HETATM   13  O   UNL     1     -12.518  15.332  68.567  1.00  0.00     0.093 OA 
BRANCH  13  14
HETATM   14  C   UNL     1     -11.575  15.637  67.517  1.00  0.00    -0.040 C  
HETATM   15  C   UNL     1     -11.200  17.117  67.719  1.00  0.00     0.090 C  
HETATM   16  C   UNL     1     -10.406  17.304  69.028  1.00  0.00    -0.330 C  
HETATM   17  C   UNL     1      -9.045  16.638  68.851  1.00  0.00    -0.238 C  
HETATM   18  O   UNL     1     -11.060  16.725  70.166  1.00  0.00    -0.451 OA 
HETATM   19  H   UNL     1      -5.964  14.684  68.413  1.00  0.00     0.000 HD 
HETATM   20  O   UNL     1      -6.778  15.163  68.516  1.00  0.00    -0.102 OA 
HETATM   21  C   UNL     1      -7.904  14.586  67.977  1.00  0.00    -0.137 A  
HETATM   22  C   UNL     1      -9.108  15.295  68.128  1.00  0.00    -0.174 A  
HETATM   23  H   UNL     1     -10.571  16.840  70.972  1.00  0.00     0.000 HD 
HETATM   24  C   UNL     1     -10.295  14.801  67.520  1.00  0.00    -0.238 A  
HETATM   25  C   UNL     1     -10.227  13.580  66.813  1.00  0.00    -0.264 A  
HETATM   26  O   UNL     1     -11.323  13.094  66.152  1.00  0.00    -0.297 OA 
HETATM   27  C   UNL     1      -9.015  12.859  66.694  1.00  0.00    -0.141 A  
HETATM   28  C   UNL     1      -8.939  11.568  65.948  1.00  0.00    -0.147 C  
HETATM   29  H   UNL     1     -11.277  12.273  65.677  1.00  0.00     0.000 HD 
HETATM   30  C   UNL     1      -7.660  10.841  65.881  1.00  0.00    -0.106 A  
HETATM   31  O   UNL     1      -9.906  11.065  65.389  1.00  0.00    -0.223 OA 
HETATM   32  C   UNL     1      -7.600   9.594  65.245  1.00  0.00    -0.113 A  
HETATM   33  C   UNL     1      -6.405   8.880  65.194  1.00  0.00    -0.061 A  
HETATM   34  C   UNL     1      -5.254   9.416  65.773  1.00  0.00    -0.039 A  
HETATM   35  C   UNL     1      -5.301  10.651  66.398  1.00  0.00    -0.071 A  
HETATM   36  C   UNL     1      -6.516  11.367  66.449  1.00  0.00    -0.029 A  
HETATM   37  C   UNL     1      -6.560  12.675  67.116  1.00  0.00    -0.007 C  
HETATM   38  C   UNL     1      -7.852  13.376  67.271  1.00  0.00    -0.107 A  
HETATM   39  O   UNL     1      -5.530  13.195  67.541  1.00  0.00    -0.266 OA 
BRANCH  16  40
HETATM   40  C   UNL     1     -10.248  18.794  69.379  1.00  0.00     0.242 C  
HETATM   41  O   UNL     1     -10.260  19.679  68.519  1.00  0.00    -0.427 OA 
HETATM   42  C   UNL     1     -10.058  19.145  70.840  1.00  0.00     2.139 C  
ENDBRANCH  16  40
ENDBRANCH  13  14
ENDBRANCH   4  13
TORSDOF 3
ENDMDL
MODEL      129
REMARK 921   NORMALIZED FREE ENERGY PREDICTED BY IDOCK:   17.28 KCAL/MOL
REMARK 922        TOTAL FREE ENERGY PREDICTED BY IDOCK:   19.43 KCAL/MOL
REMARK 923 INTER-LIGAND FREE ENERGY PREDICTED BY IDOCK:    0.24 KCAL/MOL
REMARK 924 INTRA-LIGAND FREE ENERGY PREDICTED BY IDOCK:   19.18 KCAL/MOL
REMARK 927      BINDING AFFINITY PREDICTED BY RF-SCORE:    0.00 PKD
ROOT
HETATM    1  C   UNL     1     -10.439   2.782  63.642  1.00  0.00    -0.189 C  
HETATM    2  C   UNL     1      -9.989   3.781  64.711  1.00  0.00    -0.187 C  
HETATM    3  O   UNL     1     -11.182   4.394  65.236  1.00  0.00    -0.121 OA 
HETATM    4  C   UNL     1     -10.967   5.492  66.114  1.00  0.00     0.128 C  
HETATM    5  H1  UNL     1      -7.106   6.662  63.933  1.00  0.00     0.000 HD 
HETATM    6  C   UNL     1     -10.107   6.569  65.451  1.00  0.00     1.573 C  
HETATM    7  C   UNL     1      -8.753   6.013  65.009  1.00  0.00     0.035 C  
HETATM    8  H   UNL     1      -8.647   5.793  62.455  1.00  0.00     0.000 HD 
HETATM    9  H2  UNL     1      -7.912   7.909  64.742  1.00  0.00     0.000 HD 
HETATM   10  N   UNL     1      -8.009   7.033  64.228  1.00  0.00    -0.119 NA 
HETATM   11  C   UNL     1      -8.940   4.761  64.135  1.00  0.00    -0.093 C  
HETATM   12  O   UNL     1      -9.291   5.191  62.809  1.00  0.00     0.058 OA 
ENDROOT
BRANCH   4  13
HETATM   13  O   UNL     1     -10.410   5.113  67.371  1.00  0.00    -0.191 OA 
BRANCH  13  14
HETATM   14  C   UNL     1      -9.640   6.093  68.100  1.00  0.00    -0.116 C  
HETATM   15  C   UNL     1      -8.307   5.400  68.437  1.00  0.00    -0.094 C  
HETATM   16  C   UNL     1      -7.491   5.134  67.155  1.00  0.00    -0.087 C  
HETATM   17  C   UNL     1      -7.035   6.480  66.601  1.00  0.00    -0.067 C  
HETATM   18  O   UNL     1      -8.247   4.450  66.146  1.00  0.00    -0.102 OA 
HETATM   19  H   UNL     1      -6.323   9.797  65.189  1.00  0.00     0.000 HD 
HETATM   20  O   UNL     1      -6.538   8.948  65.557  1.00  0.00    -0.066 OA 
HETATM   21  C   UNL     1      -7.786   8.822  66.122  1.00  0.00    -0.101 A  
HETATM   22  C   UNL     1      -8.105   7.566  66.668  1.00  0.00    -0.123 A  
HETATM   23  H   UNL     1      -7.744   4.286  65.356  1.00  0.00     0.000 HD 
HETATM   24  C   UNL     1      -9.343   7.389  67.345  1.00  0.00    -0.154 A  
HETATM   25  C   UNL     1     -10.234   8.484  67.410  1.00  0.00    -0.261 A  
HETATM   26  O   UNL     1     -11.408   8.389  68.107  1.00  0.00    -0.110 OA 
HETATM   27  C   UNL     1      -9.914   9.734  66.829  1.00  0.00    -0.278 A  
HETATM   28  C   UNL     1     -10.853  10.894  66.894  1.00  0.00    -0.249 C  
HETATM   29  H   UNL     1     -12.006   9.125  68.151  1.00  0.00     0.000 HD 
HETATM   30  C   UNL     1     -10.486  12.164  66.246  1.00  0.00    -0.270 A  
HETATM   31  O   UNL     1     -11.939  10.839  67.458  1.00  0.00    -0.313 OA 
HETATM   32  C   UNL     1     -11.393  13.232  66.241  1.00  0.00    -0.336 A  
HETATM   33  C   UNL     1     -11.074  14.433  65.612  1.00  0.00    -0.321 A  
HETATM   34  C   UNL     1      -9.834  14.578  64.987  1.00  0.00    -0.056 A  
HETATM   35  C   UNL     1      -8.927  13.530  64.992  1.00  0.00     1.914 A  
HETATM   36  C   UNL     1      -9.259  12.316  65.630  1.00  0.00     0.091 A  
HETATM   37  C   UNL     1      -8.294  11.208  65.629  1.00  0.00     0.002 C  
HETATM   38  C   UNL     1      -8.679   9.899  66.195  1.00  0.00    -0.150 A  
HETATM   39  O   UNL     1      -7.164  11.364  65.166  1.00  0.00     0.675 OA 
BRANCH  16  40
HETATM   40  C   UNL     1      -6.287   4.218  67.438  1.00  0.00    -0.041 C  
HETATM   41  O   UNL     1      -6.230   3.493  68.434  1.00  0.00    -0.030 OA 
HETATM   42  C   UNL     1      -5.147   4.247  66.442  1.00  0.00    -0.008 C  
ENDBRANCH  16  40
ENDBRANCH  13  14
ENDBRANCH   4  13
TORSDOF 3
ENDMDL
MODEL      130
REMARK 921   NORMALIZED FREE ENERGY PREDICTED BY IDOCK:   18.35 KCAL/MOL
REMARK 922        TOTAL FREE ENERGY PREDICTED BY IDOCK:   20.68 KCAL/MOL
REMARK 923 INTER-LIGAND FREE ENERGY PREDICTED BY IDOCK:    1.98 KCAL/MOL
REMARK 924 INTRA-LIGAND FREE ENERGY PREDICTED BY IDOCK:   18.70 KCAL/MOL
REMARK 927      BINDING AFFINITY PREDICTED BY RF-SCORE:    0.00 PKD
ROOT
HETATM    1  C   UNL     1      -8.533  11.316  68.610  1.00  0.00    -0.143 C  
HETATM    2  C   UNL     1      -9.288  10.223  69.371  1.00  0.00    -0.199 C  
HETATM    3  O   UNL     1     -10.009  10.879  70.432  1.00  0.00     0.775 OA 
HETATM    4  C   UNL     1     -10.628  10.011  71.373  1.00  0.00     0.563 C  
HETATM    5  H1  UNL     1      -7.369   6.835  70.804  1.00  0.00     0.000 HD 
HETATM    6  C   UNL     1      -9.613   9.046  71.986  1.00  0.00    -0.120 C  
HETATM    7  C   UNL     1      -8.920   8.204  70.914  1.00  0.00    -0.146 C  
HETATM    8  H   UNL     1      -6.489   8.955  70.593  1.00  0.00     0.000 HD 
HETATM    9  H2  UNL     1      -8.167   6.826  72.296  1.00  0.00     0.000 HD 
HETATM   10  N   UNL     1      -7.831   7.397  71.520  1.00  0.00    -0.086 NA 
HETATM   11  C   UNL     1      -8.321   9.104  69.822  1.00  0.00    -0.136 C  
HETATM   12  O   UNL     1      -7.083   9.643  70.316  1.00  0.00    -0.094 OA 
ENDROOT
BRANCH   4  13
HETATM   13  O   UNL     1     -11.738   9.293  70.839  1.00  0.00    -0.279 OA 
BRANCH  13  14
HETATM   14  C   UNL     1     -12.369   9.800  69.643  1.00  0.00     0.637 C  
HETATM   15  C   UNL     1     -13.281  10.948  70.116  1.00  0.00     0.299 C  
HETATM   16  C   UNL     1     -12.440  12.127  70.648  1.00  0.00    -0.242 C  
HETATM   17  C   UNL     1     -11.705  12.752  69.466  1.00  0.00    -0.383 C  
HETATM   18  O   UNL     1     -11.477  11.726  71.633  1.00  0.00     1.297 OA 
HETATM   19  H   UNL     1      -9.723  13.914  66.598  1.00  0.00     0.000 HD 
HETATM   20  O   UNL     1     -10.227  13.583  67.333  1.00  0.00    -0.234 OA 
HETATM   21  C   UNL     1     -10.390  12.219  67.402  1.00  0.00    -0.206 A  
HETATM   22  C   UNL     1     -11.134  11.729  68.488  1.00  0.00    -0.288 A  
HETATM   23  H   UNL     1     -10.960  12.453  71.961  1.00  0.00     0.000 HD 
HETATM   24  C   UNL     1     -11.416  10.337  68.575  1.00  0.00    -0.169 A  
HETATM   25  C   UNL     1     -10.896   9.485  67.576  1.00  0.00    -0.170 A  
HETATM   26  O   UNL     1     -11.193   8.148  67.574  1.00  0.00    -0.384 OA 
HETATM   27  C   UNL     1     -10.121   9.987  66.503  1.00  0.00    -0.296 A  
HETATM   28  C   UNL     1      -9.569   9.089  65.446  1.00  0.00    -0.014 C  
HETATM   29  H   UNL     1     -10.844   7.576  66.902  1.00  0.00     0.000 HD 
HETATM   30  C   UNL     1      -8.741   9.658  64.368  1.00  0.00    -0.230 A  
HETATM   31  O   UNL     1      -9.760   7.880  65.433  1.00  0.00     0.571 OA 
HETATM   32  C   UNL     1      -8.161   8.811  63.415  1.00  0.00    -0.170 A  
HETATM   33  C   UNL     1      -7.354   9.329  62.403  1.00  0.00    -0.104 A  
HETATM   34  C   UNL     1      -7.130  10.704  62.333  1.00  0.00    -0.136 A  
HETATM   35  C   UNL     1      -7.705  11.551  63.267  1.00  0.00     1.319 A  
HETATM   36  C   UNL     1      -8.519  11.019  64.290  1.00  0.00     0.216 A  
HETATM   37  C   UNL     1      -9.123  11.922  65.279  1.00  0.00     0.200 C  
HETATM   38  C   UNL     1      -9.881  11.361  66.417  1.00  0.00    -0.242 A  
HETATM   39  O   UNL     1      -9.009  13.141  65.165  1.00  0.00     0.913 OA 
BRANCH  16  40
HETATM   40  C   UNL     1     -13.324  13.168  71.359  1.00  0.00    -0.135 C  
HETATM   41  O   UNL     1     -13.489  14.306  70.915  1.00  0.00    -0.300 OA 
HETATM   42  C   UNL     1     -13.983  12.745  72.656  1.00  0.00     0.094 C  
ENDBRANCH  16  40
ENDBRANCH  13  14
ENDBRANCH   4  13
TORSDOF 3
ENDMDL
MODEL      131
REMARK 921   NORMALIZED FREE ENERGY PREDICTED BY IDOCK:   18.77 KCAL/MOL
REMARK 922        TOTAL FREE ENERGY PREDICTED BY IDOCK:   21.18 KCAL/MOL
REMARK 923 INTER-LIGAND FREE ENERGY PREDICTED BY IDOCK:   12.34 KCAL/MOL
REMARK 924 INTRA-LIGAND FREE ENERGY PREDICTED BY IDOCK:    8.84 KCAL/MOL
REMARK 927      BINDING AFFINITY PREDICTED BY RF-SCORE:    0.00 PKD
ROOT
HETATM    1  C   UNL     1      -6.770  20.341  70.425  1.00  0.00     0.064 C  
HETATM    2  C   UNL     1      -7.864  19.515  69.743  1.00  0.00     0.390 C  
HETATM    3  O   UNL     1      -8.824  19.176  70.762  1.00  0.00     2.435 OA 
HETATM    4  C   UNL     1      -9.827  18.248  70.368  1.00  0.00     2.088 C  
HETATM    5  H1  UNL     1      -6.970  16.186  67.433  1.00  0.00     0.000 HD 
HETATM    6  C   UNL     1      -9.207  16.961  69.824  1.00  0.00     0.803 C  
HETATM    7  C   UNL     1      -8.291  17.240  68.631  1.00  0.00    -0.255 C  
HETATM    8  H   UNL     1      -5.828  16.950  69.284  1.00  0.00     0.000 HD 
HETATM    9  H2  UNL     1      -8.228  15.234  68.042  1.00  0.00     0.000 HD 
HETATM   10  N   UNL     1      -7.581  16.000  68.229  1.00  0.00    -0.134 NA 
HETATM   11  C   UNL     1      -7.250  18.314  68.986  1.00  0.00    -0.223 C  
HETATM   12  O   UNL     1      -6.205  17.688  69.749  1.00  0.00    -0.244 OA 
ENDROOT
BRANCH   4  13
HETATM   13  O   UNL     1     -10.762  18.784  69.434  1.00  0.00     0.542 OA 
BRANCH  13  14
HETATM   14  C   UNL     1     -11.697  17.880  68.807  1.00  0.00     2.545 C  
HETATM   15  C   UNL     1     -11.715  18.277  67.319  1.00  0.00     1.808 C  
HETATM   16  C   UNL     1     -10.359  17.963  66.654  1.00  0.00    -0.361 C  
HETATM   17  C   UNL     1     -10.205  16.447  66.592  1.00  0.00    -0.296 C  
HETATM   18  O   UNL     1      -9.245  18.513  67.373  1.00  0.00    -0.275 OA 
HETATM   19  H   UNL     1      -9.810  12.802  66.844  1.00  0.00     0.000 HD 
HETATM   20  O   UNL     1      -9.920  13.745  66.811  1.00  0.00    -0.256 OA 
HETATM   21  C   UNL     1     -10.507  14.335  67.906  1.00  0.00    -0.240 A  
HETATM   22  C   UNL     1     -10.670  15.730  67.857  1.00  0.00    -0.302 A  
HETATM   23  H   UNL     1      -8.410  18.320  66.964  1.00  0.00     0.000 HD 
HETATM   24  C   UNL     1     -11.348  16.395  68.916  1.00  0.00    -0.272 A  
HETATM   25  C   UNL     1     -11.802  15.625  70.010  1.00  0.00    -0.367 A  
HETATM   26  O   UNL     1     -12.518  16.203  71.022  1.00  0.00    -0.530 OA 
HETATM   27  C   UNL     1     -11.603  14.225  70.062  1.00  0.00    -0.325 A  
HETATM   28  C   UNL     1     -12.080  13.406  71.217  1.00  0.00     0.104 C  
HETATM   29  H   UNL     1     -12.823  15.685  71.757  1.00  0.00     0.000 HD 
HETATM   30  C   UNL     1     -11.820  11.957  71.238  1.00  0.00     0.744 A  
HETATM   31  O   UNL     1     -12.675  13.888  72.172  1.00  0.00    -0.298 OA 
HETATM   32  C   UNL     1     -12.200  11.197  72.351  1.00  0.00     1.961 A  
HETATM   33  C   UNL     1     -11.940   9.829  72.400  1.00  0.00     0.560 A  
HETATM   34  C   UNL     1     -11.304   9.207  71.325  1.00  0.00    -0.406 A  
HETATM   35  C   UNL     1     -10.929   9.949  70.215  1.00  0.00    -0.366 A  
HETATM   36  C   UNL     1     -11.193  11.335  70.175  1.00  0.00    -0.151 A  
HETATM   37  C   UNL     1     -10.792  12.116  68.997  1.00  0.00    -0.162 C  
HETATM   38  C   UNL     1     -10.963  13.583  68.998  1.00  0.00    -0.264 A  
HETATM   39  O   UNL     1     -10.320  11.557  68.008  1.00  0.00    -0.180 OA 
BRANCH  16  40
HETATM   40  C   UNL     1     -10.267  18.584  65.249  1.00  0.00     0.913 C  
HETATM   41  O   UNL     1     -10.221  17.897  64.226  1.00  0.00     2.818 OA 
HETATM   42  C   UNL     1     -10.219  20.095  65.162  1.00  0.00     0.475 C  
ENDBRANCH  16  40
ENDBRANCH  13  14
ENDBRANCH   4  13
TORSDOF 3
ENDMDL
MODEL      132
REMARK 921   NORMALIZED FREE ENERGY PREDICTED BY IDOCK:   19.51 KCAL/MOL
REMARK 922        TOTAL FREE ENERGY PREDICTED BY IDOCK:   22.04 KCAL/MOL
REMARK 923 INTER-LIGAND FREE ENERGY PREDICTED BY IDOCK:    9.14 KCAL/MOL
REMARK 924 INTRA-LIGAND FREE ENERGY PREDICTED BY IDOCK:   12.91 KCAL/MOL
REMARK 927      BINDING AFFINITY PREDICTED BY RF-SCORE:    0.00 PKD
ROOT
HETATM    1  C   UNL     1     -13.219  11.833  63.018  1.00  0.00     0.655 C  
HETATM    2  C   UNL     1     -11.989  12.167  63.866  1.00  0.00    -0.486 C  
HETATM    3  O   UNL     1     -11.057  12.841  62.999  1.00  0.00    -0.081 OA 
HETATM    4  C   UNL     1      -9.767  13.069  63.554  1.00  0.00     1.648 C  
HETATM    5  H1  UNL     1     -10.041   9.278  66.119  1.00  0.00     0.000 HD 
HETATM    6  C   UNL     1      -9.137  11.764  64.041  1.00  0.00     0.350 C  
HETATM    7  C   UNL     1     -10.012  11.074  65.088  1.00  0.00    -0.278 C  
HETATM    8  H   UNL     1     -11.128   8.983  64.108  1.00  0.00     0.000 HD 
HETATM    9  H2  UNL     1      -8.482   9.794  65.716  1.00  0.00     0.000 HD 
HETATM   10  N   UNL     1      -9.457   9.738  65.421  1.00  0.00    -0.250 NA 
HETATM   11  C   UNL     1     -11.446  10.897  64.563  1.00  0.00     0.764 C  
HETATM   12  O   UNL     1     -11.462   9.763  63.680  1.00  0.00     5.129 OA 
ENDROOT
BRANCH   4  13
HETATM   13  O   UNL     1      -9.760  14.045  64.593  1.00  0.00    -0.016 OA 
BRANCH  13  14
HETATM   14  C   UNL     1      -8.690  14.004  65.561  1.00  0.00     1.840 C  
HETATM   15  C   UNL     1      -8.756  15.353  66.303  1.00  0.00    -0.240 C  
HETATM   16  C   UNL     1     -10.044  15.449  67.145  1.00  0.00    -0.245 C  
HETATM   17  C   UNL     1      -9.935  14.446  68.289  1.00  0.00    -0.232 C  
HETATM   18  O   UNL     1     -11.229  15.159  66.388  1.00  0.00    -0.339 OA 
HETATM   19  H   UNL     1      -9.689  11.741  70.765  1.00  0.00     0.000 HD 
HETATM   20  O   UNL     1      -9.745  12.419  70.101  1.00  0.00     2.586 OA 
HETATM   21  C   UNL     1      -9.257  12.101  68.855  1.00  0.00     0.231 A  
HETATM   22  C   UNL     1      -9.338  13.103  67.874  1.00  0.00    -0.215 A  
HETATM   23  H   UNL     1     -12.022  15.219  66.907  1.00  0.00     0.000 HD 
HETATM   24  C   UNL     1      -8.775  12.874  66.588  1.00  0.00    -0.046 A  
HETATM   25  C   UNL     1      -8.183  11.617  66.330  1.00  0.00     0.012 A  
HETATM   26  O   UNL     1      -7.566  11.368  65.134  1.00  0.00    -0.020 OA 
HETATM   27  C   UNL     1      -8.135  10.605  67.317  1.00  0.00    -0.116 A  
HETATM   28  C   UNL     1      -7.512   9.275  67.049  1.00  0.00    -0.091 C  
HETATM   29  H   UNL     1      -7.169  10.523  64.961  1.00  0.00     0.000 HD 
HETATM   30  C   UNL     1      -7.517   8.243  68.100  1.00  0.00    -0.097 A  
HETATM   31  O   UNL     1      -6.999   8.985  65.975  1.00  0.00    -0.082 OA 
HETATM   32  C   UNL     1      -6.999   6.970  67.830  1.00  0.00    -0.083 A  
HETATM   33  C   UNL     1      -7.017   5.974  68.804  1.00  0.00    -0.072 A  
HETATM   34  C   UNL     1      -7.548   6.250  70.065  1.00  0.00    -0.096 A  
HETATM   35  C   UNL     1      -8.057   7.508  70.344  1.00  0.00    -0.111 A  
HETATM   36  C   UNL     1      -8.038   8.511  69.352  1.00  0.00    -0.112 A  
HETATM   37  C   UNL     1      -8.581   9.842  69.654  1.00  0.00    -0.191 C  
HETATM   38  C   UNL     1      -8.666  10.859  68.585  1.00  0.00    -0.154 A  
HETATM   39  O   UNL     1      -8.960  10.119  70.791  1.00  0.00     0.274 OA 
BRANCH  16  40
HETATM   40  C   UNL     1     -10.257  16.875  67.682  1.00  0.00    -0.306 C  
HETATM   41  O   UNL     1      -9.831  17.871  67.093  1.00  0.00    -0.288 OA 
HETATM   42  C   UNL     1     -11.007  17.018  68.990  1.00  0.00    -0.103 C  
ENDBRANCH  16  40
ENDBRANCH  13  14
ENDBRANCH   4  13
TORSDOF 3
ENDMDL
MODEL      133
REMARK 921   NORMALIZED FREE ENERGY PREDICTED BY IDOCK:   21.58 KCAL/MOL
REMARK 922        TOTAL FREE ENERGY PREDICTED BY IDOCK:   24.48 KCAL/MOL
REMARK 923 INTER-LIGAND FREE ENERGY PREDICTED BY IDOCK:   20.95 KCAL/MOL
REMARK 924 INTRA-LIGAND FREE ENERGY PREDICTED BY IDOCK:    3.53 KCAL/MOL
REMARK 927      BINDING AFFINITY PREDICTED BY RF-SCORE:    0.00 PKD
ROOT
HETATM    1  C   UNL     1      -9.648  10.726  65.965  1.00  0.00    -0.244 C  
HETATM    2  C   UNL     1      -8.462  11.634  66.301  1.00  0.00    -0.066 C  
HETATM    3  O   UNL     1      -8.444  11.781  67.734  1.00  0.00    -0.134 OA 
HETATM    4  C   UNL     1      -7.525  12.743  68.235  1.00  0.00    -0.124 C  
HETATM    5  H1  UNL     1      -7.943  15.318  64.463  1.00  0.00     0.000 HD 
HETATM    6  C   UNL     1      -7.758  14.114  67.599  1.00  0.00    -0.186 C  
HETATM    7  C   UNL     1      -7.636  14.055  66.076  1.00  0.00     3.545 C  
HETATM    8  H   UNL     1      -9.937  14.276  64.966  1.00  0.00     0.000 HD 
HETATM    9  H2  UNL     1      -7.493  16.132  65.875  1.00  0.00     0.000 HD 
HETATM   10  N   UNL     1      -8.025  15.357  65.479  1.00  0.00     2.621 NA 
HETATM   11  C   UNL     1      -8.543  12.955  65.501  1.00  0.00     1.594 C  
HETATM   12  O   UNL     1      -9.887  13.464  65.457  1.00  0.00    -0.237 OA 
ENDROOT
BRANCH   4  13
HETATM   13  O   UNL     1      -6.160  12.354  68.092  1.00  0.00    -0.055 OA 
BRANCH  13  14
HETATM   14  C   UNL     1      -5.592  11.474  69.086  1.00  0.00    -0.048 C  
HETATM   15  C   UNL     1      -5.401  12.345  70.342  1.00  0.00    -0.131 C  
HETATM   16  C   UNL     1      -6.765  12.769  70.925  1.00  0.00     2.073 C  
HETATM   17  C   UNL     1      -7.445  11.523  71.484  1.00  0.00     7.030 C  
HETATM   18  O   UNL     1      -7.628  13.367  69.946  1.00  0.00     0.177 OA 
HETATM   19  H   UNL     1      -9.111   8.394  72.452  1.00  0.00     0.000 HD 
HETATM   20  O   UNL     1      -8.673   9.190  72.173  1.00  0.00    -0.306 OA 
HETATM   21  C   UNL     1      -7.940   9.113  71.012  1.00  0.00    -0.125 A  
HETATM   22  C   UNL     1      -7.292  10.290  70.598  1.00  0.00     0.414 A  
HETATM   23  H   UNL     1      -8.468  13.628  70.305  1.00  0.00     0.000 HD 
HETATM   24  C   UNL     1      -6.447  10.261  69.455  1.00  0.00    -0.053 A  
HETATM   25  C   UNL     1      -6.320   9.046  68.745  1.00  0.00    -0.049 A  
HETATM   26  O   UNL     1      -5.468   8.945  67.679  1.00  0.00    -0.034 OA 
HETATM   27  C   UNL     1      -7.003   7.875  69.154  1.00  0.00    -0.057 A  
HETATM   28  C   UNL     1      -6.873   6.589  68.406  1.00  0.00    -0.071 C  
HETATM   29  H   UNL     1      -5.384   8.128  67.202  1.00  0.00     0.000 HD 
HETATM   30  C   UNL     1      -7.630   5.408  68.855  1.00  0.00    -0.079 A  
HETATM   31  O   UNL     1      -6.167   6.466  67.413  1.00  0.00    -0.029 OA 
HETATM   32  C   UNL     1      -7.569   4.220  68.115  1.00  0.00    -0.068 A  
HETATM   33  C   UNL     1      -8.298   3.099  68.510  1.00  0.00    -0.091 A  
HETATM   34  C   UNL     1      -9.089   3.158  69.658  1.00  0.00    -0.204 A  
HETATM   35  C   UNL     1      -9.151   4.327  70.400  1.00  0.00    -0.171 A  
HETATM   36  C   UNL     1      -8.412   5.458  69.992  1.00  0.00    -0.111 A  
HETATM   37  C   UNL     1      -8.485   6.695  70.782  1.00  0.00    -0.134 C  
HETATM   38  C   UNL     1      -7.805   7.915  70.298  1.00  0.00    -0.089 A  
HETATM   39  O   UNL     1      -9.102   6.722  71.846  1.00  0.00    -0.143 OA 
BRANCH  16  40
HETATM   40  C   UNL     1      -6.599  13.843  72.015  1.00  0.00     2.060 C  
HETATM   41  O   UNL     1      -5.642  13.850  72.792  1.00  0.00    -0.403 OA 
HETATM   42  C   UNL     1      -7.678  14.901  72.114  1.00  0.00     4.878 C  
ENDBRANCH  16  40
ENDBRANCH  13  14
ENDBRANCH   4  13
TORSDOF 3
ENDMDL
MODEL      134
REMARK 921   NORMALIZED FREE ENERGY PREDICTED BY IDOCK:   22.41 KCAL/MOL
REMARK 922        TOTAL FREE ENERGY PREDICTED BY IDOCK:   25.45 KCAL/MOL
REMARK 923 INTER-LIGAND FREE ENERGY PREDICTED BY IDOCK:    8.78 KCAL/MOL
REMARK 924 INTRA-LIGAND FREE ENERGY PREDICTED BY IDOCK:   16.67 KCAL/MOL
REMARK 927      BINDING AFFINITY PREDICTED BY RF-SCORE:    0.00 PKD
ROOT
HETATM    1  C   UNL     1      -7.786  13.824  65.953  1.00  0.00     3.643 C  
HETATM    2  C   UNL     1      -8.199  14.692  67.144  1.00  0.00    -0.201 C  
HETATM    3  O   UNL     1      -8.697  15.930  66.602  1.00  0.00    -0.232 OA 
HETATM    4  C   UNL     1      -8.960  16.950  67.558  1.00  0.00    -0.206 C  
HETATM    5  H1  UNL     1      -5.616  15.433  70.306  1.00  0.00     0.000 HD 
HETATM    6  C   UNL     1      -7.722  17.243  68.406  1.00  0.00    -0.247 C  
HETATM    7  C   UNL     1      -7.232  15.992  69.136  1.00  0.00    -0.208 C  
HETATM    8  H   UNL     1      -5.059  15.118  68.091  1.00  0.00     0.000 HD 
HETATM    9  H2  UNL     1      -6.007  17.073  70.443  1.00  0.00     0.000 HD 
HETATM   10  N   UNL     1      -5.943  16.268  69.819  1.00  0.00    -0.181 NA 
HETATM   11  C   UNL     1      -7.031  14.832  68.148  1.00  0.00    -0.125 C  
HETATM   12  O   UNL     1      -5.776  15.032  67.475  1.00  0.00    -0.326 OA 
ENDROOT
BRANCH   4  13
HETATM   13  O   UNL     1     -10.081  16.672  68.393  1.00  0.00    -0.245 OA 
BRANCH  13  14
HETATM   14  C   UNL     1     -11.108  15.791  67.887  1.00  0.00    -0.326 C  
HETATM   15  C   UNL     1     -11.824  16.589  66.781  1.00  0.00     1.447 C  
HETATM   16  C   UNL     1     -10.882  16.824  65.582  1.00  0.00    -0.107 C  
HETATM   17  C   UNL     1     -10.629  15.477  64.911  1.00  0.00    -0.370 C  
HETATM   18  O   UNL     1      -9.622  17.393  65.966  1.00  0.00    -0.464 OA 
HETATM   19  H   UNL     1      -9.823  12.129  63.629  1.00  0.00     0.000 HD 
HETATM   20  O   UNL     1     -10.025  12.984  63.991  1.00  0.00    -0.308 OA 
HETATM   21  C   UNL     1     -10.116  13.067  65.360  1.00  0.00    -0.252 A  
HETATM   22  C   UNL     1     -10.414  14.331  65.896  1.00  0.00    -0.315 A  
HETATM   23  H   UNL     1      -9.042  17.538  65.227  1.00  0.00     0.000 HD 
HETATM   24  C   UNL     1     -10.609  14.472  67.298  1.00  0.00    -0.280 A  
HETATM   25  C   UNL     1     -10.454  13.329  68.114  1.00  0.00    -0.245 A  
HETATM   26  O   UNL     1     -10.696  13.393  69.459  1.00  0.00    -0.446 OA 
HETATM   27  C   UNL     1     -10.123  12.067  67.565  1.00  0.00    -0.205 A  
HETATM   28  C   UNL     1      -9.957  10.856  68.424  1.00  0.00    -0.178 C  
HETATM   29  H   UNL     1     -10.592  12.624  70.007  1.00  0.00     0.000 HD 
HETATM   30  C   UNL     1      -9.580   9.573  67.807  1.00  0.00    -0.156 A  
HETATM   31  O   UNL     1     -10.107  10.877  69.639  1.00  0.00    -0.103 OA 
HETATM   32  C   UNL     1      -9.351   8.452  68.616  1.00  0.00    -0.143 A  
HETATM   33  C   UNL     1      -8.970   7.236  68.053  1.00  0.00    -0.131 A  
HETATM   34  C   UNL     1      -8.822   7.131  66.669  1.00  0.00    -0.142 A  
HETATM   35  C   UNL     1      -9.052   8.233  65.860  1.00  0.00    -0.203 A  
HETATM   36  C   UNL     1      -9.436   9.461  66.438  1.00  0.00    -0.259 A  
HETATM   37  C   UNL     1      -9.675  10.626  65.575  1.00  0.00    -0.237 C  
HETATM   38  C   UNL     1      -9.966  11.941  66.182  1.00  0.00    -0.254 A  
HETATM   39  O   UNL     1      -9.642  10.514  64.351  1.00  0.00    -0.246 OA 
BRANCH  16  40
HETATM   40  C   UNL     1     -11.484  17.831  64.586  1.00  0.00     2.453 C  
HETATM   41  O   UNL     1     -11.364  19.050  64.729  1.00  0.00     0.224 OA 
HETATM   42  C   UNL     1     -12.257  17.266  63.413  1.00  0.00     8.355 C  
ENDBRANCH  16  40
ENDBRANCH  13  14
ENDBRANCH   4  13
TORSDOF 3
ENDMDL
MODEL      135
REMARK 921   NORMALIZED FREE ENERGY PREDICTED BY IDOCK:   22.59 KCAL/MOL
REMARK 922        TOTAL FREE ENERGY PREDICTED BY IDOCK:   25.67 KCAL/MOL
REMARK 923 INTER-LIGAND FREE ENERGY PREDICTED BY IDOCK:   13.22 KCAL/MOL
REMARK 924 INTRA-LIGAND FREE ENERGY PREDICTED BY IDOCK:   12.45 KCAL/MOL
REMARK 927      BINDING AFFINITY PREDICTED BY RF-SCORE:    0.00 PKD
ROOT
HETATM    1  C   UNL     1      -9.835  18.573  69.807  1.00  0.00     0.598 C  
HETATM    2  C   UNL     1      -9.772  17.073  70.110  1.00  0.00     1.305 C  
HETATM    3  O   UNL     1     -10.314  16.395  68.960  1.00  0.00    -0.241 OA 
HETATM    4  C   UNL     1     -10.517  14.996  69.119  1.00  0.00    -0.247 C  
HETATM    5  H1  UNL     1     -11.349  15.483  73.603  1.00  0.00     0.000 HD 
HETATM    6  C   UNL     1     -11.401  14.701  70.331  1.00  0.00    -0.232 C  
HETATM    7  C   UNL     1     -10.798  15.265  71.618  1.00  0.00     0.154 C  
HETATM    8  H   UNL     1     -12.121  17.309  72.426  1.00  0.00     0.000 HD 
HETATM    9  H2  UNL     1     -12.051  14.138  72.857  1.00  0.00     0.000 HD 
HETATM   10  N   UNL     1     -11.752  15.106  72.744  1.00  0.00    -0.380 NA 
HETATM   11  C   UNL     1     -10.471  16.759  71.453  1.00  0.00     2.279 C  
HETATM   12  O   UNL     1     -11.692  17.502  71.601  1.00  0.00     1.514 OA 
ENDROOT
BRANCH   4  13
HETATM   13  O   UNL     1      -9.304  14.251  69.195  1.00  0.00    -0.042 OA 
BRANCH  13  14
HETATM   14  C   UNL     1      -9.385  12.844  69.508  1.00  0.00     1.558 C  
HETATM   15  C   UNL     1     -10.751  12.654  70.194  1.00  0.00     1.389 C  
HETATM   16  C   UNL     1     -11.901  12.902  69.196  1.00  0.00    -0.303 C  
HETATM   17  C   UNL     1     -11.885  11.774  68.170  1.00  0.00    -0.324 C  
HETATM   18  O   UNL     1     -11.781  14.156  68.508  1.00  0.00    -0.306 OA 
HETATM   19  H   UNL     1     -11.496   9.206  65.570  1.00  0.00     0.000 HD 
HETATM   20  O   UNL     1     -11.565   9.877  66.239  1.00  0.00     1.109 OA 
HETATM   21  C   UNL     1     -10.383  10.392  66.717  1.00  0.00    -0.235 A  
HETATM   22  C   UNL     1     -10.484  11.384  67.708  1.00  0.00    -0.215 A  
HETATM   23  H   UNL     1     -12.490  14.308  67.893  1.00  0.00     0.000 HD 
HETATM   24  C   UNL     1      -9.302  11.898  68.309  1.00  0.00    -0.193 A  
HETATM   25  C   UNL     1      -8.054  11.416  67.854  1.00  0.00    -0.126 A  
HETATM   26  O   UNL     1      -6.889  11.827  68.444  1.00  0.00    -0.061 OA 
HETATM   27  C   UNL     1      -7.965  10.440  66.834  1.00  0.00    -0.114 A  
HETATM   28  C   UNL     1      -6.648   9.928  66.349  1.00  0.00    -0.073 C  
HETATM   29  H   UNL     1      -6.051  11.503  68.138  1.00  0.00     0.000 HD 
HETATM   30  C   UNL     1      -6.609   8.935  65.262  1.00  0.00    -0.068 A  
HETATM   31  O   UNL     1      -5.578  10.308  66.807  1.00  0.00    -0.044 OA 
HETATM   32  C   UNL     1      -5.376   8.506  64.754  1.00  0.00    -0.039 A  
HETATM   33  C   UNL     1      -5.319   7.586  63.710  1.00  0.00    -0.033 A  
HETATM   34  C   UNL     1      -6.502   7.079  63.170  1.00  0.00    -0.044 A  
HETATM   35  C   UNL     1      -7.727   7.492  63.670  1.00  0.00    -0.126 A  
HETATM   36  C   UNL     1      -7.776   8.426  64.726  1.00  0.00    -0.109 A  
HETATM   37  C   UNL     1      -9.078   8.862  65.250  1.00  0.00    -0.136 C  
HETATM   38  C   UNL     1      -9.137   9.923  66.276  1.00  0.00    -0.187 A  
HETATM   39  O   UNL     1     -10.119   8.346  64.845  1.00  0.00     1.743 OA 
BRANCH  16  40
HETATM   40  C   UNL     1     -13.260  12.974  69.915  1.00  0.00     1.373 C  
HETATM   41  O   UNL     1     -14.124  13.800  69.611  1.00  0.00     3.417 OA 
HETATM   42  C   UNL     1     -13.500  11.989  71.040  1.00  0.00     0.663 C  
ENDBRANCH  16  40
ENDBRANCH  13  14
ENDBRANCH   4  13
TORSDOF 3
ENDMDL
MODEL      136
REMARK 921   NORMALIZED FREE ENERGY PREDICTED BY IDOCK:   24.04 KCAL/MOL
REMARK 922        TOTAL FREE ENERGY PREDICTED BY IDOCK:   27.37 KCAL/MOL
REMARK 923 INTER-LIGAND FREE ENERGY PREDICTED BY IDOCK:   24.02 KCAL/MOL
REMARK 924 INTRA-LIGAND FREE ENERGY PREDICTED BY IDOCK:    3.35 KCAL/MOL
REMARK 927      BINDING AFFINITY PREDICTED BY RF-SCORE:    0.00 PKD
ROOT
HETATM    1  C   UNL     1     -10.527   9.446  62.389  1.00  0.00     3.454 C  
HETATM    2  C   UNL     1     -10.710   9.954  63.822  1.00  0.00     2.800 C  
HETATM    3  O   UNL     1     -11.649   9.067  64.460  1.00  0.00     8.882 OA 
HETATM    4  C   UNL     1     -12.098   9.478  65.745  1.00  0.00     8.150 C  
HETATM    5  H1  UNL     1     -11.676  13.907  64.632  1.00  0.00     0.000 HD 
HETATM    6  C   UNL     1     -12.698  10.883  65.697  1.00  0.00     5.534 C  
HETATM    7  C   UNL     1     -11.691  11.907  65.171  1.00  0.00    -0.179 C  
HETATM    8  H   UNL     1     -12.311  12.661  62.799  1.00  0.00     0.000 HD 
HETATM    9  H2  UNL     1     -12.809  13.545  65.835  1.00  0.00     0.000 HD 
HETATM   10  N   UNL     1     -12.349  13.224  64.983  1.00  0.00    -0.429 NA 
HETATM   11  C   UNL     1     -11.106  11.449  63.825  1.00  0.00    -0.334 C  
HETATM   12  O   UNL     1     -12.068  11.743  62.797  1.00  0.00     0.123 OA 
ENDROOT
BRANCH   4  13
HETATM   13  O   UNL     1     -11.089   9.401  66.750  1.00  0.00     0.088 OA 
BRANCH  13  14
HETATM   14  C   UNL     1     -11.153  10.330  67.854  1.00  0.00    -0.276 C  
HETATM   15  C   UNL     1     -11.363   9.461  69.109  1.00  0.00     0.156 C  
HETATM   16  C   UNL     1     -10.115   8.600  69.390  1.00  0.00    -0.204 C  
HETATM   17  C   UNL     1      -8.987   9.532  69.818  1.00  0.00    -0.214 C  
HETATM   18  O   UNL     1      -9.687   7.848  68.246  1.00  0.00    -0.153 OA 
HETATM   19  H   UNL     1      -6.274  11.923  70.471  1.00  0.00     0.000 HD 
HETATM   20  O   UNL     1      -6.983  11.322  70.275  1.00  0.00    -0.068 OA 
HETATM   21  C   UNL     1      -7.863  11.709  69.292  1.00  0.00     0.222 A  
HETATM   22  C   UNL     1      -8.912  10.820  69.002  1.00  0.00    -0.141 A  
HETATM   23  H   UNL     1      -8.918   7.317  68.420  1.00  0.00     0.000 HD 
HETATM   24  C   UNL     1      -9.908  11.194  68.058  1.00  0.00    -0.185 A  
HETATM   25  C   UNL     1      -9.781  12.443  67.409  1.00  0.00    -0.193 A  
HETATM   26  O   UNL     1     -10.746  12.881  66.543  1.00  0.00    -0.265 OA 
HETATM   27  C   UNL     1      -8.702  13.315  67.686  1.00  0.00    -0.195 A  
HETATM   28  C   UNL     1      -8.564  14.635  67.002  1.00  0.00    -0.224 C  
HETATM   29  H   UNL     1     -10.661  13.720  66.107  1.00  0.00     0.000 HD 
HETATM   30  C   UNL     1      -7.404  15.493  67.303  1.00  0.00    -0.249 A  
HETATM   31  O   UNL     1      -9.372  15.045  66.178  1.00  0.00    -0.291 OA 
HETATM   32  C   UNL     1      -7.231  16.698  66.611  1.00  0.00    -0.276 A  
HETATM   33  C   UNL     1      -6.128  17.510  66.865  1.00  0.00    -0.204 A  
HETATM   34  C   UNL     1      -5.191  17.124  67.824  1.00  0.00    -0.125 A  
HETATM   35  C   UNL     1      -5.357  15.936  68.519  1.00  0.00    -0.102 A  
HETATM   36  C   UNL     1      -6.475  15.118  68.254  1.00  0.00    -0.117 A  
HETATM   37  C   UNL     1      -6.644  13.859  68.992  1.00  0.00    -0.107 C  
HETATM   38  C   UNL     1      -7.750  12.945  68.640  1.00  0.00    -0.067 A  
HETATM   39  O   UNL     1      -5.875  13.562  69.906  1.00  0.00    -0.107 OA 
BRANCH  16  40
HETATM   40  C   UNL     1     -10.398   7.544  70.474  1.00  0.00    -0.215 C  
HETATM   41  O   UNL     1     -11.327   6.738  70.384  1.00  0.00    -0.299 OA 
HETATM   42  C   UNL     1      -9.489   7.537  71.686  1.00  0.00    -0.170 C  
ENDBRANCH  16  40
ENDBRANCH  13  14
ENDBRANCH   4  13
TORSDOF 3
ENDMDL
MODEL      137
REMARK 921   NORMALIZED FREE ENERGY PREDICTED BY IDOCK:   24.91 KCAL/MOL
REMARK 922        TOTAL FREE ENERGY PREDICTED BY IDOCK:   28.39 KCAL/MOL
REMARK 923 INTER-LIGAND FREE ENERGY PREDICTED BY IDOCK:   -6.06 KCAL/MOL
REMARK 924 INTRA-LIGAND FREE ENERGY PREDICTED BY IDOCK:   34.45 KCAL/MOL
REMARK 927      BINDING AFFINITY PREDICTED BY RF-SCORE:    0.00 PKD
ROOT
HETATM    1  C   UNL     1      -9.593   4.811  67.112  1.00  0.00    -0.185 C  
HETATM    2  C   UNL     1      -9.704   5.708  68.348  1.00  0.00    -0.128 C  
HETATM    3  O   UNL     1     -10.886   5.292  69.059  1.00  0.00    -0.102 OA 
HETATM    4  C   UNL     1     -11.270   6.128  70.142  1.00  0.00    -0.382 C  
HETATM    5  H1  UNL     1      -9.570   9.846  68.063  1.00  0.00     0.000 HD 
HETATM    6  C   UNL     1     -11.451   7.576  69.686  1.00  0.00     0.169 C  
HETATM    7  C   UNL     1     -10.172   8.131  69.059  1.00  0.00    -0.220 C  
HETATM    8  H   UNL     1     -10.428   8.366  66.517  1.00  0.00     0.000 HD 
HETATM    9  H2  UNL     1     -10.821  10.117  69.168  1.00  0.00     0.000 HD 
HETATM   10  N   UNL     1     -10.424   9.475  68.482  1.00  0.00    -0.211 NA 
HETATM   11  C   UNL     1      -9.666   7.201  67.944  1.00  0.00    -0.138 C  
HETATM   12  O   UNL     1     -10.451   7.449  66.766  1.00  0.00    -0.296 OA 
ENDROOT
BRANCH   4  13
HETATM   13  O   UNL     1     -10.379   6.064  71.253  1.00  0.00    -0.202 OA 
BRANCH  13  14
HETATM   14  C   UNL     1      -9.899   7.304  71.817  1.00  0.00    -0.160 C  
HETATM   15  C   UNL     1      -8.691   6.917  72.691  1.00  0.00    -0.132 C  
HETATM   16  C   UNL     1      -7.527   6.406  71.816  1.00  0.00    -0.093 C  
HETATM   17  C   UNL     1      -6.991   7.585  71.011  1.00  0.00    -0.054 C  
HETATM   18  O   UNL     1      -7.926   5.369  70.908  1.00  0.00    -0.099 OA 
HETATM   19  H   UNL     1      -6.051  10.425  68.876  1.00  0.00     0.000 HD 
HETATM   20  O   UNL     1      -6.325   9.696  69.420  1.00  0.00    -0.040 OA 
HETATM   21  C   UNL     1      -7.676   9.573  69.649  1.00  0.00    -0.112 A  
HETATM   22  C   UNL     1      -8.082   8.495  70.454  1.00  0.00    -0.108 A  
HETATM   23  H   UNL     1      -7.209   5.054  70.369  1.00  0.00     0.000 HD 
HETATM   24  C   UNL     1      -9.455   8.358  70.802  1.00  0.00    -0.199 A  
HETATM   25  C   UNL     1     -10.374   9.299  70.288  1.00  0.00    -0.229 A  
HETATM   26  O   UNL     1     -11.694   9.253  70.646  1.00  0.00    -0.300 OA 
HETATM   27  C   UNL     1      -9.956  10.362  69.452  1.00  0.00    -0.240 A  
HETATM   28  C   UNL     1     -10.925  11.358  68.905  1.00  0.00    -0.226 C  
HETATM   29  H   UNL     1     -12.312   9.886  70.300  1.00  0.00     0.000 HD 
HETATM   30  C   UNL     1     -10.444  12.428  68.014  1.00  0.00    -0.227 A  
HETATM   31  O   UNL     1     -12.124  11.324  69.152  1.00  0.00    -0.336 OA 
HETATM   32  C   UNL     1     -11.358  13.320  67.440  1.00  0.00    -0.337 A  
HETATM   33  C   UNL     1     -10.924  14.322  66.575  1.00  0.00    -0.316 A  
HETATM   34  C   UNL     1      -9.565  14.445  66.285  1.00  0.00    -0.321 A  
HETATM   35  C   UNL     1      -8.652  13.571  66.853  1.00  0.00    -0.114 A  
HETATM   36  C   UNL     1      -9.099  12.556  67.726  1.00  0.00    -0.191 A  
HETATM   37  C   UNL     1      -8.126  11.631  68.323  1.00  0.00    -0.150 C  
HETATM   38  C   UNL     1      -8.600  10.499  69.146  1.00  0.00    -0.157 A  
HETATM   39  O   UNL     1      -6.919  11.795  68.148  1.00  0.00    -0.068 OA 
BRANCH  16  40
HETATM   40  C   UNL     1      -6.417   5.775  72.675  1.00  0.00    -0.066 C  
HETATM   41  O   UNL     1      -5.263   5.637  72.263  1.00  0.00    -0.016 OA 
HETATM   42  C   UNL     1      -6.799   5.304  74.062  1.00  0.00    -0.077 C  
ENDBRANCH  16  40
ENDBRANCH  13  14
ENDBRANCH   4  13
TORSDOF 3
ENDMDL
MODEL      138
REMARK 921   NORMALIZED FREE ENERGY PREDICTED BY IDOCK:   27.15 KCAL/MOL
REMARK 922        TOTAL FREE ENERGY PREDICTED BY IDOCK:   31.02 KCAL/MOL
REMARK 923 INTER-LIGAND FREE ENERGY PREDICTED BY IDOCK:   -4.06 KCAL/MOL
REMARK 924 INTRA-LIGAND FREE ENERGY PREDICTED BY IDOCK:   35.08 KCAL/MOL
REMARK 927      BINDING AFFINITY PREDICTED BY RF-SCORE:    0.00 PKD
ROOT
HETATM    1  C   UNL     1      -6.677   8.664  67.759  1.00  0.00    -0.066 C  
HETATM    2  C   UNL     1      -6.837  10.103  68.255  1.00  0.00    -0.062 C  
HETATM    3  O   UNL     1      -6.160  10.948  67.305  1.00  0.00    -0.056 OA 
HETATM    4  C   UNL     1      -6.033  12.312  67.686  1.00  0.00    -0.119 C  
HETATM    5  H1  UNL     1      -5.841  11.200  72.131  1.00  0.00     0.000 HD 
HETATM    6  C   UNL     1      -5.344  12.444  69.045  1.00  0.00    -0.062 C  
HETATM    7  C   UNL     1      -6.106  11.692  70.136  1.00  0.00    -0.155 C  
HETATM    8  H   UNL     1      -4.841   9.574  70.839  1.00  0.00     0.000 HD 
HETATM    9  H2  UNL     1      -5.089  12.650  71.692  1.00  0.00     0.000 HD 
HETATM   10  N   UNL     1      -5.333  11.702  71.403  1.00  0.00    -0.347 NA 
HETATM   11  C   UNL     1      -6.352  10.233  69.718  1.00  0.00    -0.071 C  
HETATM   12  O   UNL     1      -5.139   9.495  69.940  1.00  0.00    -0.033 OA 
ENDROOT
BRANCH   4  13
HETATM   13  O   UNL     1      -7.271  13.020  67.684  1.00  0.00    -0.123 OA 
BRANCH  13  14
HETATM   14  C   UNL     1      -8.233  12.716  68.716  1.00  0.00     0.119 C  
HETATM   15  C   UNL     1      -9.399  13.698  68.491  1.00  0.00    -0.128 C  
HETATM   16  C   UNL     1     -10.128  13.383  67.168  1.00  0.00    -0.240 C  
HETATM   17  C   UNL     1     -10.846  12.047  67.332  1.00  0.00    -0.285 C  
HETATM   18  O   UNL     1      -9.237  13.296  66.048  1.00  0.00    -0.471 OA 
HETATM   19  H   UNL     1     -12.209   8.660  67.746  1.00  0.00     0.000 HD 
HETATM   20  O   UNL     1     -11.827   9.525  67.651  1.00  0.00     1.090 OA 
HETATM   21  C   UNL     1     -10.587   9.716  68.213  1.00  0.00    -0.225 A  
HETATM   22  C   UNL     1     -10.023  10.995  68.072  1.00  0.00    -0.188 A  
HETATM   23  H   UNL     1      -9.686  13.102  65.233  1.00  0.00     0.000 HD 
HETATM   24  C   UNL     1      -8.782  11.289  68.703  1.00  0.00    -0.136 A  
HETATM   25  C   UNL     1      -8.137  10.260  69.424  1.00  0.00    -0.163 A  
HETATM   26  O   UNL     1      -6.976  10.507  70.106  1.00  0.00    -0.157 OA 
HETATM   27  C   UNL     1      -8.700   8.966  69.532  1.00  0.00    -0.142 A  
HETATM   28  C   UNL     1      -8.021   7.875  70.292  1.00  0.00    -0.102 C  
HETATM   29  H   UNL     1      -6.543   9.815  70.591  1.00  0.00     0.000 HD 
HETATM   30  C   UNL     1      -8.634   6.537  70.348  1.00  0.00    -0.146 A  
HETATM   31  O   UNL     1      -6.954   8.033  70.871  1.00  0.00    -0.044 OA 
HETATM   32  C   UNL     1      -7.966   5.491  70.997  1.00  0.00    -0.106 A  
HETATM   33  C   UNL     1      -8.518   4.213  71.039  1.00  0.00    -0.104 A  
HETATM   34  C   UNL     1      -9.754   3.974  70.437  1.00  0.00    -0.263 A  
HETATM   35  C   UNL     1     -10.426   5.003  69.798  1.00  0.00    -0.182 A  
HETATM   36  C   UNL     1      -9.859   6.295  69.757  1.00  0.00    -0.195 A  
HETATM   37  C   UNL     1     -10.575   7.381  69.076  1.00  0.00    -0.192 C  
HETATM   38  C   UNL     1      -9.935   8.705  68.932  1.00  0.00    -0.197 A  
HETATM   39  O   UNL     1     -11.707   7.200  68.629  1.00  0.00     0.505 OA 
BRANCH  16  40
HETATM   40  C   UNL     1     -11.121  14.500  66.798  1.00  0.00    -0.325 C  
HETATM   41  O   UNL     1     -12.342  14.350  66.879  1.00  0.00    -0.371 OA 
HETATM   42  C   UNL     1     -10.539  15.808  66.305  1.00  0.00    -0.313 C  
ENDBRANCH  16  40
ENDBRANCH  13  14
ENDBRANCH   4  13
TORSDOF 3
ENDMDL
MODEL      139
REMARK 921   NORMALIZED FREE ENERGY PREDICTED BY IDOCK:   28.90 KCAL/MOL
REMARK 922        TOTAL FREE ENERGY PREDICTED BY IDOCK:   33.08 KCAL/MOL
REMARK 923 INTER-LIGAND FREE ENERGY PREDICTED BY IDOCK:   12.57 KCAL/MOL
REMARK 924 INTRA-LIGAND FREE ENERGY PREDICTED BY IDOCK:   20.51 KCAL/MOL
REMARK 927      BINDING AFFINITY PREDICTED BY RF-SCORE:    0.00 PKD
ROOT
HETATM    1  C   UNL     1      -7.768  11.107  72.090  1.00  0.00     9.890 C  
HETATM    2  C   UNL     1      -7.484  11.124  70.586  1.00  0.00     2.324 C  
HETATM    3  O   UNL     1      -6.192  10.516  70.400  1.00  0.00    -0.110 OA 
HETATM    4  C   UNL     1      -5.661  10.605  69.084  1.00  0.00    -0.040 C  
HETATM    5  H1  UNL     1      -7.780  14.604  68.346  1.00  0.00     0.000 HD 
HETATM    6  C   UNL     1      -5.598  12.057  68.611  1.00  0.00    -0.052 C  
HETATM    7  C   UNL     1      -6.977  12.717  68.636  1.00  0.00    -0.091 C  
HETATM    8  H   UNL     1      -7.142  14.413  70.553  1.00  0.00     0.000 HD 
HETATM    9  H2  UNL     1      -6.375  14.328  67.447  1.00  0.00     0.000 HD 
HETATM   10  N   UNL     1      -6.859  14.164  68.329  1.00  0.00    -0.094 NA 
HETATM   11  C   UNL     1      -7.629  12.555  70.019  1.00  0.00     1.906 C  
HETATM   12  O   UNL     1      -7.053  13.534  70.901  1.00  0.00     1.179 OA 
ENDROOT
BRANCH   4  13
HETATM   13  O   UNL     1      -6.359   9.802  68.135  1.00  0.00    -0.055 OA 
BRANCH  13  14
HETATM   14  C   UNL     1      -6.487  10.296  66.784  1.00  0.00    -0.073 C  
HETATM   15  C   UNL     1      -6.830   9.064  65.927  1.00  0.00    -0.080 C  
HETATM   16  C   UNL     1      -8.231   8.525  66.283  1.00  0.00    -0.109 C  
HETATM   17  C   UNL     1      -9.261   9.550  65.819  1.00  0.00    -0.267 C  
HETATM   18  O   UNL     1      -8.401   8.302  67.691  1.00  0.00    -0.124 OA 
HETATM   19  H   UNL     1     -11.595  12.263  64.985  1.00  0.00     0.000 HD 
HETATM   20  O   UNL     1     -10.973  11.583  65.216  1.00  0.00    -0.284 OA 
HETATM   21  C   UNL     1      -9.777  12.000  65.753  1.00  0.00    -0.235 A  
HETATM   22  C   UNL     1      -8.857  10.995  66.095  1.00  0.00    -0.197 A  
HETATM   23  H   UNL     1      -9.264   7.970  67.910  1.00  0.00     0.000 HD 
HETATM   24  C   UNL     1      -7.567  11.358  66.574  1.00  0.00    -0.080 A  
HETATM   25  C   UNL     1      -7.271  12.731  66.726  1.00  0.00     0.510 A  
HETATM   26  O   UNL     1      -6.024  13.137  67.118  1.00  0.00    -0.433 OA 
HETATM   27  C   UNL     1      -8.218  13.733  66.407  1.00  0.00     0.819 A  
HETATM   28  C   UNL     1      -7.909  15.185  66.568  1.00  0.00     0.429 C  
HETATM   29  H   UNL     1      -5.824  14.059  67.220  1.00  0.00     0.000 HD 
HETATM   30  C   UNL     1      -8.941  16.187  66.253  1.00  0.00    -0.379 A  
HETATM   31  O   UNL     1      -6.827  15.594  66.969  1.00  0.00    -0.246 OA 
HETATM   32  C   UNL     1      -8.682  17.546  66.471  1.00  0.00    -0.290 A  
HETATM   33  C   UNL     1      -9.654  18.507  66.202  1.00  0.00    -0.203 A  
HETATM   34  C   UNL     1     -10.896  18.113  65.701  1.00  0.00     0.068 A  
HETATM   35  C   UNL     1     -11.160  16.771  65.475  1.00  0.00     0.099 A  
HETATM   36  C   UNL     1     -10.171  15.804  65.753  1.00  0.00    -0.394 A  
HETATM   37  C   UNL     1     -10.458  14.383  65.514  1.00  0.00    -0.350 C  
HETATM   38  C   UNL     1      -9.469  13.359  65.909  1.00  0.00    -0.044 A  
HETATM   39  O   UNL     1     -11.512  14.039  64.982  1.00  0.00    -0.320 OA 
BRANCH  16  40
HETATM   40  C   UNL     1      -8.486   7.154  65.632  1.00  0.00    -0.134 C  
HETATM   41  O   UNL     1      -8.540   7.005  64.409  1.00  0.00     0.154 OA 
HETATM   42  C   UNL     1      -8.687   5.974  66.560  1.00  0.00    -0.128 C  
ENDBRANCH  16  40
ENDBRANCH  13  14
ENDBRANCH   4  13
TORSDOF 3
ENDMDL
MODEL      140
REMARK 921   NORMALIZED FREE ENERGY PREDICTED BY IDOCK:   30.74 KCAL/MOL
REMARK 922        TOTAL FREE ENERGY PREDICTED BY IDOCK:   35.25 KCAL/MOL
REMARK 923 INTER-LIGAND FREE ENERGY PREDICTED BY IDOCK:    2.51 KCAL/MOL
REMARK 924 INTRA-LIGAND FREE ENERGY PREDICTED BY IDOCK:   32.74 KCAL/MOL
REMARK 927      BINDING AFFINITY PREDICTED BY RF-SCORE:    0.00 PKD
ROOT
HETATM    1  C   UNL     1      -9.995  10.249  63.274  1.00  0.00     0.033 C  
HETATM    2  C   UNL     1      -8.586  10.343  63.864  1.00  0.00    -0.176 C  
HETATM    3  O   UNL     1      -7.943  11.463  63.226  1.00  0.00     0.490 OA 
HETATM    4  C   UNL     1      -6.555  11.606  63.503  1.00  0.00     2.759 C  
HETATM    5  H1  UNL     1      -6.034   7.072  63.960  1.00  0.00     0.000 HD 
HETATM    6  C   UNL     1      -5.788  10.329  63.154  1.00  0.00    -0.141 C  
HETATM    7  C   UNL     1      -6.327   9.123  63.923  1.00  0.00    -0.088 C  
HETATM    8  H   UNL     1      -7.629   7.555  62.365  1.00  0.00     0.000 HD 
HETATM    9  H2  UNL     1      -4.658   7.937  63.495  1.00  0.00     0.000 HD 
HETATM   10  N   UNL     1      -5.675   7.878  63.446  1.00  0.00    -0.054 NA 
HETATM   11  C   UNL     1      -7.847   8.991  63.730  1.00  0.00    -0.137 C  
HETATM   12  O   UNL     1      -8.083   8.385  62.448  1.00  0.00    -0.156 OA 
ENDROOT
BRANCH   4  13
HETATM   13  O   UNL     1      -6.281  12.000  64.845  1.00  0.00     2.560 OA 
BRANCH  13  14
HETATM   14  C   UNL     1      -5.542  11.090  65.687  1.00  0.00    -0.062 C  
HETATM   15  C   UNL     1      -5.129  11.915  66.921  1.00  0.00    -0.073 C  
HETATM   16  C   UNL     1      -6.367  12.306  67.754  1.00  0.00    -0.101 C  
HETATM   17  C   UNL     1      -6.934  11.035  68.379  1.00  0.00    -0.071 C  
HETATM   18  O   UNL     1      -7.392  12.933  66.969  1.00  0.00    -0.362 OA 
HETATM   19  H   UNL     1      -8.393   7.859  69.512  1.00  0.00     0.000 HD 
HETATM   20  O   UNL     1      -8.014   8.668  69.189  1.00  0.00    -0.106 OA 
HETATM   21  C   UNL     1      -7.502   8.640  67.913  1.00  0.00    -0.097 A  
HETATM   22  C   UNL     1      -6.940   9.836  67.435  1.00  0.00    -0.084 A  
HETATM   23  H   UNL     1      -8.155  13.174  67.483  1.00  0.00     0.000 HD 
HETATM   24  C   UNL     1      -6.314   9.857  66.157  1.00  0.00    -0.077 A  
HETATM   25  C   UNL     1      -6.316   8.669  65.392  1.00  0.00    -0.055 A  
HETATM   26  O   UNL     1      -5.669   8.615  64.187  1.00  0.00    -0.063 OA 
HETATM   27  C   UNL     1      -6.912   7.479  65.872  1.00  0.00    -0.061 A  
HETATM   28  C   UNL     1      -6.917   6.223  65.065  1.00  0.00    -0.052 C  
HETATM   29  H   UNL     1      -5.670   7.817  63.672  1.00  0.00     0.000 HD 
HETATM   30  C   UNL     1      -7.579   5.019  65.597  1.00  0.00    -0.086 A  
HETATM   31  O   UNL     1      -6.400   6.141  63.958  1.00  0.00    -0.029 OA 
HETATM   32  C   UNL     1      -7.650   3.860  64.815  1.00  0.00    -0.077 A  
HETATM   33  C   UNL     1      -8.294   2.720  65.291  1.00  0.00    -0.094 A  
HETATM   34  C   UNL     1      -8.866   2.730  66.564  1.00  0.00    -0.153 A  
HETATM   35  C   UNL     1      -8.796   3.870  67.348  1.00  0.00    -0.137 A  
HETATM   36  C   UNL     1      -8.144   5.021  66.858  1.00  0.00    -0.107 A  
HETATM   37  C   UNL     1      -8.075   6.228  67.693  1.00  0.00    -0.117 C  
HETATM   38  C   UNL     1      -7.495   7.470  67.142  1.00  0.00    -0.099 A  
HETATM   39  O   UNL     1      -8.491   6.211  68.851  1.00  0.00    -0.117 OA 
BRANCH  16  40
HETATM   40  C   UNL     1      -6.009  13.340  68.836  1.00  0.00    -0.079 C  
HETATM   41  O   UNL     1      -5.799  13.022  70.009  1.00  0.00    -0.120 OA 
HETATM   42  C   UNL     1      -5.938  14.792  68.409  1.00  0.00    -0.102 C  
ENDBRANCH  16  40
ENDBRANCH  13  14
ENDBRANCH   4  13
TORSDOF 3
ENDMDL
MODEL      141
REMARK 921   NORMALIZED FREE ENERGY PREDICTED BY IDOCK:   35.57 KCAL/MOL
REMARK 922        TOTAL FREE ENERGY PREDICTED BY IDOCK:   40.92 KCAL/MOL
REMARK 923 INTER-LIGAND FREE ENERGY PREDICTED BY IDOCK:   -2.73 KCAL/MOL
REMARK 924 INTRA-LIGAND FREE ENERGY PREDICTED BY IDOCK:   43.66 KCAL/MOL
REMARK 927      BINDING AFFINITY PREDICTED BY RF-SCORE:    0.00 PKD
ROOT
HETATM    1  C   UNL     1      -6.940   8.041  66.739  1.00  0.00    -0.073 C  
HETATM    2  C   UNL     1      -7.793   9.154  67.351  1.00  0.00    -0.099 C  
HETATM    3  O   UNL     1      -7.243  10.402  66.888  1.00  0.00    -0.092 OA 
HETATM    4  C   UNL     1      -7.782  11.568  67.496  1.00  0.00    -0.132 C  
HETATM    5  H1  UNL     1      -8.554   9.334  71.426  1.00  0.00     0.000 HD 
HETATM    6  C   UNL     1      -7.656  11.506  69.019  1.00  0.00    -0.058 C  
HETATM    7  C   UNL     1      -8.360  10.275  69.591  1.00  0.00    -0.123 C  
HETATM    8  H   UNL     1      -6.653   8.537  70.393  1.00  0.00     0.000 HD 
HETATM    9  H2  UNL     1      -8.331  11.006  71.551  1.00  0.00     0.000 HD 
HETATM   10  N   UNL     1      -8.084  10.155  71.045  1.00  0.00     0.606 NA 
HETATM   11  C   UNL     1      -7.875   8.997  68.888  1.00  0.00    -0.095 C  
HETATM   12  O   UNL     1      -6.603   8.634  69.450  1.00  0.00    -0.044 OA 
ENDROOT
BRANCH   4  13
HETATM   13  O   UNL     1      -9.132  11.834  67.120  1.00  0.00    -0.166 OA 
BRANCH  13  14
HETATM   14  C   UNL     1      -9.990  10.712  66.817  1.00  0.00    -0.209 C  
HETATM   15  C   UNL     1     -11.144  11.294  65.978  1.00  0.00    -0.181 C  
HETATM   16  C   UNL     1     -10.630  11.778  64.607  1.00  0.00    -0.308 C  
HETATM   17  C   UNL     1     -10.218  10.551  63.799  1.00  0.00    -0.155 C  
HETATM   18  O   UNL     1      -9.505  12.662  64.713  1.00  0.00    -0.448 OA 
HETATM   19  H   UNL     1      -8.927   7.547  62.122  1.00  0.00     0.000 HD 
HETATM   20  O   UNL     1      -9.244   8.315  62.582  1.00  0.00     0.548 OA 
HETATM   21  C   UNL     1      -9.003   8.364  63.935  1.00  0.00     0.666 A  
HETATM   22  C   UNL     1      -9.472   9.500  64.617  1.00  0.00    -0.133 A  
HETATM   23  H   UNL     1      -9.189  12.960  63.867  1.00  0.00     0.000 HD 
HETATM   24  C   UNL     1      -9.334   9.577  66.031  1.00  0.00    -0.273 A  
HETATM   25  C   UNL     1      -8.688   8.514  66.700  1.00  0.00    -0.125 A  
HETATM   26  O   UNL     1      -8.589   8.505  68.065  1.00  0.00    -0.132 OA 
HETATM   27  C   UNL     1      -8.192   7.389  65.998  1.00  0.00    -0.130 A  
HETATM   28  C   UNL     1      -7.507   6.264  66.701  1.00  0.00    -0.090 C  
HETATM   29  H   UNL     1      -8.155   7.790  68.514  1.00  0.00     0.000 HD 
HETATM   30  C   UNL     1      -6.981   5.131  65.920  1.00  0.00    -0.066 A  
HETATM   31  O   UNL     1      -7.345   6.238  67.914  1.00  0.00    -0.084 OA 
HETATM   32  C   UNL     1      -6.274   4.109  66.566  1.00  0.00    -0.032 A  
HETATM   33  C   UNL     1      -5.747   3.042  65.840  1.00  0.00    -0.018 A  
HETATM   34  C   UNL     1      -5.934   2.986  64.459  1.00  0.00    -0.018 A  
HETATM   35  C   UNL     1      -6.637   3.989  63.811  1.00  0.00    -0.042 A  
HETATM   36  C   UNL     1      -7.165   5.068  64.552  1.00  0.00    -0.058 A  
HETATM   37  C   UNL     1      -7.908   6.130  63.860  1.00  0.00    -0.113 C  
HETATM   38  C   UNL     1      -8.364   7.316  64.613  1.00  0.00     0.048 A  
HETATM   39  O   UNL     1      -8.159   6.036  62.659  1.00  0.00    -0.103 OA 
BRANCH  16  40
HETATM   40  C   UNL     1     -11.704  12.591  63.863  1.00  0.00    -0.452 C  
HETATM   41  O   UNL     1     -11.664  13.822  63.787  1.00  0.00    -0.325 OA 
HETATM   42  C   UNL     1     -12.841  11.819  63.228  1.00  0.00    -0.224 C  
ENDBRANCH  16  40
ENDBRANCH  13  14
ENDBRANCH   4  13
TORSDOF 3
ENDMDL
MODEL      142
REMARK 921   NORMALIZED FREE ENERGY PREDICTED BY IDOCK:   39.71 KCAL/MOL
REMARK 922        TOTAL FREE ENERGY PREDICTED BY IDOCK:   45.79 KCAL/MOL
REMARK 923 INTER-LIGAND FREE ENERGY PREDICTED BY IDOCK:   12.07 KCAL/MOL
REMARK 924 INTRA-LIGAND FREE ENERGY PREDICTED BY IDOCK:   33.72 KCAL/MOL
REMARK 927      BINDING AFFINITY PREDICTED BY RF-SCORE:    0.00 PKD
ROOT
HETATM    1  C   UNL     1      -9.263  21.021  64.028  1.00  0.00     3.785 C  
HETATM    2  C   UNL     1      -9.091  20.012  65.166  1.00  0.00     1.308 C  
HETATM    3  O   UNL     1      -8.095  19.065  64.736  1.00  0.00     1.574 OA 
HETATM    4  C   UNL     1      -7.925  17.934  65.580  1.00  0.00     0.362 C  
HETATM    5  H1  UNL     1     -12.333  18.038  66.844  1.00  0.00     0.000 HD 
HETATM    6  C   UNL     1      -9.249  17.199  65.792  1.00  0.00     0.108 C  
HETATM    7  C   UNL     1     -10.311  18.117  66.397  1.00  0.00    -0.394 C  
HETATM    8  H   UNL     1     -12.094  18.724  64.656  1.00  0.00     0.000 HD 
HETATM    9  H2  UNL     1     -11.568  16.532  66.929  1.00  0.00     0.000 HD 
HETATM   10  N   UNL     1     -11.624  17.425  66.440  1.00  0.00     1.446 NA 
HETATM   11  C   UNL     1     -10.455  19.402  65.565  1.00  0.00    -0.104 C  
HETATM   12  O   UNL     1     -11.256  19.098  64.411  1.00  0.00     0.910 OA 
ENDROOT
BRANCH   4  13
HETATM   13  O   UNL     1      -7.324  18.247  66.835  1.00  0.00    -0.198 OA 
BRANCH  13  14
HETATM   14  C   UNL     1      -7.527  17.336  67.936  1.00  0.00    -0.182 C  
HETATM   15  C   UNL     1      -8.567  18.017  68.846  1.00  0.00    -0.125 C  
HETATM   16  C   UNL     1      -9.938  18.095  68.143  1.00  0.00    -0.359 C  
HETATM   17  C   UNL     1     -10.484  16.677  68.017  1.00  0.00    -0.320 C  
HETATM   18  O   UNL     1      -9.860  18.679  66.834  1.00  0.00    -0.304 OA 
HETATM   19  H   UNL     1     -11.499  13.190  67.458  1.00  0.00     0.000 HD 
HETATM   20  O   UNL     1     -11.207  14.084  67.590  1.00  0.00    -0.277 OA 
HETATM   21  C   UNL     1      -9.863  14.323  67.426  1.00  0.00    -0.235 A  
HETATM   22  C   UNL     1      -9.431  15.646  67.622  1.00  0.00    -0.211 A  
HETATM   23  H   UNL     1     -10.705  18.728  66.401  1.00  0.00     0.000 HD 
HETATM   24  C   UNL     1      -8.042  15.948  67.554  1.00  0.00    -0.171 A  
HETATM   25  C   UNL     1      -7.143  14.902  67.249  1.00  0.00    -0.068 A  
HETATM   26  O   UNL     1      -5.792  15.123  67.238  1.00  0.00    -0.326 OA 
HETATM   27  C   UNL     1      -7.594  13.580  67.023  1.00  0.00     0.204 A  
HETATM   28  C   UNL     1      -6.647  12.471  66.699  1.00  0.00     0.777 C  
HETATM   29  H   UNL     1      -5.188  14.419  67.033  1.00  0.00     0.000 HD 
HETATM   30  C   UNL     1      -7.171  11.119  66.441  1.00  0.00    -0.094 A  
HETATM   31  O   UNL     1      -5.436  12.633  66.622  1.00  0.00    -0.167 OA 
HETATM   32  C   UNL     1      -6.295  10.092  66.066  1.00  0.00    -0.094 A  
HETATM   33  C   UNL     1      -6.776   8.813  65.793  1.00  0.00    -0.068 A  
HETATM   34  C   UNL     1      -8.141   8.549  65.905  1.00  0.00    -0.116 A  
HETATM   35  C   UNL     1      -9.015   9.556  66.282  1.00  0.00    -0.188 A  
HETATM   36  C   UNL     1      -8.522  10.850  66.553  1.00  0.00    -0.159 A  
HETATM   37  C   UNL     1      -9.454  11.914  66.950  1.00  0.00    -0.199 C  
HETATM   38  C   UNL     1      -8.959  13.295  67.125  1.00  0.00    -0.229 A  
HETATM   39  O   UNL     1     -10.642  11.663  67.144  1.00  0.00    -0.215 OA 
BRANCH  16  40
HETATM   40  C   UNL     1     -10.914  18.995  68.920  1.00  0.00     1.227 C  
HETATM   41  O   UNL     1     -11.678  18.551  69.780  1.00  0.00     4.368 OA 
HETATM   42  C   UNL     1     -10.919  20.470  68.576  1.00  0.00     0.802 C  
ENDBRANCH  16  40
ENDBRANCH  13  14
ENDBRANCH   4  13
TORSDOF 3
ENDMDL
MODEL      143
REMARK 921   NORMALIZED FREE ENERGY PREDICTED BY IDOCK:   39.75 KCAL/MOL
REMARK 922        TOTAL FREE ENERGY PREDICTED BY IDOCK:   45.83 KCAL/MOL
REMARK 923 INTER-LIGAND FREE ENERGY PREDICTED BY IDOCK:   16.07 KCAL/MOL
REMARK 924 INTRA-LIGAND FREE ENERGY PREDICTED BY IDOCK:   29.76 KCAL/MOL
REMARK 927      BINDING AFFINITY PREDICTED BY RF-SCORE:    0.00 PKD
ROOT
HETATM    1  C   UNL     1      -9.206  13.240  70.538  1.00  0.00     5.685 C  
HETATM    2  C   UNL     1      -9.850  14.423  69.811  1.00  0.00     0.512 C  
HETATM    3  O   UNL     1      -9.927  15.502  70.762  1.00  0.00     0.250 OA 
HETATM    4  C   UNL     1     -10.668  16.638  70.334  1.00  0.00     0.126 C  
HETATM    5  H1  UNL     1     -13.439  14.039  67.764  1.00  0.00     0.000 HD 
HETATM    6  C   UNL     1     -12.085  16.246  69.913  1.00  0.00     0.225 C  
HETATM    7  C   UNL     1     -12.071  15.209  68.789  1.00  0.00    -0.165 C  
HETATM    8  H   UNL     1     -12.785  12.906  69.663  1.00  0.00     0.000 HD 
HETATM    9  H2  UNL     1     -14.087  15.501  68.314  1.00  0.00     0.000 HD 
HETATM   10  N   UNL     1     -13.449  14.731  68.515  1.00  0.00     3.328 NA 
HETATM   11  C   UNL     1     -11.195  14.005  69.174  1.00  0.00    -0.269 C  
HETATM   12  O   UNL     1     -11.958  13.162  70.054  1.00  0.00    -0.328 OA 
ENDROOT
BRANCH   4  13
HETATM   13  O   UNL     1     -10.027  17.377  69.298  1.00  0.00    -0.227 OA 
BRANCH  13  14
HETATM   14  C   UNL     1     -10.268  16.984  67.929  1.00  0.00    -0.317 C  
HETATM   15  C   UNL     1      -9.697  18.127  67.068  1.00  0.00    -0.307 C  
HETATM   16  C   UNL     1      -8.161  18.190  67.196  1.00  0.00    -0.221 C  
HETATM   17  C   UNL     1      -7.581  16.948  66.526  1.00  0.00    -0.328 C  
HETATM   18  O   UNL     1      -7.716  18.231  68.559  1.00  0.00    -0.289 OA 
HETATM   19  H   UNL     1      -6.357  13.744  65.208  1.00  0.00     0.000 HD 
HETATM   20  O   UNL     1      -6.695  14.556  65.567  1.00  0.00     7.260 OA 
HETATM   21  C   UNL     1      -7.864  14.471  66.287  1.00  0.00     1.621 A  
HETATM   22  C   UNL     1      -8.365  15.671  66.817  1.00  0.00    -0.313 A  
HETATM   23  H   UNL     1      -6.769  18.270  68.637  1.00  0.00     0.000 HD 
HETATM   24  C   UNL     1      -9.614  15.671  67.499  1.00  0.00    -0.224 A  
HETATM   25  C   UNL     1     -10.292  14.441  67.653  1.00  0.00    -0.237 A  
HETATM   26  O   UNL     1     -11.528  14.394  68.239  1.00  0.00    -0.274 OA 
HETATM   27  C   UNL     1      -9.762  13.233  67.141  1.00  0.00    -0.236 A  
HETATM   28  C   UNL     1     -10.475  11.931  67.303  1.00  0.00    -0.222 C  
HETATM   29  H   UNL     1     -11.984  13.568  68.343  1.00  0.00     0.000 HD 
HETATM   30  C   UNL     1      -9.864  10.697  66.779  1.00  0.00    -0.240 A  
HETATM   31  O   UNL     1     -11.555  11.831  67.870  1.00  0.00    -0.331 OA 
HETATM   32  C   UNL     1     -10.493   9.464  66.992  1.00  0.00    -0.302 A  
HETATM   33  C   UNL     1      -9.918   8.284  66.526  1.00  0.00    -0.320 A  
HETATM   34  C   UNL     1      -8.708   8.331  65.832  1.00  0.00    -0.187 A  
HETATM   35  C   UNL     1      -8.081   9.547  65.611  1.00  0.00    -0.112 A  
HETATM   36  C   UNL     1      -8.668  10.738  66.088  1.00  0.00    -0.186 A  
HETATM   37  C   UNL     1      -7.997  12.023  65.852  1.00  0.00     0.795 C  
HETATM   38  C   UNL     1      -8.549  13.258  66.447  1.00  0.00     0.313 A  
HETATM   39  O   UNL     1      -6.983  12.080  65.158  1.00  0.00     2.181 OA 
BRANCH  16  40
HETATM   40  C   UNL     1      -7.599  19.473  66.558  1.00  0.00    -0.266 C  
HETATM   41  O   UNL     1      -7.658  20.569  67.119  1.00  0.00    -0.309 OA 
HETATM   42  C   UNL     1      -6.974  19.346  65.184  1.00  0.00    -0.018 C  
ENDBRANCH  16  40
ENDBRANCH  13  14
ENDBRANCH   4  13
TORSDOF 3
ENDMDL
MODEL      144
REMARK 921   NORMALIZED FREE ENERGY PREDICTED BY IDOCK:   40.33 KCAL/MOL
REMARK 922        TOTAL FREE ENERGY PREDICTED BY IDOCK:   46.52 KCAL/MOL
REMARK 923 INTER-LIGAND FREE ENERGY PREDICTED BY IDOCK:   12.68 KCAL/MOL
REMARK 924 INTRA-LIGAND FREE ENERGY PREDICTED BY IDOCK:   33.84 KCAL/MOL
REMARK 927      BINDING AFFINITY PREDICTED BY RF-SCORE:    0.00 PKD
ROOT
HETATM    1  C   UNL     1     -10.147  10.722  69.498  1.00  0.00    -0.117 C  
HETATM    2  C   UNL     1     -10.245   9.204  69.328  1.00  0.00    -0.210 C  
HETATM    3  O   UNL     1     -10.140   8.631  70.646  1.00  0.00    -0.186 OA 
HETATM    4  C   UNL     1     -10.021   7.215  70.685  1.00  0.00    -0.190 C  
HETATM    5  H1  UNL     1      -7.827   7.144  66.659  1.00  0.00     0.000 HD 
HETATM    6  C   UNL     1      -8.839   6.736  69.841  1.00  0.00    -0.141 C  
HETATM    7  C   UNL     1      -8.971   7.183  68.385  1.00  0.00    -0.125 C  
HETATM    8  H   UNL     1      -7.293   9.047  67.846  1.00  0.00     0.000 HD 
HETATM    9  H2  UNL     1      -7.505   5.855  67.705  1.00  0.00     0.000 HD 
HETATM   10  N   UNL     1      -7.738   6.846  67.631  1.00  0.00    -0.109 NA 
HETATM   11  C   UNL     1      -9.202   8.701  68.303  1.00  0.00    -0.137 C  
HETATM   12  O   UNL     1      -7.934   9.355  68.476  1.00  0.00    -0.092 OA 
ENDROOT
BRANCH   4  13
HETATM   13  O   UNL     1     -11.213   6.533  70.304  1.00  0.00    -0.312 OA 
BRANCH  13  14
HETATM   14  C   UNL     1     -12.336   7.321  69.853  1.00  0.00     0.695 C  
HETATM   15  C   UNL     1     -13.299   7.388  71.053  1.00  0.00    -0.144 C  
HETATM   16  C   UNL     1     -12.680   8.208  72.204  1.00  0.00    -0.297 C  
HETATM   17  C   UNL     1     -12.606   9.664  71.756  1.00  0.00    -0.497 C  
HETATM   18  O   UNL     1     -11.362   7.765  72.558  1.00  0.00    -0.320 OA 
HETATM   19  H   UNL     1     -12.153  13.053  70.408  1.00  0.00     0.000 HD 
HETATM   20  O   UNL     1     -12.256  12.165  70.729  1.00  0.00    -0.377 OA 
HETATM   21  C   UNL     1     -12.007  11.153  69.832  1.00  0.00    -0.363 A  
HETATM   22  C   UNL     1     -12.160   9.839  70.307  1.00  0.00    -0.104 A  
HETATM   23  H   UNL     1     -10.981   8.271  73.267  1.00  0.00     0.000 HD 
HETATM   24  C   UNL     1     -12.003   8.746  69.410  1.00  0.00     1.316 A  
HETATM   25  C   UNL     1     -11.657   9.024  68.069  1.00  0.00     1.498 A  
HETATM   26  O   UNL     1     -11.561   8.015  67.149  1.00  0.00     0.613 OA 
HETATM   27  C   UNL     1     -11.476  10.350  67.610  1.00  0.00     0.020 A  
HETATM   28  C   UNL     1     -11.109  10.648  66.194  1.00  0.00     0.203 C  
HETATM   29  H   UNL     1     -11.329   8.202  66.247  1.00  0.00     0.000 HD 
HETATM   30  C   UNL     1     -10.900  12.045  65.774  1.00  0.00    -0.329 A  
HETATM   31  O   UNL     1     -10.956   9.775  65.349  1.00  0.00     0.873 OA 
HETATM   32  C   UNL     1     -10.485  12.325  64.466  1.00  0.00    -0.339 A  
HETATM   33  C   UNL     1     -10.259  13.638  64.059  1.00  0.00     0.637 A  
HETATM   34  C   UNL     1     -10.456  14.685  64.960  1.00  0.00    -0.447 A  
HETATM   35  C   UNL     1     -10.873  14.419  66.254  1.00  0.00    -0.313 A  
HETATM   36  C   UNL     1     -11.098  13.086  66.660  1.00  0.00    -0.318 A  
HETATM   37  C   UNL     1     -11.537  12.811  68.035  1.00  0.00    -0.341 C  
HETATM   38  C   UNL     1     -11.664  11.413  68.498  1.00  0.00    -0.386 A  
HETATM   39  O   UNL     1     -11.807  13.734  68.802  1.00  0.00    -0.325 OA 
BRANCH  16  40
HETATM   40  C   UNL     1     -13.504   8.071  73.496  1.00  0.00     2.647 C  
HETATM   41  O   UNL     1     -13.735   6.977  74.018  1.00  0.00     5.352 OA 
HETATM   42  C   UNL     1     -14.047   9.344  74.109  1.00  0.00     5.346 C  
ENDBRANCH  16  40
ENDBRANCH  13  14
ENDBRANCH   4  13
TORSDOF 3
ENDMDL
MODEL      145
REMARK 921   NORMALIZED FREE ENERGY PREDICTED BY IDOCK:   44.25 KCAL/MOL
REMARK 922        TOTAL FREE ENERGY PREDICTED BY IDOCK:   51.13 KCAL/MOL
REMARK 923 INTER-LIGAND FREE ENERGY PREDICTED BY IDOCK:    0.20 KCAL/MOL
REMARK 924 INTRA-LIGAND FREE ENERGY PREDICTED BY IDOCK:   50.92 KCAL/MOL
REMARK 927      BINDING AFFINITY PREDICTED BY RF-SCORE:    0.00 PKD
ROOT
HETATM    1  C   UNL     1      -6.956   8.029  66.741  1.00  0.00    -0.073 C  
HETATM    2  C   UNL     1      -7.878   9.095  67.340  1.00  0.00    -0.099 C  
HETATM    3  O   UNL     1      -7.454  10.361  66.800  1.00  0.00    -0.103 OA 
HETATM    4  C   UNL     1      -8.068  11.505  67.379  1.00  0.00    -0.146 C  
HETATM    5  H1  UNL     1      -8.495   9.400  71.432  1.00  0.00     0.000 HD 
HETATM    6  C   UNL     1      -7.879  11.525  68.897  1.00  0.00    -0.071 C  
HETATM    7  C   UNL     1      -8.452  10.268  69.551  1.00  0.00    -0.142 C  
HETATM    8  H   UNL     1      -6.573   8.719  70.355  1.00  0.00     0.000 HD 
HETATM    9  H2  UNL     1      -8.411  11.089  71.474  1.00  0.00     0.000 HD 
HETATM   10  N   UNL     1      -8.111  10.240  70.995  1.00  0.00     0.949 NA 
HETATM   11  C   UNL     1      -7.887   9.003  68.883  1.00  0.00    -0.095 C  
HETATM   12  O   UNL     1      -6.568   8.775  69.407  1.00  0.00    -0.044 OA 
ENDROOT
BRANCH   4  13
HETATM   13  O   UNL     1      -9.449  11.638  67.049  1.00  0.00    -0.178 OA 
BRANCH  13  14
HETATM   14  C   UNL     1     -10.237  10.437  66.908  1.00  0.00    -0.227 C  
HETATM   15  C   UNL     1     -10.634  10.378  65.421  1.00  0.00    -0.080 C  
HETATM   16  C   UNL     1      -9.393  10.141  64.535  1.00  0.00    -0.289 C  
HETATM   17  C   UNL     1      -8.889   8.726  64.800  1.00  0.00    -0.089 C  
HETATM   18  O   UNL     1      -8.332  11.068  64.802  1.00  0.00    -0.375 OA 
HETATM   19  H   UNL     1      -7.578   5.445  65.809  1.00  0.00     0.000 HD 
HETATM   20  O   UNL     1      -7.919   6.301  65.580  1.00  0.00    -0.102 OA 
HETATM   21  C   UNL     1      -8.413   7.063  66.613  1.00  0.00    -0.121 A  
HETATM   22  C   UNL     1      -8.917   8.330  66.274  1.00  0.00    -0.221 A  
HETATM   23  H   UNL     1      -7.568  10.922  64.256  1.00  0.00     0.000 HD 
HETATM   24  C   UNL     1      -9.523   9.136  67.278  1.00  0.00    -0.187 A  
HETATM   25  C   UNL     1      -9.559   8.643  68.602  1.00  0.00    -0.155 A  
HETATM   26  O   UNL     1     -10.189   9.346  69.592  1.00  0.00    -0.191 OA 
HETATM   27  C   UNL     1      -9.019   7.378  68.936  1.00  0.00    -0.130 A  
HETATM   28  C   UNL     1      -9.054   6.854  70.333  1.00  0.00    -0.156 C  
HETATM   29  H   UNL     1     -10.213   9.015  70.481  1.00  0.00     0.000 HD 
HETATM   30  C   UNL     1      -8.450   5.545  70.634  1.00  0.00    -0.121 A  
HETATM   31  O   UNL     1      -9.556   7.472  71.263  1.00  0.00    -0.157 OA 
HETATM   32  C   UNL     1      -8.415   5.081  71.956  1.00  0.00    -0.125 A  
HETATM   33  C   UNL     1      -7.825   3.857  72.263  1.00  0.00    -0.076 A  
HETATM   34  C   UNL     1      -7.272   3.080  71.244  1.00  0.00    -0.033 A  
HETATM   35  C   UNL     1      -7.307   3.527  69.933  1.00  0.00    -0.041 A  
HETATM   36  C   UNL     1      -7.904   4.769  69.630  1.00  0.00    -0.066 A  
HETATM   37  C   UNL     1      -7.936   5.239  68.238  1.00  0.00    -0.088 C  
HETATM   38  C   UNL     1      -8.456   6.587  67.930  1.00  0.00    -0.118 A  
HETATM   39  O   UNL     1      -7.538   4.516  67.325  1.00  0.00    -0.083 OA 
BRANCH  16  40
HETATM   40  C   UNL     1      -9.725  10.337  63.045  1.00  0.00    -0.162 C  
HETATM   41  O   UNL     1      -9.394  11.350  62.424  1.00  0.00    -0.240 OA 
HETATM   42  C   UNL     1     -10.498   9.232  62.356  1.00  0.00     3.838 C  
ENDBRANCH  16  40
ENDBRANCH  13  14
ENDBRANCH   4  13
TORSDOF 3
ENDMDL
MODEL      146
REMARK 921   NORMALIZED FREE ENERGY PREDICTED BY IDOCK:   48.04 KCAL/MOL
REMARK 922        TOTAL FREE ENERGY PREDICTED BY IDOCK:   55.58 KCAL/MOL
REMARK 923 INTER-LIGAND FREE ENERGY PREDICTED BY IDOCK:   55.18 KCAL/MOL
REMARK 924 INTRA-LIGAND FREE ENERGY PREDICTED BY IDOCK:    0.39 KCAL/MOL
REMARK 927      BINDING AFFINITY PREDICTED BY RF-SCORE:    0.00 PKD
ROOT
HETATM    1  C   UNL     1      -9.746   7.034  68.397  1.00  0.00    -0.139 C  
HETATM    2  C   UNL     1     -10.341   8.420  68.137  1.00  0.00    -0.204 C  
HETATM    3  O   UNL     1     -10.726   8.954  69.419  1.00  0.00    -0.228 OA 
HETATM    4  C   UNL     1     -11.473  10.162  69.376  1.00  0.00    -0.142 C  
HETATM    5  H1  UNL     1     -13.364   9.016  65.358  1.00  0.00     0.000 HD 
HETATM    6  C   UNL     1     -12.723  10.008  68.508  1.00  0.00     3.588 C  
HETATM    7  C   UNL     1     -12.367   9.592  67.080  1.00  0.00     7.110 C  
HETATM    8  H   UNL     1     -13.009   7.144  66.657  1.00  0.00     0.000 HD 
HETATM    9  H2  UNL     1     -14.259  10.073  66.328  1.00  0.00     0.000 HD 
HETATM   10  N   UNL     1     -13.601   9.294  66.311  1.00  0.00    19.934 NA 
HETATM   11  C   UNL     1     -11.473   8.341  67.087  1.00  0.00     1.848 C  
HETATM   12  O   UNL     1     -12.313   7.194  67.302  1.00  0.00     3.074 OA 
ENDROOT
BRANCH   4  13
HETATM   13  O   UNL     1     -10.708  11.288  68.951  1.00  0.00    -0.191 OA 
BRANCH  13  14
HETATM   14  C   UNL     1     -11.415  12.460  68.490  1.00  0.00    -0.306 C  
HETATM   15  C   UNL     1     -12.487  12.740  69.561  1.00  0.00     0.160 C  
HETATM   16  C   UNL     1     -11.831  13.174  70.888  1.00  0.00     0.256 C  
HETATM   17  C   UNL     1     -11.205  14.548  70.677  1.00  0.00    -0.047 C  
HETATM   18  O   UNL     1     -10.812  12.264  71.330  1.00  0.00     3.092 OA 
HETATM   19  H   UNL     1      -9.437  17.680  69.919  1.00  0.00     0.000 HD 
HETATM   20  O   UNL     1      -9.880  16.857  70.088  1.00  0.00     0.565 OA 
HETATM   21  C   UNL     1      -9.836  15.916  69.085  1.00  0.00    -0.247 A  
HETATM   22  C   UNL     1     -10.492  14.699  69.335  1.00  0.00    -0.175 A  
HETATM   23  H   UNL     1     -10.408  12.531  72.148  1.00  0.00     0.000 HD 
HETATM   24  C   UNL     1     -10.560  13.715  68.311  1.00  0.00    -0.261 A  
HETATM   25  C   UNL     1      -9.924  13.985  67.078  1.00  0.00    -0.257 A  
HETATM   26  O   UNL     1     -10.016  13.103  66.036  1.00  0.00    -0.278 OA 
HETATM   27  C   UNL     1      -9.239  15.202  66.850  1.00  0.00    -0.259 A  
HETATM   28  C   UNL     1      -8.564  15.492  65.550  1.00  0.00     1.464 C  
HETATM   29  H   UNL     1      -9.589  13.285  65.208  1.00  0.00     0.000 HD 
HETATM   30  C   UNL     1      -7.838  16.761  65.374  1.00  0.00     2.012 A  
HETATM   31  O   UNL     1      -8.572  14.709  64.608  1.00  0.00     3.934 OA 
HETATM   32  C   UNL     1      -7.142  17.006  64.183  1.00  0.00     9.843 A  
HETATM   33  C   UNL     1      -6.429  18.190  64.008  1.00  0.00     3.257 A  
HETATM   34  C   UNL     1      -6.415  19.146  65.025  1.00  0.00    -0.241 A  
HETATM   35  C   UNL     1      -7.105  18.915  66.204  1.00  0.00    -0.284 A  
HETATM   36  C   UNL     1      -7.823  17.713  66.375  1.00  0.00    -0.318 A  
HETATM   37  C   UNL     1      -8.551  17.474  67.629  1.00  0.00    -0.219 C  
HETATM   38  C   UNL     1      -9.209  16.170  67.858  1.00  0.00    -0.200 A  
HETATM   39  O   UNL     1      -8.623  18.352  68.487  1.00  0.00    -0.317 OA 
BRANCH  16  40
HETATM   40  C   UNL     1     -12.856  13.206  72.035  1.00  0.00    -0.199 C  
HETATM   41  O   UNL     1     -13.055  12.236  72.770  1.00  0.00     0.100 OA 
HETATM   42  C   UNL     1     -13.641  14.487  72.225  1.00  0.00    -0.540 C  
ENDBRANCH  16  40
ENDBRANCH  13  14
ENDBRANCH   4  13
TORSDOF 3
ENDMDL
MODEL      147
REMARK 921   NORMALIZED FREE ENERGY PREDICTED BY IDOCK:   55.96 KCAL/MOL
REMARK 922        TOTAL FREE ENERGY PREDICTED BY IDOCK:   64.88 KCAL/MOL
REMARK 923 INTER-LIGAND FREE ENERGY PREDICTED BY IDOCK:   65.69 KCAL/MOL
REMARK 924 INTRA-LIGAND FREE ENERGY PREDICTED BY IDOCK:   -0.81 KCAL/MOL
REMARK 927      BINDING AFFINITY PREDICTED BY RF-SCORE:    0.00 PKD
ROOT
HETATM    1  C   UNL     1      -8.757  18.751  63.072  1.00  0.00    20.682 C  
HETATM    2  C   UNL     1      -9.356  17.882  64.181  1.00  0.00     9.763 C  
HETATM    3  O   UNL     1      -8.286  17.062  64.689  1.00  0.00     3.844 OA 
HETATM    4  C   UNL     1      -8.680  16.047  65.603  1.00  0.00     0.482 C  
HETATM    5  H1  UNL     1     -12.762  15.595  63.563  1.00  0.00     0.000 HD 
HETATM    6  C   UNL     1      -9.752  15.142  64.995  1.00  0.00     0.102 C  
HETATM    7  C   UNL     1     -10.987  15.938  64.574  1.00  0.00    -0.179 C  
HETATM    8  H   UNL     1     -11.131  16.117  62.019  1.00  0.00     0.000 HD 
HETATM    9  H2  UNL     1     -12.185  14.234  64.384  1.00  0.00     0.000 HD 
HETATM   10  N   UNL     1     -11.938  15.063  63.843  1.00  0.00    -0.354 NA 
HETATM   11  C   UNL     1     -10.591  17.110  63.661  1.00  0.00     6.502 C  
HETATM   12  O   UNL     1     -10.372  16.591  62.339  1.00  0.00     8.830 OA 
ENDROOT
BRANCH   4  13
HETATM   13  O   UNL     1      -9.113  16.553  66.864  1.00  0.00    -0.204 OA 
BRANCH  13  14
HETATM   14  C   UNL     1      -8.359  16.193  68.041  1.00  0.00    -0.163 C  
HETATM   15  C   UNL     1      -8.994  16.990  69.195  1.00  0.00    -0.050 C  
HETATM   16  C   UNL     1     -10.427  16.492  69.478  1.00  0.00    -0.298 C  
HETATM   17  C   UNL     1     -10.330  15.085  70.060  1.00  0.00    -0.100 C  
HETATM   18  O   UNL     1     -11.245  16.450  68.300  1.00  0.00    -0.355 OA 
HETATM   19  H   UNL     1      -9.960  11.581  71.101  1.00  0.00     0.000 HD 
HETATM   20  O   UNL     1     -10.036  12.481  70.806  1.00  0.00     4.979 OA 
HETATM   21  C   UNL     1      -9.177  12.875  69.807  1.00  0.00     2.446 A  
HETATM   22  C   UNL     1      -9.289  14.206  69.371  1.00  0.00     0.453 A  
HETATM   23  H   UNL     1     -12.128  16.143  68.474  1.00  0.00     0.000 HD 
HETATM   24  C   UNL     1      -8.376  14.707  68.402  1.00  0.00    -0.157 A  
HETATM   25  C   UNL     1      -7.404  13.825  67.879  1.00  0.00    -0.153 A  
HETATM   26  O   UNL     1      -6.459  14.272  66.996  1.00  0.00    -0.310 OA 
HETATM   27  C   UNL     1      -7.322  12.477  68.303  1.00  0.00    -0.115 A  
HETATM   28  C   UNL     1      -6.297  11.542  67.752  1.00  0.00    -0.063 C  
HETATM   29  H   UNL     1      -5.805  13.679  66.644  1.00  0.00     0.000 HD 
HETATM   30  C   UNL     1      -6.274  10.140  68.204  1.00  0.00    -0.049 A  
HETATM   31  O   UNL     1      -5.467  11.881  66.918  1.00  0.00    -0.138 OA 
HETATM   32  C   UNL     1      -5.363   9.240  67.637  1.00  0.00    -0.037 A  
HETATM   33  C   UNL     1      -5.343   7.904  68.034  1.00  0.00    -0.032 A  
HETATM   34  C   UNL     1      -6.233   7.461  69.012  1.00  0.00    -0.035 A  
HETATM   35  C   UNL     1      -7.134   8.345  69.584  1.00  0.00    -0.052 A  
HETATM   36  C   UNL     1      -7.150   9.695  69.175  1.00  0.00    -0.062 A  
HETATM   37  C   UNL     1      -8.110  10.626  69.783  1.00  0.00     0.143 C  
HETATM   38  C   UNL     1      -8.208  12.012  69.279  1.00  0.00     0.570 A  
HETATM   39  O   UNL     1      -8.829  10.264  70.713  1.00  0.00     0.478 OA 
BRANCH  16  40
HETATM   40  C   UNL     1     -11.168  17.436  70.441  1.00  0.00     1.490 C  
HETATM   41  O   UNL     1     -12.004  18.254  70.049  1.00  0.00     5.580 OA 
HETATM   42  C   UNL     1     -10.819  17.339  71.911  1.00  0.00     2.255 C  
ENDBRANCH  16  40
ENDBRANCH  13  14
ENDBRANCH   4  13
TORSDOF 3
ENDMDL
MODEL      148
REMARK 921   NORMALIZED FREE ENERGY PREDICTED BY IDOCK:   57.23 KCAL/MOL
REMARK 922        TOTAL FREE ENERGY PREDICTED BY IDOCK:   66.38 KCAL/MOL
REMARK 923 INTER-LIGAND FREE ENERGY PREDICTED BY IDOCK:   56.91 KCAL/MOL
REMARK 924 INTRA-LIGAND FREE ENERGY PREDICTED BY IDOCK:    9.46 KCAL/MOL
REMARK 927      BINDING AFFINITY PREDICTED BY RF-SCORE:    0.00 PKD
ROOT
HETATM    1  C   UNL     1      -9.371  12.196  66.243  1.00  0.00    -0.221 C  
HETATM    2  C   UNL     1      -8.017  12.856  65.971  1.00  0.00     1.710 C  
HETATM    3  O   UNL     1      -8.289  14.216  65.581  1.00  0.00     1.746 OA 
HETATM    4  C   UNL     1      -7.167  14.948  65.103  1.00  0.00    10.928 C  
HETATM    5  H1  UNL     1      -5.228  11.150  63.415  1.00  0.00     0.000 HD 
HETATM    6  C   UNL     1      -6.491  14.224  63.938  1.00  0.00    25.807 C  
HETATM    7  C   UNL     1      -6.036  12.821  64.337  1.00  0.00    10.722 C  
HETATM    8  H   UNL     1      -7.526  11.035  63.254  1.00  0.00     0.000 HD 
HETATM    9  H2  UNL     1      -4.798  12.603  62.665  1.00  0.00     0.000 HD 
HETATM   10  N   UNL     1      -5.533  12.087  63.149  1.00  0.00     1.882 NA 
HETATM   11  C   UNL     1      -7.200  12.027  64.952  1.00  0.00     3.747 C  
HETATM   12  O   UNL     1      -8.027  11.545  63.880  1.00  0.00     0.958 OA 
ENDROOT
BRANCH   4  13
HETATM   13  O   UNL     1      -6.215  15.255  66.119  1.00  0.00     2.408 OA 
BRANCH  13  14
HETATM   14  C   UNL     1      -6.696  15.486  67.460  1.00  0.00    -0.190 C  
HETATM   15  C   UNL     1      -6.822  17.015  67.593  1.00  0.00    -0.158 C  
HETATM   16  C   UNL     1      -7.941  17.552  66.676  1.00  0.00    -0.253 C  
HETATM   17  C   UNL     1      -9.276  17.059  67.225  1.00  0.00    -0.225 C  
HETATM   18  O   UNL     1      -7.808  17.109  65.317  1.00  0.00     0.562 OA 
HETATM   19  H   UNL     1     -12.373  15.503  68.445  1.00  0.00     0.000 HD 
HETATM   20  O   UNL     1     -11.558  15.876  68.130  1.00  0.00    -0.329 OA 
HETATM   21  C   UNL     1     -10.453  15.059  68.167  1.00  0.00    -0.245 A  
HETATM   22  C   UNL     1      -9.247  15.610  67.702  1.00  0.00    -0.193 A  
HETATM   23  H   UNL     1      -8.497  17.440  64.752  1.00  0.00     0.000 HD 
HETATM   24  C   UNL     1      -8.047  14.851  67.792  1.00  0.00    -0.162 A  
HETATM   25  C   UNL     1      -8.121  13.541  68.316  1.00  0.00    -0.155 A  
HETATM   26  O   UNL     1      -6.987  12.793  68.488  1.00  0.00    -0.082 OA 
HETATM   27  C   UNL     1      -9.347  12.986  68.752  1.00  0.00     0.127 A  
HETATM   28  C   UNL     1      -9.429  11.601  69.305  1.00  0.00     0.445 C  
HETATM   29  H   UNL     1      -7.037  11.912  68.840  1.00  0.00     0.000 HD 
HETATM   30  C   UNL     1     -10.736  11.058  69.716  1.00  0.00    -0.135 A  
HETATM   31  O   UNL     1      -8.451  10.874  69.425  1.00  0.00    -0.061 OA 
HETATM   32  C   UNL     1     -10.830   9.736  70.167  1.00  0.00    -0.340 A  
HETATM   33  C   UNL     1     -12.060   9.197  70.536  1.00  0.00    -0.014 A  
HETATM   34  C   UNL     1     -13.209   9.986  70.466  1.00  0.00    -0.059 A  
HETATM   35  C   UNL     1     -13.126  11.298  70.027  1.00  0.00     0.398 A  
HETATM   36  C   UNL     1     -11.876  11.835  69.652  1.00  0.00    -0.407 A  
HETATM   37  C   UNL     1     -11.795  13.226  69.186  1.00  0.00    -0.329 C  
HETATM   38  C   UNL     1     -10.510  13.757  68.685  1.00  0.00    -0.245 A  
HETATM   39  O   UNL     1     -12.786  13.954  69.214  1.00  0.00     0.248 OA 
BRANCH  16  40
HETATM   40  C   UNL     1      -7.911  19.088  66.596  1.00  0.00    -0.263 C  
HETATM   41  O   UNL     1      -8.034  19.696  65.530  1.00  0.00    -0.379 OA 
HETATM   42  C   UNL     1      -7.704  19.844  67.892  1.00  0.00    -0.329 C  
ENDBRANCH  16  40
ENDBRANCH  13  14
ENDBRANCH   4  13
TORSDOF 3
ENDMDL
MODEL      149
REMARK 921   NORMALIZED FREE ENERGY PREDICTED BY IDOCK:   62.03 KCAL/MOL
REMARK 922        TOTAL FREE ENERGY PREDICTED BY IDOCK:   72.02 KCAL/MOL
REMARK 923 INTER-LIGAND FREE ENERGY PREDICTED BY IDOCK:   72.14 KCAL/MOL
REMARK 924 INTRA-LIGAND FREE ENERGY PREDICTED BY IDOCK:   -0.12 KCAL/MOL
REMARK 927      BINDING AFFINITY PREDICTED BY RF-SCORE:    0.00 PKD
ROOT
HETATM    1  C   UNL     1      -6.963  20.567  66.006  1.00  0.00    -0.233 C  
HETATM    2  C   UNL     1      -7.944  19.546  66.587  1.00  0.00    -0.293 C  
HETATM    3  O   UNL     1      -9.260  19.941  66.154  1.00  0.00    -0.380 OA 
HETATM    4  C   UNL     1     -10.336  19.224  66.744  1.00  0.00    -0.432 C  
HETATM    5  H1  UNL     1      -7.976  18.599  70.627  1.00  0.00     0.000 HD 
HETATM    6  C   UNL     1     -10.275  19.295  68.271  1.00  0.00    -0.513 C  
HETATM    7  C   UNL     1      -8.955  18.740  68.806  1.00  0.00    -0.280 C  
HETATM    8  H   UNL     1      -7.454  20.632  69.672  1.00  0.00     0.000 HD 
HETATM    9  H2  UNL     1      -9.661  18.589  70.769  1.00  0.00     0.000 HD 
HETATM   10  N   UNL     1      -8.857  18.969  70.269  1.00  0.00     1.641 NA 
HETATM   11  C   UNL     1      -7.761  19.422  68.117  1.00  0.00    -0.307 C  
HETATM   12  O   UNL     1      -7.567  20.707  68.732  1.00  0.00     0.260 OA 
ENDROOT
BRANCH   4  13
HETATM   13  O   UNL     1     -10.421  17.868  66.312  1.00  0.00    -0.368 OA 
BRANCH  13  14
HETATM   14  C   UNL     1     -11.567  17.091  66.720  1.00  0.00     1.304 C  
HETATM   15  C   UNL     1     -12.171  16.536  65.416  1.00  0.00     2.378 C  
HETATM   16  C   UNL     1     -11.216  15.515  64.764  1.00  0.00    -0.390 C  
HETATM   17  C   UNL     1     -11.164  14.281  65.658  1.00  0.00    -0.314 C  
HETATM   18  O   UNL     1      -9.884  16.024  64.600  1.00  0.00     0.033 OA 
HETATM   19  H   UNL     1     -10.856  11.539  68.085  1.00  0.00     0.000 HD 
HETATM   20  O   UNL     1     -10.930  12.269  67.482  1.00  0.00    -0.234 OA 
HETATM   21  C   UNL     1     -10.997  13.524  68.040  1.00  0.00    -0.251 A  
HETATM   22  C   UNL     1     -11.107  14.604  67.149  1.00  0.00    -0.328 A  
HETATM   23  H   UNL     1      -9.296  15.395  64.198  1.00  0.00     0.000 HD 
HETATM   24  C   UNL     1     -11.267  15.922  67.659  1.00  0.00    -0.219 A  
HETATM   25  C   UNL     1     -11.270  16.103  69.060  1.00  0.00    -0.347 A  
HETATM   26  O   UNL     1     -11.489  17.339  69.605  1.00  0.00     0.207 OA 
HETATM   27  C   UNL     1     -11.127  15.010  69.948  1.00  0.00    -0.298 A  
HETATM   28  C   UNL     1     -11.129  15.196  71.429  1.00  0.00    -0.175 C  
HETATM   29  H   UNL     1     -11.492  17.460  70.547  1.00  0.00     0.000 HD 
HETATM   30  C   UNL     1     -10.944  14.029  72.309  1.00  0.00     3.446 A  
HETATM   31  O   UNL     1     -11.264  16.290  71.962  1.00  0.00    -0.072 OA 
HETATM   32  C   UNL     1     -10.872  14.207  73.697  1.00  0.00     4.219 A  
HETATM   33  C   UNL     1     -10.673  13.118  74.543  1.00  0.00    12.415 A  
HETATM   34  C   UNL     1     -10.554  11.837  74.005  1.00  0.00    22.505 A  
HETATM   35  C   UNL     1     -10.631  11.649  72.634  1.00  0.00    14.068 A  
HETATM   36  C   UNL     1     -10.830  12.757  71.783  1.00  0.00     7.046 A  
HETATM   37  C   UNL     1     -10.908  12.551  70.330  1.00  0.00     1.859 C  
HETATM   38  C   UNL     1     -11.002  13.718  69.429  1.00  0.00    -0.142 A  
HETATM   39  O   UNL     1     -10.902  11.415  69.858  1.00  0.00    -0.073 OA 
BRANCH  16  40
HETATM   40  C   UNL     1     -11.676  15.147  63.342  1.00  0.00     1.644 C  
HETATM   41  O   UNL     1     -11.832  15.994  62.459  1.00  0.00     4.298 OA 
HETATM   42  C   UNL     1     -11.953  13.685  63.062  1.00  0.00     0.466 C  
ENDBRANCH  16  40
ENDBRANCH  13  14
ENDBRANCH   4  13
TORSDOF 3
ENDMDL
MODEL      150
REMARK 921   NORMALIZED FREE ENERGY PREDICTED BY IDOCK:   63.07 KCAL/MOL
REMARK 922        TOTAL FREE ENERGY PREDICTED BY IDOCK:   73.25 KCAL/MOL
REMARK 923 INTER-LIGAND FREE ENERGY PREDICTED BY IDOCK:    3.46 KCAL/MOL
REMARK 924 INTRA-LIGAND FREE ENERGY PREDICTED BY IDOCK:   69.79 KCAL/MOL
REMARK 927      BINDING AFFINITY PREDICTED BY RF-SCORE:    0.00 PKD
ROOT
HETATM    1  C   UNL     1     -11.038  14.045  64.339  1.00  0.00    -0.300 C  
HETATM    2  C   UNL     1     -10.636  13.727  65.782  1.00  0.00    -0.293 C  
HETATM    3  O   UNL     1     -10.429  14.989  66.443  1.00  0.00    -0.279 OA 
HETATM    4  C   UNL     1      -9.866  14.908  67.746  1.00  0.00    -0.217 C  
HETATM    5  H1  UNL     1      -7.538  11.110  66.659  1.00  0.00     0.000 HD 
HETATM    6  C   UNL     1      -8.547  14.135  67.731  1.00  0.00    -0.184 C  
HETATM    7  C   UNL     1      -8.731  12.720  67.180  1.00  0.00    -0.202 C  
HETATM    8  H   UNL     1      -7.708  12.513  64.837  1.00  0.00     0.000 HD 
HETATM    9  H2  UNL     1      -6.881  12.057  67.896  1.00  0.00     0.000 HD 
HETATM   10  N   UNL     1      -7.414  12.054  67.026  1.00  0.00    -0.136 NA 
HETATM   11  C   UNL     1      -9.430  12.759  65.811  1.00  0.00    -0.010 C  
HETATM   12  O   UNL     1      -8.449  13.107  64.819  1.00  0.00     2.949 OA 
ENDROOT
BRANCH   4  13
HETATM   13  O   UNL     1     -10.754  14.358  68.716  1.00  0.00    -0.239 OA 
BRANCH  13  14
HETATM   14  C   UNL     1     -11.635  13.289  68.307  1.00  0.00    -0.334 C  
HETATM   15  C   UNL     1     -12.659  13.941  67.360  1.00  0.00     0.292 C  
HETATM   16  C   UNL     1     -11.976  14.408  66.057  1.00  0.00    -0.367 C  
HETATM   17  C   UNL     1     -11.548  13.168  65.280  1.00  0.00    -0.350 C  
HETATM   18  O   UNL     1     -10.822  15.227  66.296  1.00  0.00    -0.311 OA 
HETATM   19  H   UNL     1     -10.252  10.112  63.705  1.00  0.00     0.000 HD 
HETATM   20  O   UNL     1     -10.573  10.892  64.140  1.00  0.00    -0.375 OA 
HETATM   21  C   UNL     1     -10.476  10.915  65.512  1.00  0.00    -0.219 A  
HETATM   22  C   UNL     1     -10.952  12.069  66.157  1.00  0.00    -0.343 A  
HETATM   23  H   UNL     1     -10.402  15.515  65.493  1.00  0.00     0.000 HD 
HETATM   24  C   UNL     1     -10.962  12.126  67.578  1.00  0.00    -0.304 A  
HETATM   25  C   UNL     1     -10.450  11.022  68.296  1.00  0.00    -0.186 A  
HETATM   26  O   UNL     1     -10.498  10.995  69.664  1.00  0.00    -0.420 OA 
HETATM   27  C   UNL     1      -9.944   9.878  67.634  1.00  0.00    -0.212 A  
HETATM   28  C   UNL     1      -9.401   8.710  68.389  1.00  0.00    -0.138 C  
HETATM   29  H   UNL     1     -10.154  10.253  70.146  1.00  0.00     0.000 HD 
HETATM   30  C   UNL     1      -8.857   7.556  67.652  1.00  0.00    -0.128 A  
HETATM   31  O   UNL     1      -9.371   8.664  69.613  1.00  0.00    -0.158 OA 
HETATM   32  C   UNL     1      -8.280   6.490  68.354  1.00  0.00    -0.114 A  
HETATM   33  C   UNL     1      -7.738   5.402  67.673  1.00  0.00    -0.092 A  
HETATM   34  C   UNL     1      -7.779   5.370  66.278  1.00  0.00    -0.099 A  
HETATM   35  C   UNL     1      -8.353   6.416  65.575  1.00  0.00    -0.147 A  
HETATM   36  C   UNL     1      -8.898   7.516  66.272  1.00  0.00    -0.184 A  
HETATM   37  C   UNL     1      -9.503   8.624  65.520  1.00  0.00     0.052 C  
HETATM   38  C   UNL     1      -9.971   9.827  66.238  1.00  0.00    -0.331 A  
HETATM   39  O   UNL     1      -9.629   8.555  64.298  1.00  0.00     1.187 OA 
BRANCH  16  40
HETATM   40  C   UNL     1     -12.918  15.287  65.216  1.00  0.00     0.952 C  
HETATM   41  O   UNL     1     -12.503  16.201  64.499  1.00  0.00     0.071 OA 
HETATM   42  C   UNL     1     -14.402  15.000  65.311  1.00  0.00     4.626 C  
ENDBRANCH  16  40
ENDBRANCH  13  14
ENDBRANCH   4  13
TORSDOF 3
ENDMDL
MODEL      151
REMARK 921   NORMALIZED FREE ENERGY PREDICTED BY IDOCK:   68.86 KCAL/MOL
REMARK 922        TOTAL FREE ENERGY PREDICTED BY IDOCK:   80.04 KCAL/MOL
REMARK 923 INTER-LIGAND FREE ENERGY PREDICTED BY IDOCK:   73.87 KCAL/MOL
REMARK 924 INTRA-LIGAND FREE ENERGY PREDICTED BY IDOCK:    6.18 KCAL/MOL
REMARK 927      BINDING AFFINITY PREDICTED BY RF-SCORE:    0.00 PKD
ROOT
HETATM    1  C   UNL     1      -9.994  11.112  65.511  1.00  0.00    -0.298 C  
HETATM    2  C   UNL     1      -9.354  12.357  66.131  1.00  0.00    -0.155 C  
HETATM    3  O   UNL     1     -10.194  13.474  65.781  1.00  0.00    -0.286 OA 
HETATM    4  C   UNL     1      -9.669  14.755  66.106  1.00  0.00    -0.312 C  
HETATM    5  H1  UNL     1      -5.361  13.300  65.509  1.00  0.00     0.000 HD 
HETATM    6  C   UNL     1      -8.287  14.960  65.484  1.00  0.00     2.858 C  
HETATM    7  C   UNL     1      -7.300  13.887  65.944  1.00  0.00     4.993 C  
HETATM    8  H   UNL     1      -6.791  12.241  64.043  1.00  0.00     0.000 HD 
HETATM    9  H2  UNL     1      -5.627  14.955  65.280  1.00  0.00     0.000 HD 
HETATM   10  N   UNL     1      -6.020  14.016  65.202  1.00  0.00    12.872 NA 
HETATM   11  C   UNL     1      -7.874  12.482  65.700  1.00  0.00     2.339 C  
HETATM   12  O   UNL     1      -7.700  12.164  64.309  1.00  0.00     3.135 OA 
ENDROOT
BRANCH   4  13
HETATM   13  O   UNL     1      -9.628  15.013  67.508  1.00  0.00    -0.202 OA 
BRANCH  13  14
HETATM   14  C   UNL     1      -8.874  14.111  68.346  1.00  0.00    -0.187 C  
HETATM   15  C   UNL     1      -7.951  15.011  69.190  1.00  0.00    -0.195 C  
HETATM   16  C   UNL     1      -8.776  15.867  70.174  1.00  0.00     0.918 C  
HETATM   17  C   UNL     1      -9.377  14.934  71.220  1.00  0.00     3.059 C  
HETATM   18  O   UNL     1      -9.837  16.587  69.531  1.00  0.00    -0.197 OA 
HETATM   19  H   UNL     1     -11.050  12.533  73.442  1.00  0.00     0.000 HD 
HETATM   20  O   UNL     1     -10.627  13.135  72.842  1.00  0.00     8.947 OA 
HETATM   21  C   UNL     1     -10.537  12.735  71.530  1.00  0.00     7.543 A  
HETATM   22  C   UNL     1      -9.912  13.626  70.641  1.00  0.00     3.905 A  
HETATM   23  H   UNL     1     -10.345  17.115  70.138  1.00  0.00     0.000 HD 
HETATM   24  C   UNL     1      -9.706  13.240  69.288  1.00  0.00     0.630 A  
HETATM   25  C   UNL     1     -10.179  11.975  68.873  1.00  0.00    -0.058 A  
HETATM   26  O   UNL     1      -9.948  11.526  67.601  1.00  0.00    -0.180 OA 
HETATM   27  C   UNL     1     -10.835  11.099  69.770  1.00  0.00    -0.152 A  
HETATM   28  C   UNL     1     -11.338   9.762  69.335  1.00  0.00    -0.045 C  
HETATM   29  H   UNL     1     -10.266  10.676  67.322  1.00  0.00     0.000 HD 
HETATM   30  C   UNL     1     -12.043   8.901  70.300  1.00  0.00     0.307 A  
HETATM   31  O   UNL     1     -11.205   9.341  68.193  1.00  0.00     0.026 OA 
HETATM   32  C   UNL     1     -12.581   7.678  69.879  1.00  0.00     1.410 A  
HETATM   33  C   UNL     1     -13.272   6.861  70.771  1.00  0.00     0.240 A  
HETATM   34  C   UNL     1     -13.423   7.261  72.099  1.00  0.00    -0.049 A  
HETATM   35  C   UNL     1     -12.889   8.466  72.527  1.00  0.00    -0.256 A  
HETATM   36  C   UNL     1     -12.192   9.289  71.617  1.00  0.00    -0.445 A  
HETATM   37  C   UNL     1     -11.631  10.566  72.076  1.00  0.00     1.574 C  
HETATM   38  C   UNL     1     -11.001  11.482  71.103  1.00  0.00     2.814 A  
HETATM   39  O   UNL     1     -11.676  10.877  73.266  1.00  0.00     6.188 OA 
BRANCH  16  40
HETATM   40  C   UNL     1      -7.907  16.950  70.837  1.00  0.00     5.076 C  
HETATM   41  O   UNL     1      -6.824  16.693  71.368  1.00  0.00     3.064 OA 
HETATM   42  C   UNL     1      -8.443  18.367  70.830  1.00  0.00     4.988 C  
ENDBRANCH  16  40
ENDBRANCH  13  14
ENDBRANCH   4  13
TORSDOF 3
ENDMDL
MODEL      152
REMARK 921   NORMALIZED FREE ENERGY PREDICTED BY IDOCK:   71.95 KCAL/MOL
REMARK 922        TOTAL FREE ENERGY PREDICTED BY IDOCK:   83.68 KCAL/MOL
REMARK 923 INTER-LIGAND FREE ENERGY PREDICTED BY IDOCK:   80.53 KCAL/MOL
REMARK 924 INTRA-LIGAND FREE ENERGY PREDICTED BY IDOCK:    3.15 KCAL/MOL
REMARK 927      BINDING AFFINITY PREDICTED BY RF-SCORE:    0.00 PKD
ROOT
HETATM    1  C   UNL     1      -7.645   9.897  66.294  1.00  0.00    -0.102 C  
HETATM    2  C   UNL     1      -6.862  10.701  67.335  1.00  0.00    -0.077 C  
HETATM    3  O   UNL     1      -7.710  10.818  68.494  1.00  0.00    -0.104 OA 
HETATM    4  C   UNL     1      -7.237  11.694  69.509  1.00  0.00     0.116 C  
HETATM    5  H1  UNL     1      -5.147  14.369  66.425  1.00  0.00     0.000 HD 
HETATM    6  C   UNL     1      -6.966  13.091  68.950  1.00  0.00    -0.088 C  
HETATM    7  C   UNL     1      -5.947  13.054  67.811  1.00  0.00    -0.145 C  
HETATM    8  H   UNL     1      -7.087  13.478  65.552  1.00  0.00     0.000 HD 
HETATM    9  H2  UNL     1      -5.606  15.116  67.870  1.00  0.00     0.000 HD 
HETATM   10  N   UNL     1      -5.827  14.394  67.185  1.00  0.00     0.032 NA 
HETATM   11  C   UNL     1      -6.374  12.041  66.736  1.00  0.00     0.029 C  
HETATM   12  O   UNL     1      -7.386  12.655  65.921  1.00  0.00     1.661 OA 
ENDROOT
BRANCH   4  13
HETATM   13  O   UNL     1      -6.088  11.201  70.194  1.00  0.00    -0.118 OA 
BRANCH  13  14
HETATM   14  C   UNL     1      -6.291  10.368  71.356  1.00  0.00     0.576 C  
HETATM   15  C   UNL     1      -6.562  11.343  72.518  1.00  0.00     5.228 C  
HETATM   16  C   UNL     1      -7.907  12.070  72.316  1.00  0.00    15.354 C  
HETATM   17  C   UNL     1      -9.025  11.045  72.475  1.00  0.00    15.064 C  
HETATM   18  O   UNL     1      -8.021  12.683  71.023  1.00  0.00     5.274 OA 
HETATM   19  H   UNL     1     -11.581   8.406  72.520  1.00  0.00     0.000 HD 
HETATM   20  O   UNL     1     -10.903   9.070  72.487  1.00  0.00    -0.060 OA 
HETATM   21  C   UNL     1      -9.729   8.720  71.863  1.00  0.00    -0.316 A  
HETATM   22  C   UNL     1      -8.725   9.702  71.814  1.00  0.00     1.512 A  
HETATM   23  H   UNL     1      -8.850  13.131  70.899  1.00  0.00     0.000 HD 
HETATM   24  C   UNL     1      -7.454   9.381  71.261  1.00  0.00     0.108 A  
HETATM   25  C   UNL     1      -7.260   8.082  70.739  1.00  0.00    -0.053 A  
HETATM   26  O   UNL     1      -6.037   7.699  70.257  1.00  0.00    -0.030 OA 
HETATM   27  C   UNL     1      -8.289   7.112  70.765  1.00  0.00    -0.128 A  
HETATM   28  C   UNL     1      -8.089   5.739  70.213  1.00  0.00    -0.105 C  
HETATM   29  H   UNL     1      -5.907   6.826  69.906  1.00  0.00     0.000 HD 
HETATM   30  C   UNL     1      -9.203   4.775  70.236  1.00  0.00    -0.191 A  
HETATM   31  O   UNL     1      -7.030   5.368  69.721  1.00  0.00    -0.057 OA 
HETATM   32  C   UNL     1      -9.043   3.512  69.654  1.00  0.00    -0.204 A  
HETATM   33  C   UNL     1     -10.093   2.596  69.644  1.00  0.00     0.889 A  
HETATM   34  C   UNL     1     -11.314   2.938  70.227  1.00  0.00     7.031 A  
HETATM   35  C   UNL     1     -11.480   4.184  70.811  1.00  0.00     4.343 A  
HETATM   36  C   UNL     1     -10.412   5.106  70.815  1.00  0.00    -0.263 A  
HETATM   37  C   UNL     1     -10.596   6.426  71.434  1.00  0.00    -0.230 C  
HETATM   38  C   UNL     1      -9.521   7.436  71.341  1.00  0.00    -0.160 A  
HETATM   39  O   UNL     1     -11.635   6.696  72.034  1.00  0.00    -0.273 OA 
BRANCH  16  40
HETATM   40  C   UNL     1      -8.073  13.227  73.317  1.00  0.00    13.304 C  
HETATM   41  O   UNL     1      -7.271  13.427  74.232  1.00  0.00     2.379 OA 
HETATM   42  C   UNL     1      -9.286  14.118  73.150  1.00  0.00    10.336 C  
ENDBRANCH  16  40
ENDBRANCH  13  14
ENDBRANCH   4  13
TORSDOF 3
ENDMDL
MODEL      153
REMARK 921   NORMALIZED FREE ENERGY PREDICTED BY IDOCK:   78.23 KCAL/MOL
REMARK 922        TOTAL FREE ENERGY PREDICTED BY IDOCK:   91.06 KCAL/MOL
REMARK 923 INTER-LIGAND FREE ENERGY PREDICTED BY IDOCK:    8.06 KCAL/MOL
REMARK 924 INTRA-LIGAND FREE ENERGY PREDICTED BY IDOCK:   83.00 KCAL/MOL
REMARK 927      BINDING AFFINITY PREDICTED BY RF-SCORE:    0.00 PKD
ROOT
HETATM    1  C   UNL     1      -7.681  17.021  65.588  1.00  0.00     0.727 C  
HETATM    2  C   UNL     1      -8.346  16.728  66.935  1.00  0.00    -0.209 C  
HETATM    3  O   UNL     1      -9.690  17.240  66.856  1.00  0.00    -0.254 OA 
HETATM    4  C   UNL     1     -10.417  17.233  68.078  1.00  0.00    -0.375 C  
HETATM    5  H1  UNL     1      -6.586  17.835  70.526  1.00  0.00     0.000 HD 
HETATM    6  C   UNL     1      -9.663  17.987  69.174  1.00  0.00    -0.114 C  
HETATM    7  C   UNL     1      -8.277  17.388  69.416  1.00  0.00     0.375 C  
HETATM    8  H   UNL     1      -6.443  18.932  68.504  1.00  0.00     0.000 HD 
HETATM    9  H2  UNL     1      -8.019  18.385  71.236  1.00  0.00     0.000 HD 
HETATM   10  N   UNL     1      -7.511  18.235  70.365  1.00  0.00     1.958 NA 
HETATM   11  C   UNL     1      -7.493  17.286  68.098  1.00  0.00    -0.208 C  
HETATM   12  O   UNL     1      -6.968  18.589  67.790  1.00  0.00    -0.210 OA 
ENDROOT
BRANCH   4  13
HETATM   13  O   UNL     1     -10.766  15.924  68.523  1.00  0.00    -0.249 OA 
BRANCH  13  14
HETATM   14  C   UNL     1     -10.493  14.809  67.648  1.00  0.00    -0.254 C  
HETATM   15  C   UNL     1      -9.908  15.428  66.365  1.00  0.00    -0.301 C  
HETATM   16  C   UNL     1      -8.526  16.055  66.644  1.00  0.00    -0.288 C  
HETATM   17  C   UNL     1      -7.548  14.924  66.943  1.00  0.00     0.141 C  
HETATM   18  O   UNL     1      -8.540  16.962  67.756  1.00  0.00    -0.202 OA 
HETATM   19  H   UNL     1      -5.401  12.136  68.002  1.00  0.00     0.000 HD 
HETATM   20  O   UNL     1      -5.979  12.846  67.749  1.00  0.00    -0.112 OA 
HETATM   21  C   UNL     1      -7.276  12.776  68.202  1.00  0.00    -0.115 A  
HETATM   22  C   UNL     1      -8.131  13.826  67.829  1.00  0.00    -0.176 A  
HETATM   23  H   UNL     1      -7.689  17.349  67.927  1.00  0.00     0.000 HD 
HETATM   24  C   UNL     1      -9.506  13.775  68.189  1.00  0.00    -0.212 A  
HETATM   25  C   UNL     1      -9.957  12.675  68.953  1.00  0.00     0.108 A  
HETATM   26  O   UNL     1     -11.282  12.541  69.269  1.00  0.00    -0.320 OA 
HETATM   27  C   UNL     1      -9.079  11.638  69.350  1.00  0.00     0.729 A  
HETATM   28  C   UNL     1      -9.552  10.475  70.158  1.00  0.00     0.517 C  
HETATM   29  H   UNL     1     -11.585  11.801  69.782  1.00  0.00     0.000 HD 
HETATM   30  C   UNL     1      -8.590   9.439  70.572  1.00  0.00    -0.265 A  
HETATM   31  O   UNL     1     -10.716  10.341  70.512  1.00  0.00    -0.283 OA 
HETATM   32  C   UNL     1      -9.013   8.384  71.391  1.00  0.00    -0.237 A  
HETATM   33  C   UNL     1      -8.113   7.408  71.814  1.00  0.00    -0.105 A  
HETATM   34  C   UNL     1      -6.779   7.477  71.410  1.00  0.00    -0.049 A  
HETATM   35  C   UNL     1      -6.352   8.512  70.595  1.00  0.00    -0.037 A  
HETATM   36  C   UNL     1      -7.269   9.499  70.173  1.00  0.00    -0.114 A  
HETATM   37  C   UNL     1      -6.810  10.596  69.311  1.00  0.00    -0.086 C  
HETATM   38  C   UNL     1      -7.738  11.691  68.960  1.00  0.00    -0.002 A  
HETATM   39  O   UNL     1      -5.660  10.607  68.873  1.00  0.00    -0.041 OA 
BRANCH  16  40
HETATM   40  C   UNL     1      -8.044  16.900  65.451  1.00  0.00     1.769 C  
HETATM   41  O   UNL     1      -7.002  16.646  64.842  1.00  0.00     3.273 OA 
HETATM   42  C   UNL     1      -8.898  18.085  65.052  1.00  0.00     3.283 C  
ENDBRANCH  16  40
ENDBRANCH  13  14
ENDBRANCH   4  13
TORSDOF 3
ENDMDL
MODEL      154
REMARK 921   NORMALIZED FREE ENERGY PREDICTED BY IDOCK:   82.76 KCAL/MOL
REMARK 922        TOTAL FREE ENERGY PREDICTED BY IDOCK:   96.39 KCAL/MOL
REMARK 923 INTER-LIGAND FREE ENERGY PREDICTED BY IDOCK:    4.79 KCAL/MOL
REMARK 924 INTRA-LIGAND FREE ENERGY PREDICTED BY IDOCK:   91.60 KCAL/MOL
REMARK 927      BINDING AFFINITY PREDICTED BY RF-SCORE:    0.00 PKD
ROOT
HETATM    1  C   UNL     1      -7.292  11.912  69.399  1.00  0.00     0.178 C  
HETATM    2  C   UNL     1      -7.814  10.514  69.742  1.00  0.00    -0.034 C  
HETATM    3  O   UNL     1      -7.904  10.445  71.178  1.00  0.00     0.985 OA 
HETATM    4  C   UNL     1      -8.193   9.158  71.708  1.00  0.00     0.319 C  
HETATM    5  H1  UNL     1      -6.026   7.085  68.238  1.00  0.00     0.000 HD 
HETATM    6  C   UNL     1      -7.179   8.121  71.224  1.00  0.00    -0.066 C  
HETATM    7  C   UNL     1      -7.148   8.034  69.698  1.00  0.00    -0.061 C  
HETATM    8  H   UNL     1      -4.998   9.079  68.768  1.00  0.00     0.000 HD 
HETATM    9  H2  UNL     1      -6.106   6.221  69.690  1.00  0.00     0.000 HD 
HETATM   10  N   UNL     1      -6.047   7.142  69.257  1.00  0.00    -0.029 NA 
HETATM   11  C   UNL     1      -6.936   9.426  69.081  1.00  0.00    -0.058 C  
HETATM   12  O   UNL     1      -5.538   9.747  69.174  1.00  0.00    -0.036 OA 
ENDROOT
BRANCH   4  13
HETATM   13  O   UNL     1      -9.522   8.718  71.438  1.00  0.00    -0.210 OA 
BRANCH  13  14
HETATM   14  C   UNL     1     -10.054   8.921  70.111  1.00  0.00    -0.190 C  
HETATM   15  C   UNL     1     -10.006  10.443  69.878  1.00  0.00    -0.096 C  
HETATM   16  C   UNL     1      -8.547  10.937  69.798  1.00  0.00     0.586 C  
HETATM   17  C   UNL     1      -7.934  10.385  68.515  1.00  0.00    -0.114 C  
HETATM   18  O   UNL     1      -7.751  10.508  70.913  1.00  0.00     0.023 OA 
HETATM   19  H   UNL     1      -6.487   8.693  65.591  1.00  0.00     0.000 HD 
HETATM   20  O   UNL     1      -6.873   9.102  66.357  1.00  0.00    -0.077 OA 
HETATM   21  C   UNL     1      -7.743   8.331  67.093  1.00  0.00    -0.097 A  
HETATM   22  C   UNL     1      -8.314   8.935  68.226  1.00  0.00    -0.125 A  
HETATM   23  H   UNL     1      -6.852  10.813  70.863  1.00  0.00     0.000 HD 
HETATM   24  C   UNL     1      -9.287   8.227  68.984  1.00  0.00    -0.147 A  
HETATM   25  C   UNL     1      -9.618   6.912  68.587  1.00  0.00    -0.133 A  
HETATM   26  O   UNL     1     -10.597   6.211  69.239  1.00  0.00    -0.221 OA 
HETATM   27  C   UNL     1      -9.013   6.303  67.463  1.00  0.00    -0.108 A  
HETATM   28  C   UNL     1      -9.359   4.913  67.041  1.00  0.00    -0.129 C  
HETATM   29  H   UNL     1     -10.819   5.328  68.973  1.00  0.00     0.000 HD 
HETATM   30  C   UNL     1      -8.676   4.313  65.881  1.00  0.00    -0.115 A  
HETATM   31  O   UNL     1     -10.186   4.227  67.627  1.00  0.00    -0.004 OA 
HETATM   32  C   UNL     1      -8.943   2.985  65.526  1.00  0.00    -0.145 A  
HETATM   33  C   UNL     1      -8.289   2.393  64.448  1.00  0.00    -0.083 A  
HETATM   34  C   UNL     1      -7.365   3.133  63.709  1.00  0.00    -0.058 A  
HETATM   35  C   UNL     1      -7.099   4.450  64.048  1.00  0.00    -0.046 A  
HETATM   36  C   UNL     1      -7.763   5.042  65.143  1.00  0.00    -0.083 A  
HETATM   37  C   UNL     1      -7.474   6.437  65.500  1.00  0.00    -0.083 C  
HETATM   38  C   UNL     1      -8.081   7.026  66.712  1.00  0.00    -0.109 A  
HETATM   39  O   UNL     1      -6.736   7.123  64.794  1.00  0.00    -0.045 OA 
BRANCH  16  40
HETATM   40  C   UNL     1      -8.474  12.473  69.827  1.00  0.00     2.307 C  
HETATM   41  O   UNL     1      -9.323  13.184  69.284  1.00  0.00     0.513 OA 
HETATM   42  C   UNL     1      -7.295  13.097  70.545  1.00  0.00     2.580 C  
ENDBRANCH  16  40
ENDBRANCH  13  14
ENDBRANCH   4  13
TORSDOF 3
ENDMDL
MODEL      155
REMARK 921   NORMALIZED FREE ENERGY PREDICTED BY IDOCK:   93.22 KCAL/MOL
REMARK 922        TOTAL FREE ENERGY PREDICTED BY IDOCK:  108.69 KCAL/MOL
REMARK 923 INTER-LIGAND FREE ENERGY PREDICTED BY IDOCK:   25.23 KCAL/MOL
REMARK 924 INTRA-LIGAND FREE ENERGY PREDICTED BY IDOCK:   83.46 KCAL/MOL
REMARK 927      BINDING AFFINITY PREDICTED BY RF-SCORE:    0.00 PKD
ROOT
HETATM    1  C   UNL     1      -7.717  17.008  65.553  1.00  0.00     1.197 C  
HETATM    2  C   UNL     1      -8.718  16.706  66.671  1.00  0.00    -0.246 C  
HETATM    3  O   UNL     1      -9.876  17.527  66.426  1.00  0.00    -0.290 OA 
HETATM    4  C   UNL     1     -10.850  17.531  67.462  1.00  0.00    -0.203 C  
HETATM    5  H1  UNL     1      -7.642  16.885  70.675  1.00  0.00     0.000 HD 
HETATM    6  C   UNL     1     -10.230  17.935  68.800  1.00  0.00    -0.362 C  
HETATM    7  C   UNL     1      -9.088  17.000  69.196  1.00  0.00    -0.058 C  
HETATM    8  H   UNL     1      -6.820  18.173  68.948  1.00  0.00     0.000 HD 
HETATM    9  H2  UNL     1      -9.057  17.660  71.180  1.00  0.00     0.000 HD 
HETATM   10  N   UNL     1      -8.404  17.509  70.411  1.00  0.00     3.195 NA 
HETATM   11  C   UNL     1      -8.059  16.890  68.058  1.00  0.00    -0.194 C  
HETATM   12  O   UNL     1      -7.225  18.060  68.096  1.00  0.00    -0.222 OA 
ENDROOT
BRANCH   4  13
HETATM   13  O   UNL     1     -11.549  16.295  67.589  1.00  0.00    -0.016 OA 
BRANCH  13  14
HETATM   14  C   UNL     1     -11.304  15.267  66.606  1.00  0.00    -0.170 C  
HETATM   15  C   UNL     1     -10.149  15.798  65.736  1.00  0.00    -0.399 C  
HETATM   16  C   UNL     1      -8.844  15.880  66.553  1.00  0.00    -0.305 C  
HETATM   17  C   UNL     1      -8.395  14.456  66.867  1.00  0.00    -0.109 C  
HETATM   18  O   UNL     1      -9.001  16.597  67.786  1.00  0.00    -0.207 OA 
HETATM   19  H   UNL     1      -7.642  10.998  67.856  1.00  0.00     0.000 HD 
HETATM   20  O   UNL     1      -7.868  11.887  67.611  1.00  0.00    -0.125 OA 
HETATM   21  C   UNL     1      -9.205  12.209  67.624  1.00  0.00    -0.181 A  
HETATM   22  C   UNL     1      -9.539  13.525  67.261  1.00  0.00    -0.235 A  
HETATM   23  H   UNL     1      -8.197  16.648  68.289  1.00  0.00     0.000 HD 
HETATM   24  C   UNL     1     -10.908  13.902  67.169  1.00  0.00    -0.288 A  
HETATM   25  C   UNL     1     -11.891  12.939  67.489  1.00  0.00    -0.351 A  
HETATM   26  O   UNL     1     -13.222  13.227  67.352  1.00  0.00     1.193 OA 
HETATM   27  C   UNL     1     -11.541  11.626  67.884  1.00  0.00    -0.369 A  
HETATM   28  C   UNL     1     -12.576  10.605  68.224  1.00  0.00     2.314 C  
HETATM   29  H   UNL     1     -13.882  12.580  67.566  1.00  0.00     0.000 HD 
HETATM   30  C   UNL     1     -12.159   9.262  68.660  1.00  0.00     2.253 A  
HETATM   31  O   UNL     1     -13.778  10.834  68.171  1.00  0.00     6.757 OA 
HETATM   32  C   UNL     1     -13.123   8.325  69.050  1.00  0.00     7.138 A  
HETATM   33  C   UNL     1     -12.746   7.058  69.490  1.00  0.00     2.439 A  
HETATM   34  C   UNL     1     -11.394   6.715  69.533  1.00  0.00    -0.358 A  
HETATM   35  C   UNL     1     -10.432   7.633  69.143  1.00  0.00    -0.220 A  
HETATM   36  C   UNL     1     -10.822   8.915  68.702  1.00  0.00    -0.036 A  
HETATM   37  C   UNL     1      -9.797   9.885  68.292  1.00  0.00    -0.147 C  
HETATM   38  C   UNL     1     -10.192  11.264  67.938  1.00  0.00    -0.201 A  
HETATM   39  O   UNL     1      -8.613   9.556  68.236  1.00  0.00    -0.119 OA 
BRANCH  16  40
HETATM   40  C   UNL     1      -7.750  16.645  65.787  1.00  0.00     0.725 C  
HETATM   41  O   UNL     1      -6.677  16.124  65.474  1.00  0.00     2.374 OA 
HETATM   42  C   UNL     1      -8.034  18.091  65.436  1.00  0.00     1.052 C  
ENDBRANCH  16  40
ENDBRANCH  13  14
ENDBRANCH   4  13
TORSDOF 3
ENDMDL
MODEL      156
REMARK 921   NORMALIZED FREE ENERGY PREDICTED BY IDOCK:  117.22 KCAL/MOL
REMARK 922        TOTAL FREE ENERGY PREDICTED BY IDOCK:  136.89 KCAL/MOL
REMARK 923 INTER-LIGAND FREE ENERGY PREDICTED BY IDOCK:   99.70 KCAL/MOL
REMARK 924 INTRA-LIGAND FREE ENERGY PREDICTED BY IDOCK:   37.18 KCAL/MOL
REMARK 927      BINDING AFFINITY PREDICTED BY RF-SCORE:    0.00 PKD
ROOT
HETATM    1  C   UNL     1      -9.974   9.995  63.146  1.00  0.00     0.474 C  
HETATM    2  C   UNL     1      -8.613  10.470  63.662  1.00  0.00    -0.156 C  
HETATM    3  O   UNL     1      -8.255  11.628  62.884  1.00  0.00     0.230 OA 
HETATM    4  C   UNL     1      -6.932  12.109  63.084  1.00  0.00     4.505 C  
HETATM    5  H1  UNL     1      -5.379   7.889  63.987  1.00  0.00     0.000 HD 
HETATM    6  C   UNL     1      -5.900  11.008  62.837  1.00  0.00     0.115 C  
HETATM    7  C   UNL     1      -6.134   9.804  63.750  1.00  0.00    -0.114 C  
HETATM    8  H   UNL     1      -7.071   7.820  62.422  1.00  0.00     0.000 HD 
HETATM    9  H2  UNL     1      -4.246   8.985  63.375  1.00  0.00     0.000 HD 
HETATM   10  N   UNL     1      -5.223   8.693  63.377  1.00  0.00    -0.062 NA 
HETATM   11  C   UNL     1      -7.587   9.313  63.637  1.00  0.00    -0.112 C  
HETATM   12  O   UNL     1      -7.701   8.530  62.437  1.00  0.00    -0.116 OA 
ENDROOT
BRANCH   4  13
HETATM   13  O   UNL     1      -6.730  12.702  64.364  1.00  0.00     7.411 OA 
BRANCH  13  14
HETATM   14  C   UNL     1      -6.885  11.871  65.535  1.00  0.00     2.138 C  
HETATM   15  C   UNL     1      -6.595  12.792  66.734  1.00  0.00     0.769 C  
HETATM   16  C   UNL     1      -7.689  13.871  66.870  1.00  0.00     0.392 C  
HETATM   17  C   UNL     1      -8.982  13.179  67.288  1.00  0.00    -0.216 C  
HETATM   18  O   UNL     1      -7.922  14.587  65.648  1.00  0.00     1.902 OA 
HETATM   19  H   UNL     1     -12.096  11.337  67.934  1.00  0.00     0.000 HD 
HETATM   20  O   UNL     1     -11.285  11.792  67.742  1.00  0.00    -0.228 OA 
HETATM   21  C   UNL     1     -10.434  11.184  66.849  1.00  0.00    -0.246 A  
HETATM   22  C   UNL     1      -9.234  11.858  66.565  1.00  0.00    -0.216 A  
HETATM   23  H   UNL     1      -8.596  15.251  65.732  1.00  0.00     0.000 HD 
HETATM   24  C   UNL     1      -8.268  11.246  65.718  1.00  0.00     0.071 A  
HETATM   25  C   UNL     1      -8.573   9.987  65.155  1.00  0.00    -0.158 A  
HETATM   26  O   UNL     1      -7.654   9.324  64.388  1.00  0.00    -0.108 OA 
HETATM   27  C   UNL     1      -9.799   9.333  65.423  1.00  0.00    -0.060 A  
HETATM   28  C   UNL     1     -10.126   8.003  64.829  1.00  0.00     3.751 C  
HETATM   29  H   UNL     1      -7.859   8.477  64.010  1.00  0.00     0.000 HD 
HETATM   30  C   UNL     1     -11.430   7.379  65.115  1.00  0.00     9.725 A  
HETATM   31  O   UNL     1      -9.359   7.397  64.092  1.00  0.00     1.608 OA 
HETATM   32  C   UNL     1     -11.771   6.166  64.502  1.00  0.00     8.028 A  
HETATM   33  C   UNL     1     -13.009   5.574  64.741  1.00  0.00     7.316 A  
HETATM   34  C   UNL     1     -13.915   6.189  65.605  1.00  0.00    12.546 A  
HETATM   35  C   UNL     1     -13.584   7.386  66.221  1.00  0.00    18.598 A  
HETATM   36  C   UNL     1     -12.330   7.981  65.973  1.00  0.00    11.181 A  
HETATM   37  C   UNL     1     -11.986   9.251  66.627  1.00  0.00     5.675 C  
HETATM   38  C   UNL     1     -10.723   9.935  66.283  1.00  0.00     0.013 A  
HETATM   39  O   UNL     1     -12.740   9.747  67.464  1.00  0.00     5.457 OA 
BRANCH  16  40
HETATM   40  C   UNL     1      -7.288  14.951  67.890  1.00  0.00    -0.147 C  
HETATM   41  O   UNL     1      -6.142  15.040  68.339  1.00  0.00    -0.091 OA 
HETATM   42  C   UNL     1      -8.369  15.908  68.347  1.00  0.00    -0.174 C  
ENDBRANCH  16  40
ENDBRANCH  13  14
ENDBRANCH   4  13
TORSDOF 3
ENDMDL
