MODEL        1
REMARK 921   NORMALIZED FREE ENERGY PREDICTED BY IDOCK:   -5.25 KCAL/MOL
REMARK 922        TOTAL FREE ENERGY PREDICTED BY IDOCK:  -11.37 KCAL/MOL
REMARK 923 INTER-LIGAND FREE ENERGY PREDICTED BY IDOCK:   -9.55 KCAL/MOL
REMARK 924 INTRA-LIGAND FREE ENERGY PREDICTED BY IDOCK:   -1.82 KCAL/MOL
REMARK 927      BINDING AFFINITY PREDICTED BY RF-SCORE:    0.00 PKD
ROOT
HETATM    1  C   UNL     1      -9.834   6.708  74.553  1.00  0.00    -0.297 C  
HETATM    2  O   UNL     1      -9.634   6.582  73.152  1.00  0.00    -0.148 OA 
ENDROOT
BRANCH   2   3
HETATM    3  C   UNL     1     -10.427   7.383  72.332  1.00  0.00    -0.233 C  
HETATM    4  C   UNL     1      -9.904   8.527  71.858  1.00  0.00    -0.288 C  
HETATM    5  C   UNL     1     -10.754   9.406  70.999  1.00  0.00    -0.337 C  
HETATM    6  O   UNL     1     -12.298   5.886  72.146  1.00  0.00    -0.182 OA 
HETATM    7  O   UNL     1     -10.293  10.241  70.228  1.00  0.00    -0.245 OA 
HETATM    8  C   UNL     1     -11.851   7.020  72.017  1.00  0.00    -0.298 C  
HETATM    9  C   UNL     1     -12.231   9.267  71.142  1.00  0.00    -0.373 C  
HETATM   10  C   UNL     1     -14.224   7.816  71.705  1.00  0.00    -0.558 C  
HETATM   11  C   UNL     1     -12.756   8.117  71.594  1.00  0.00    -0.343 C  
BRANCH   4  12
HETATM   12  O   UNL     1      -8.584   8.840  72.181  1.00  0.00    -0.355 OA 
HETATM   13  C   UNL     1      -7.569   8.558  71.226  1.00  0.00    -0.101 C  
ENDBRANCH   4  12
BRANCH   9  14
HETATM   14  C   UNL     1     -13.027  10.479  70.771  1.00  0.00    -0.413 C  
BRANCH  14  15
HETATM   15  C   UNL     1     -13.365  11.364  71.973  1.00  0.00    -0.388 C  
BRANCH  15  16
HETATM   16  C   UNL     1     -12.960  12.819  71.736  1.00  0.00    -0.416 C  
BRANCH  16  17
HETATM   17  C   UNL     1     -14.077  13.779  72.130  1.00  0.00    -0.604 C  
BRANCH  17  18
HETATM   18  C   UNL     1     -13.545  15.143  72.527  1.00  0.00    -0.592 C  
BRANCH  18  19
HETATM   19  C   UNL     1     -12.037  15.168  72.317  1.00  0.00    -0.478 C  
BRANCH  19  20
HETATM   20  C   UNL     1     -11.662  16.215  71.284  1.00  0.00    -0.480 C  
BRANCH  20  21
HETATM   21  C   UNL     1     -10.991  15.564  70.084  1.00  0.00    -0.336 C  
BRANCH  21  22
HETATM   22  C   UNL     1     -11.836  15.776  68.837  1.00  0.00    -0.354 C  
BRANCH  22  23
HETATM   23  C   UNL     1     -11.578  14.678  67.813  1.00  0.00    -0.382 C  
BRANCH  23  24
HETATM   24  C   UNL     1     -11.757  13.305  68.445  1.00  0.00    -0.389 C  
BRANCH  24  25
HETATM   25  C   UNL     1     -11.228  12.208  67.535  1.00  0.00    -0.297 C  
HETATM   26  O   UNL     1     -11.997  11.027  67.714  1.00  0.00    -0.661 OA 
HETATM   27  H   UNL     1     -11.666  10.342  67.145  1.00  0.00     0.000 HD 
ENDBRANCH  24  25
ENDBRANCH  23  24
ENDBRANCH  22  23
ENDBRANCH  21  22
ENDBRANCH  20  21
ENDBRANCH  19  20
ENDBRANCH  18  19
ENDBRANCH  17  18
ENDBRANCH  16  17
ENDBRANCH  15  16
ENDBRANCH  14  15
ENDBRANCH   9  14
ENDBRANCH   2   3
TORSDOF 14
ENDMDL
MODEL        2
REMARK 921   NORMALIZED FREE ENERGY PREDICTED BY IDOCK:   -5.25 KCAL/MOL
REMARK 922        TOTAL FREE ENERGY PREDICTED BY IDOCK:  -11.36 KCAL/MOL
REMARK 923 INTER-LIGAND FREE ENERGY PREDICTED BY IDOCK:   -9.04 KCAL/MOL
REMARK 924 INTRA-LIGAND FREE ENERGY PREDICTED BY IDOCK:   -2.33 KCAL/MOL
REMARK 927      BINDING AFFINITY PREDICTED BY RF-SCORE:    0.00 PKD
ROOT
HETATM    1  C   UNL     1      -8.064  18.676  68.531  1.00  0.00    -0.341 C  
HETATM    2  O   UNL     1      -7.965  18.561  67.118  1.00  0.00    -0.235 OA 
ENDROOT
BRANCH   2   3
HETATM    3  C   UNL     1      -8.629  17.486  66.529  1.00  0.00    -0.263 C  
HETATM    4  C   UNL     1      -9.766  17.729  65.853  1.00  0.00    -0.017 C  
HETATM    5  C   UNL     1     -10.498  16.581  65.240  1.00  0.00    -0.213 C  
HETATM    6  O   UNL     1      -6.980  15.803  67.003  1.00  0.00    -0.197 OA 
HETATM    7  O   UNL     1     -11.297  16.708  64.318  1.00  0.00    -1.116 OA 
HETATM    8  C   UNL     1      -8.131  16.076  66.679  1.00  0.00    -0.276 C  
HETATM    9  C   UNL     1     -10.257  15.233  65.829  1.00  0.00    -0.372 C  
HETATM   10  C   UNL     1      -8.709  13.650  67.050  1.00  0.00    -0.204 C  
HETATM   11  C   UNL     1      -9.113  14.982  66.485  1.00  0.00    -0.319 C  
BRANCH   4  12
HETATM   12  O   UNL     1     -10.207  19.048  65.745  1.00  0.00    -0.517 OA 
HETATM   13  C   UNL     1     -11.023  19.576  66.783  1.00  0.00    -0.282 C  
ENDBRANCH   4  12
BRANCH   9  14
HETATM   14  C   UNL     1     -11.368  14.245  65.644  1.00  0.00    -0.317 C  
BRANCH  14  15
HETATM   15  C   UNL     1     -11.294  13.505  64.307  1.00  0.00    -0.402 C  
BRANCH  15  16
HETATM   16  C   UNL     1     -11.472  11.997  64.485  1.00  0.00    -0.385 C  
BRANCH  16  17
HETATM   17  C   UNL     1     -10.131  11.296  64.666  1.00  0.00    -0.343 C  
BRANCH  17  18
HETATM   18  C   UNL     1     -10.238  10.081  65.568  1.00  0.00    -0.248 C  
BRANCH  18  19
HETATM   19  C   UNL     1      -9.867  10.484  66.989  1.00  0.00    -0.223 C  
BRANCH  19  20
HETATM   20  C   UNL     1     -11.034  10.249  67.931  1.00  0.00    -0.350 C  
BRANCH  20  21
HETATM   21  C   UNL     1     -11.897  11.498  68.033  1.00  0.00    -0.287 C  
BRANCH  21  22
HETATM   22  C   UNL     1     -11.478  12.321  69.241  1.00  0.00    -0.352 C  
BRANCH  22  23
HETATM   23  C   UNL     1     -12.121  13.702  69.205  1.00  0.00    -0.360 C  
BRANCH  23  24
HETATM   24  C   UNL     1     -11.138  14.763  69.680  1.00  0.00    -0.299 C  
BRANCH  24  25
HETATM   25  C   UNL     1     -11.816  15.768  70.597  1.00  0.00    -0.385 C  
HETATM   26  O   UNL     1     -13.219  15.741  70.380  1.00  0.00    -0.731 OA 
HETATM   27  H   UNL     1     -13.644  16.369  70.953  1.00  0.00     0.000 HD 
ENDBRANCH  24  25
ENDBRANCH  23  24
ENDBRANCH  22  23
ENDBRANCH  21  22
ENDBRANCH  20  21
ENDBRANCH  19  20
ENDBRANCH  18  19
ENDBRANCH  17  18
ENDBRANCH  16  17
ENDBRANCH  15  16
ENDBRANCH  14  15
ENDBRANCH   9  14
ENDBRANCH   2   3
TORSDOF 14
ENDMDL
MODEL        3
REMARK 921   NORMALIZED FREE ENERGY PREDICTED BY IDOCK:   -5.23 KCAL/MOL
REMARK 922        TOTAL FREE ENERGY PREDICTED BY IDOCK:  -11.33 KCAL/MOL
REMARK 923 INTER-LIGAND FREE ENERGY PREDICTED BY IDOCK:   -9.85 KCAL/MOL
REMARK 924 INTRA-LIGAND FREE ENERGY PREDICTED BY IDOCK:   -1.47 KCAL/MOL
REMARK 927      BINDING AFFINITY PREDICTED BY RF-SCORE:    0.00 PKD
ROOT
HETATM    1  C   UNL     1     -10.322  16.031  69.506  1.00  0.00    -0.278 C  
HETATM    2  O   UNL     1     -11.732  15.858  69.451  1.00  0.00    -0.358 OA 
ENDROOT
BRANCH   2   3
HETATM    3  C   UNL     1     -12.232  14.647  69.928  1.00  0.00    -0.316 C  
HETATM    4  C   UNL     1     -12.841  14.636  71.127  1.00  0.00    -0.343 C  
HETATM    5  C   UNL     1     -13.359  13.340  71.659  1.00  0.00    -0.322 C  
HETATM    6  O   UNL     1     -11.800  13.333  67.964  1.00  0.00    -0.340 OA 
HETATM    7  O   UNL     1     -14.231  13.267  72.518  1.00  0.00    -0.697 OA 
HETATM    8  C   UNL     1     -12.059  13.367  69.161  1.00  0.00    -0.261 C  
HETATM    9  C   UNL     1     -12.734  12.094  71.131  1.00  0.00    -0.351 C  
HETATM   10  C   UNL     1     -11.555  10.897  69.242  1.00  0.00    -0.388 C  
HETATM   11  C   UNL     1     -12.145  12.098  69.925  1.00  0.00    -0.324 C  
BRANCH   4  12
HETATM   12  O   UNL     1     -12.973  15.840  71.818  1.00  0.00    -0.448 OA 
HETATM   13  C   UNL     1     -12.066  16.114  72.879  1.00  0.00    -0.541 C  
ENDBRANCH   4  12
BRANCH   9  14
HETATM   14  C   UNL     1     -12.806  10.906  72.040  1.00  0.00    -0.322 C  
BRANCH  14  15
HETATM   15  C   UNL     1     -13.657   9.768  71.471  1.00  0.00    -0.351 C  
BRANCH  15  16
HETATM   16  C   UNL     1     -13.329   8.431  72.135  1.00  0.00    -0.341 C  
BRANCH  16  17
HETATM   17  C   UNL     1     -11.851   8.336  72.497  1.00  0.00    -0.439 C  
BRANCH  17  18
HETATM   18  C   UNL     1     -11.011   7.827  71.341  1.00  0.00    -0.264 C  
BRANCH  18  19
HETATM   19  C   UNL     1     -11.514   6.449  70.931  1.00  0.00    -0.406 C  
BRANCH  19  20
HETATM   20  C   UNL     1     -11.371   6.256  69.432  1.00  0.00    -0.448 C  
BRANCH  20  21
HETATM   21  C   UNL     1     -10.385   7.261  68.857  1.00  0.00    -0.207 C  
BRANCH  21  22
HETATM   22  C   UNL     1     -10.473   7.265  67.338  1.00  0.00    -0.359 C  
BRANCH  22  23
HETATM   23  C   UNL     1     -10.916   5.904  66.817  1.00  0.00    -0.280 C  
BRANCH  23  24
HETATM   24  C   UNL     1      -9.713   5.083  66.374  1.00  0.00    -0.194 C  
BRANCH  24  25
HETATM   25  C   UNL     1     -10.088   4.119  65.260  1.00  0.00    -0.202 C  
HETATM   26  O   UNL     1     -11.426   4.361  64.849  1.00  0.00    -1.070 OA 
HETATM   27  H   UNL     1     -11.660   3.759  64.152  1.00  0.00     0.000 HD 
ENDBRANCH  24  25
ENDBRANCH  23  24
ENDBRANCH  22  23
ENDBRANCH  21  22
ENDBRANCH  20  21
ENDBRANCH  19  20
ENDBRANCH  18  19
ENDBRANCH  17  18
ENDBRANCH  16  17
ENDBRANCH  15  16
ENDBRANCH  14  15
ENDBRANCH   9  14
ENDBRANCH   2   3
TORSDOF 14
ENDMDL
MODEL        4
REMARK 921   NORMALIZED FREE ENERGY PREDICTED BY IDOCK:   -5.19 KCAL/MOL
REMARK 922        TOTAL FREE ENERGY PREDICTED BY IDOCK:  -11.25 KCAL/MOL
REMARK 923 INTER-LIGAND FREE ENERGY PREDICTED BY IDOCK:   -9.77 KCAL/MOL
REMARK 924 INTRA-LIGAND FREE ENERGY PREDICTED BY IDOCK:   -1.48 KCAL/MOL
REMARK 927      BINDING AFFINITY PREDICTED BY RF-SCORE:    0.00 PKD
ROOT
HETATM    1  C   UNL     1     -13.133  13.387  65.066  1.00  0.00     0.012 C  
HETATM    2  O   UNL     1     -11.937  13.698  64.363  1.00  0.00    -0.400 OA 
ENDROOT
BRANCH   2   3
HETATM    3  C   UNL     1     -11.001  14.481  65.037  1.00  0.00    -0.398 C  
HETATM    4  C   UNL     1     -10.159  13.875  65.893  1.00  0.00    -0.317 C  
HETATM    5  C   UNL     1      -9.169  14.709  66.639  1.00  0.00    -0.267 C  
HETATM    6  O   UNL     1     -11.456  16.553  63.909  1.00  0.00    -1.145 OA 
HETATM    7  O   UNL     1      -8.143  14.252  67.133  1.00  0.00    -0.188 OA 
HETATM    8  C   UNL     1     -10.952  15.973  64.864  1.00  0.00    -0.384 C  
HETATM    9  C   UNL     1      -9.494  16.153  66.813  1.00  0.00    -0.256 C  
HETATM   10  C   UNL     1     -10.659  18.227  65.956  1.00  0.00    -0.318 C  
HETATM   11  C   UNL     1     -10.317  16.764  65.946  1.00  0.00    -0.341 C  
BRANCH   4  12
HETATM   12  O   UNL     1     -10.241  12.491  66.040  1.00  0.00    -0.242 OA 
HETATM   13  C   UNL     1      -9.523  11.670  65.126  1.00  0.00    -0.133 C  
ENDBRANCH   4  12
BRANCH   9  14
HETATM   14  C   UNL     1      -8.863  16.814  67.999  1.00  0.00    -0.216 C  
BRANCH  14  15
HETATM   15  C   UNL     1      -9.851  17.062  69.141  1.00  0.00    -0.198 C  
BRANCH  15  16
HETATM   16  C   UNL     1     -10.668  15.811  69.465  1.00  0.00    -0.278 C  
BRANCH  16  17
HETATM   17  C   UNL     1     -11.512  16.006  70.719  1.00  0.00    -0.444 C  
BRANCH  17  18
HETATM   18  C   UNL     1     -12.869  15.336  70.604  1.00  0.00    -0.462 C  
BRANCH  18  19
HETATM   19  C   UNL     1     -13.543  15.346  71.970  1.00  0.00    -0.588 C  
BRANCH  19  20
HETATM   20  C   UNL     1     -13.892  13.933  72.401  1.00  0.00    -0.668 C  
BRANCH  20  21
HETATM   21  C   UNL     1     -12.818  12.957  71.945  1.00  0.00    -0.315 C  
BRANCH  21  22
HETATM   22  C   UNL     1     -13.392  11.550  71.873  1.00  0.00    -0.408 C  
BRANCH  22  23
HETATM   23  C   UNL     1     -12.527  10.656  70.993  1.00  0.00    -0.515 C  
BRANCH  23  24
HETATM   24  C   UNL     1     -11.761  11.488  69.975  1.00  0.00    -0.414 C  
BRANCH  24  25
HETATM   25  C   UNL     1     -11.206  10.616  68.860  1.00  0.00    -0.275 C  
HETATM   26  O   UNL     1     -11.967  10.813  67.677  1.00  0.00    -0.616 OA 
HETATM   27  H   UNL     1     -11.621  10.269  66.980  1.00  0.00     0.000 HD 
ENDBRANCH  24  25
ENDBRANCH  23  24
ENDBRANCH  22  23
ENDBRANCH  21  22
ENDBRANCH  20  21
ENDBRANCH  19  20
ENDBRANCH  18  19
ENDBRANCH  17  18
ENDBRANCH  16  17
ENDBRANCH  15  16
ENDBRANCH  14  15
ENDBRANCH   9  14
ENDBRANCH   2   3
TORSDOF 14
ENDMDL
MODEL        5
REMARK 921   NORMALIZED FREE ENERGY PREDICTED BY IDOCK:   -5.18 KCAL/MOL
REMARK 922        TOTAL FREE ENERGY PREDICTED BY IDOCK:  -11.25 KCAL/MOL
REMARK 923 INTER-LIGAND FREE ENERGY PREDICTED BY IDOCK:   -9.82 KCAL/MOL
REMARK 924 INTRA-LIGAND FREE ENERGY PREDICTED BY IDOCK:   -1.43 KCAL/MOL
REMARK 927      BINDING AFFINITY PREDICTED BY RF-SCORE:    0.00 PKD
ROOT
HETATM    1  C   UNL     1      -7.228   9.320  69.961  1.00  0.00    -0.078 C  
HETATM    2  O   UNL     1      -8.241   9.006  69.015  1.00  0.00    -0.114 OA 
ENDROOT
BRANCH   2   3
HETATM    3  C   UNL     1      -9.554   9.282  69.390  1.00  0.00    -0.168 C  
HETATM    4  C   UNL     1     -10.170  10.338  68.830  1.00  0.00    -0.192 C  
HETATM    5  C   UNL     1     -11.570  10.658  69.243  1.00  0.00    -0.275 C  
HETATM    6  O   UNL     1      -9.905   7.339  70.759  1.00  0.00    -0.179 OA 
HETATM    7  O   UNL     1     -12.336  11.327  68.558  1.00  0.00    -0.543 OA 
HETATM    8  C   UNL     1     -10.265   8.464  70.431  1.00  0.00    -0.197 C  
HETATM    9  C   UNL     1     -12.011  10.163  70.578  1.00  0.00    -0.400 C  
HETATM   10  C   UNL     1     -11.813   8.444  72.422  1.00  0.00    -0.452 C  
HETATM   11  C   UNL     1     -11.412   9.095  71.128  1.00  0.00    -0.388 C  
BRANCH   4  12
HETATM   12  O   UNL     1      -9.477  11.084  67.877  1.00  0.00    -0.159 OA 
HETATM   13  C   UNL     1      -9.744  10.840  66.501  1.00  0.00    -0.196 C  
ENDBRANCH   4  12
BRANCH   9  14
HETATM   14  C   UNL     1     -13.115  10.945  71.219  1.00  0.00    -0.405 C  
BRANCH  14  15
HETATM   15  C   UNL     1     -12.678  12.343  71.663  1.00  0.00    -0.299 C  
BRANCH  15  16
HETATM   16  C   UNL     1     -13.812  13.095  72.359  1.00  0.00    -0.583 C  
BRANCH  16  17
HETATM   17  C   UNL     1     -13.526  14.591  72.431  1.00  0.00    -0.543 C  
BRANCH  17  18
HETATM   18  C   UNL     1     -13.177  15.173  71.074  1.00  0.00    -0.510 C  
BRANCH  18  19
HETATM   19  C   UNL     1     -11.822  15.864  71.166  1.00  0.00    -0.483 C  
BRANCH  19  20
HETATM   20  C   UNL     1     -11.147  15.891  69.806  1.00  0.00    -0.324 C  
BRANCH  20  21
HETATM   21  C   UNL     1     -11.643  14.742  68.942  1.00  0.00    -0.340 C  
BRANCH  21  22
HETATM   22  C   UNL     1     -11.303  15.005  67.482  1.00  0.00    -0.340 C  
BRANCH  22  23
HETATM   23  C   UNL     1     -10.429  16.245  67.344  1.00  0.00    -0.304 C  
BRANCH  23  24
HETATM   24  C   UNL     1     -10.197  16.575  65.876  1.00  0.00    -0.368 C  
BRANCH  24  25
HETATM   25  C   UNL     1     -11.133  15.780  64.981  1.00  0.00    -0.370 C  
HETATM   26  O   UNL     1     -11.507  16.570  63.861  1.00  0.00    -1.608 OA 
HETATM   27  H   UNL     1     -12.092  16.073  63.301  1.00  0.00     0.000 HD 
ENDBRANCH  24  25
ENDBRANCH  23  24
ENDBRANCH  22  23
ENDBRANCH  21  22
ENDBRANCH  20  21
ENDBRANCH  19  20
ENDBRANCH  18  19
ENDBRANCH  17  18
ENDBRANCH  16  17
ENDBRANCH  15  16
ENDBRANCH  14  15
ENDBRANCH   9  14
ENDBRANCH   2   3
TORSDOF 14
ENDMDL
MODEL        6
REMARK 921   NORMALIZED FREE ENERGY PREDICTED BY IDOCK:   -5.17 KCAL/MOL
REMARK 922        TOTAL FREE ENERGY PREDICTED BY IDOCK:  -11.23 KCAL/MOL
REMARK 923 INTER-LIGAND FREE ENERGY PREDICTED BY IDOCK:   -9.14 KCAL/MOL
REMARK 924 INTRA-LIGAND FREE ENERGY PREDICTED BY IDOCK:   -2.09 KCAL/MOL
REMARK 927      BINDING AFFINITY PREDICTED BY RF-SCORE:    0.00 PKD
ROOT
HETATM    1  C   UNL     1     -11.695   7.760  70.981  1.00  0.00    -0.281 C  
HETATM    2  O   UNL     1     -10.949   8.936  71.262  1.00  0.00    -0.247 OA 
ENDROOT
BRANCH   2   3
HETATM    3  C   UNL     1     -11.438  10.129  70.732  1.00  0.00    -0.357 C  
HETATM    4  C   UNL     1     -10.849  10.626  69.630  1.00  0.00    -0.268 C  
HETATM    5  C   UNL     1     -11.350  11.917  69.067  1.00  0.00    -0.279 C  
HETATM    6  O   UNL     1     -13.333  10.367  72.190  1.00  0.00    -0.441 OA 
HETATM    7  O   UNL     1     -11.162  12.261  67.905  1.00  0.00    -0.239 OA 
HETATM    8  C   UNL     1     -12.560  10.881  71.389  1.00  0.00    -0.403 C  
HETATM    9  C   UNL     1     -12.070  12.828  70.001  1.00  0.00    -0.355 C  
HETATM   10  C   UNL     1     -13.505  13.120  72.062  1.00  0.00    -0.598 C  
HETATM   11  C   UNL     1     -12.677  12.330  71.089  1.00  0.00    -0.340 C  
BRANCH   4  12
HETATM   12  O   UNL     1      -9.802   9.909  69.053  1.00  0.00    -0.173 OA 
HETATM   13  C   UNL     1     -10.077   9.112  67.907  1.00  0.00    -0.199 C  
ENDBRANCH   4  12
BRANCH   9  14
HETATM   14  C   UNL     1     -12.034  14.279  69.635  1.00  0.00    -0.387 C  
BRANCH  14  15
HETATM   15  C   UNL     1     -10.912  15.046  70.339  1.00  0.00    -0.222 C  
BRANCH  15  16
HETATM   16  C   UNL     1      -9.804  15.446  69.365  1.00  0.00    -0.273 C  
BRANCH  16  17
HETATM   17  C   UNL     1     -10.369  15.810  67.997  1.00  0.00    -0.252 C  
BRANCH  17  18
HETATM   18  C   UNL     1      -9.354  15.608  66.887  1.00  0.00    -0.252 C  
BRANCH  18  19
HETATM   19  C   UNL     1     -10.088  15.233  65.606  1.00  0.00    -0.401 C  
BRANCH  19  20
HETATM   20  C   UNL     1     -11.501  14.775  65.919  1.00  0.00    -0.319 C  
BRANCH  20  21
HETATM   21  C   UNL     1     -12.205  14.313  64.652  1.00  0.00    -0.470 C  
BRANCH  21  22
HETATM   22  C   UNL     1     -12.530  12.830  64.748  1.00  0.00    -0.539 C  
BRANCH  22  23
HETATM   23  C   UNL     1     -12.059  12.089  63.504  1.00  0.00    -0.628 C  
BRANCH  23  24
HETATM   24  C   UNL     1     -10.540  11.984  63.487  1.00  0.00    -0.514 C  
BRANCH  24  25
HETATM   25  C   UNL     1     -10.038  11.114  64.628  1.00  0.00    -0.302 C  
HETATM   26  O   UNL     1      -9.237  11.893  65.505  1.00  0.00    -0.403 OA 
HETATM   27  H   UNL     1      -8.924  11.349  66.219  1.00  0.00     0.000 HD 
ENDBRANCH  24  25
ENDBRANCH  23  24
ENDBRANCH  22  23
ENDBRANCH  21  22
ENDBRANCH  20  21
ENDBRANCH  19  20
ENDBRANCH  18  19
ENDBRANCH  17  18
ENDBRANCH  16  17
ENDBRANCH  15  16
ENDBRANCH  14  15
ENDBRANCH   9  14
ENDBRANCH   2   3
TORSDOF 14
ENDMDL
MODEL        7
REMARK 921   NORMALIZED FREE ENERGY PREDICTED BY IDOCK:   -5.16 KCAL/MOL
REMARK 922        TOTAL FREE ENERGY PREDICTED BY IDOCK:  -11.21 KCAL/MOL
REMARK 923 INTER-LIGAND FREE ENERGY PREDICTED BY IDOCK:   -9.33 KCAL/MOL
REMARK 924 INTRA-LIGAND FREE ENERGY PREDICTED BY IDOCK:   -1.88 KCAL/MOL
REMARK 927      BINDING AFFINITY PREDICTED BY RF-SCORE:    0.00 PKD
ROOT
HETATM    1  C   UNL     1     -10.997  15.596  64.765  1.00  0.00    -0.400 C  
HETATM    2  O   UNL     1     -12.106  14.727  64.953  1.00  0.00    -0.384 OA 
ENDROOT
BRANCH   2   3
HETATM    3  C   UNL     1     -11.822  13.438  65.402  1.00  0.00    -0.353 C  
HETATM    4  C   UNL     1     -11.944  13.179  66.716  1.00  0.00    -0.373 C  
HETATM    5  C   UNL     1     -11.618  11.808  67.212  1.00  0.00    -0.269 C  
HETATM    6  O   UNL     1     -11.490  12.422  63.250  1.00  0.00    -0.441 OA 
HETATM    7  O   UNL     1     -12.038  11.360  68.274  1.00  0.00    -0.606 OA 
HETATM    8  C   UNL     1     -11.341  12.366  64.466  1.00  0.00    -0.328 C  
HETATM    9  C   UNL     1     -10.700  10.986  66.374  1.00  0.00    -0.286 C  
HETATM   10  C   UNL     1      -9.775  10.426  64.088  1.00  0.00    -0.387 C  
HETATM   11  C   UNL     1     -10.595  11.229  65.058  1.00  0.00    -0.353 C  
BRANCH   4  12
HETATM   12  O   UNL     1     -12.380  14.200  67.559  1.00  0.00    -0.296 OA 
HETATM   13  C   UNL     1     -11.438  14.799  68.441  1.00  0.00    -0.314 C  
ENDBRANCH   4  12
BRANCH   9  14
HETATM   14  C   UNL     1      -9.933   9.931  67.109  1.00  0.00    -0.252 C  
BRANCH  14  15
HETATM   15  C   UNL     1     -10.618   8.563  67.081  1.00  0.00    -0.314 C  
BRANCH  15  16
HETATM   16  C   UNL     1      -9.633   7.443  66.751  1.00  0.00    -0.249 C  
BRANCH  16  17
HETATM   17  C   UNL     1      -8.602   7.262  67.859  1.00  0.00    -0.120 C  
BRANCH  17  18
HETATM   18  C   UNL     1      -8.680   5.886  68.494  1.00  0.00    -0.112 C  
BRANCH  18  19
HETATM   19  C   UNL     1      -9.321   6.010  69.870  1.00  0.00    -0.165 C  
BRANCH  19  20
HETATM   20  C   UNL     1     -10.810   5.731  69.789  1.00  0.00    -0.419 C  
BRANCH  20  21
HETATM   21  C   UNL     1     -11.602   6.876  70.403  1.00  0.00    -0.385 C  
BRANCH  21  22
HETATM   22  C   UNL     1     -10.660   7.998  70.813  1.00  0.00    -0.228 C  
BRANCH  22  23
HETATM   23  C   UNL     1     -11.267   8.834  71.932  1.00  0.00    -0.438 C  
BRANCH  23  24
HETATM   24  C   UNL     1     -12.257   9.844  71.368  1.00  0.00    -0.499 C  
BRANCH  24  25
HETATM   25  C   UNL     1     -13.622   9.699  72.022  1.00  0.00    -0.385 C  
HETATM   26  O   UNL     1     -13.518   8.856  73.161  1.00  0.00    -0.968 OA 
HETATM   27  H   UNL     1     -14.370   8.766  73.571  1.00  0.00     0.000 HD 
ENDBRANCH  24  25
ENDBRANCH  23  24
ENDBRANCH  22  23
ENDBRANCH  21  22
ENDBRANCH  20  21
ENDBRANCH  19  20
ENDBRANCH  18  19
ENDBRANCH  17  18
ENDBRANCH  16  17
ENDBRANCH  15  16
ENDBRANCH  14  15
ENDBRANCH   9  14
ENDBRANCH   2   3
TORSDOF 14
ENDMDL
MODEL        8
REMARK 921   NORMALIZED FREE ENERGY PREDICTED BY IDOCK:   -5.16 KCAL/MOL
REMARK 922        TOTAL FREE ENERGY PREDICTED BY IDOCK:  -11.21 KCAL/MOL
REMARK 923 INTER-LIGAND FREE ENERGY PREDICTED BY IDOCK:   -9.38 KCAL/MOL
REMARK 924 INTRA-LIGAND FREE ENERGY PREDICTED BY IDOCK:   -1.83 KCAL/MOL
REMARK 927      BINDING AFFINITY PREDICTED BY RF-SCORE:    0.00 PKD
ROOT
HETATM    1  C   UNL     1     -10.791   7.618  73.176  1.00  0.00    -0.382 C  
HETATM    2  O   UNL     1     -11.659   7.433  72.066  1.00  0.00    -0.268 OA 
ENDROOT
BRANCH   2   3
HETATM    3  C   UNL     1     -11.688   8.455  71.118  1.00  0.00    -0.280 C  
HETATM    4  C   UNL     1     -10.958   8.308  69.998  1.00  0.00    -0.197 C  
HETATM    5  C   UNL     1     -10.962   9.407  68.986  1.00  0.00    -0.067 C  
HETATM    6  O   UNL     1     -13.374   9.808  72.166  1.00  0.00    -0.434 OA 
HETATM    7  O   UNL     1     -10.661   9.239  67.809  1.00  0.00    -0.259 OA 
HETATM    8  C   UNL     1     -12.467   9.719  71.346  1.00  0.00    -0.387 C  
HETATM    9  C   UNL     1     -11.310  10.772  69.473  1.00  0.00    -0.355 C  
HETATM   10  C   UNL     1     -12.548  12.230  71.127  1.00  0.00    -0.353 C  
HETATM   11  C   UNL     1     -12.057  10.921  70.578  1.00  0.00    -0.464 C  
BRANCH   4  12
HETATM   12  O   UNL     1     -10.236   7.127  69.824  1.00  0.00    -0.198 OA 
HETATM   13  C   UNL     1     -10.872   6.035  69.171  1.00  0.00    -0.352 C  
ENDBRANCH   4  12
BRANCH   9  14
HETATM   14  C   UNL     1     -10.755  11.903  68.662  1.00  0.00    -0.266 C  
BRANCH  14  15
HETATM   15  C   UNL     1     -11.778  12.502  67.694  1.00  0.00    -0.423 C  
BRANCH  15  16
HETATM   16  C   UNL     1     -11.231  12.577  66.269  1.00  0.00    -0.359 C  
BRANCH  16  17
HETATM   17  C   UNL     1      -9.899  13.318  66.221  1.00  0.00    -0.288 C  
BRANCH  17  18
HETATM   18  C   UNL     1     -10.047  14.726  65.677  1.00  0.00    -0.393 C  
BRANCH  18  19
HETATM   19  C   UNL     1      -9.252  15.683  66.557  1.00  0.00    -0.325 C  
BRANCH  19  20
HETATM   20  C   UNL     1      -9.666  15.537  68.009  1.00  0.00    -0.207 C  
BRANCH  20  21
HETATM   21  C   UNL     1     -10.932  16.335  68.286  1.00  0.00    -0.348 C  
BRANCH  21  22
HETATM   22  C   UNL     1     -11.779  15.620  69.328  1.00  0.00    -0.388 C  
BRANCH  22  23
HETATM   23  C   UNL     1     -11.411  16.079  70.733  1.00  0.00    -0.427 C  
BRANCH  23  24
HETATM   24  C   UNL     1     -12.567  15.841  71.694  1.00  0.00    -0.521 C  
BRANCH  24  25
HETATM   25  C   UNL     1     -12.141  16.077  73.134  1.00  0.00    -0.511 C  
HETATM   26  O   UNL     1     -13.289  16.133  73.968  1.00  0.00    -0.930 OA 
HETATM   27  H   UNL     1     -13.023  16.281  74.868  1.00  0.00     0.000 HD 
ENDBRANCH  24  25
ENDBRANCH  23  24
ENDBRANCH  22  23
ENDBRANCH  21  22
ENDBRANCH  20  21
ENDBRANCH  19  20
ENDBRANCH  18  19
ENDBRANCH  17  18
ENDBRANCH  16  17
ENDBRANCH  15  16
ENDBRANCH  14  15
ENDBRANCH   9  14
ENDBRANCH   2   3
TORSDOF 14
ENDMDL
MODEL        9
REMARK 921   NORMALIZED FREE ENERGY PREDICTED BY IDOCK:   -5.15 KCAL/MOL
REMARK 922        TOTAL FREE ENERGY PREDICTED BY IDOCK:  -11.18 KCAL/MOL
REMARK 923 INTER-LIGAND FREE ENERGY PREDICTED BY IDOCK:   -9.04 KCAL/MOL
REMARK 924 INTRA-LIGAND FREE ENERGY PREDICTED BY IDOCK:   -2.15 KCAL/MOL
REMARK 927      BINDING AFFINITY PREDICTED BY RF-SCORE:    0.00 PKD
ROOT
HETATM    1  C   UNL     1     -10.437  16.181  69.591  1.00  0.00    -0.291 C  
HETATM    2  O   UNL     1     -11.834  15.929  69.529  1.00  0.00    -0.345 OA 
ENDROOT
BRANCH   2   3
HETATM    3  C   UNL     1     -12.259  14.663  69.926  1.00  0.00    -0.316 C  
HETATM    4  C   UNL     1     -12.825  14.531  71.140  1.00  0.00    -0.338 C  
HETATM    5  C   UNL     1     -13.262  13.174  71.586  1.00  0.00    -0.346 C  
HETATM    6  O   UNL     1     -11.836  13.524  67.854  1.00  0.00    -0.339 OA 
HETATM    7  O   UNL     1     -14.098  12.992  72.465  1.00  0.00    -0.621 OA 
HETATM    8  C   UNL     1     -12.053  13.454  69.058  1.00  0.00    -0.259 C  
HETATM    9  C   UNL     1     -12.597  12.004  70.944  1.00  0.00    -0.347 C  
HETATM   10  C   UNL     1     -11.430  11.014  68.932  1.00  0.00    -0.364 C  
HETATM   11  C   UNL     1     -12.052  12.128  69.724  1.00  0.00    -0.306 C  
BRANCH   4  12
HETATM   12  O   UNL     1     -12.989  15.671  71.926  1.00  0.00    -0.417 OA 
HETATM   13  C   UNL     1     -12.242  15.775  73.131  1.00  0.00    -0.500 C  
ENDBRANCH   4  12
BRANCH   9  14
HETATM   14  C   UNL     1     -12.581  10.749  71.761  1.00  0.00    -0.382 C  
BRANCH  14  15
HETATM   15  C   UNL     1     -13.673   9.757  71.355  1.00  0.00    -0.241 C  
BRANCH  15  16
HETATM   16  C   UNL     1     -13.604   8.471  72.179  1.00  0.00    -0.402 C  
BRANCH  16  17
HETATM   17  C   UNL     1     -13.029   7.318  71.365  1.00  0.00    -0.420 C  
BRANCH  17  18
HETATM   18  C   UNL     1     -11.974   6.545  72.134  1.00  0.00    -0.334 C  
BRANCH  18  19
HETATM   19  C   UNL     1     -11.098   7.528  72.900  1.00  0.00    -0.426 C  
BRANCH  19  20
HETATM   20  C   UNL     1      -9.714   7.599  72.281  1.00  0.00    -0.226 C  
BRANCH  20  21
HETATM   21  C   UNL     1      -9.604   8.803  71.357  1.00  0.00    -0.337 C  
BRANCH  21  22
HETATM   22  C   UNL     1      -9.500   8.341  69.911  1.00  0.00    -0.167 C  
BRANCH  22  23
HETATM   23  C   UNL     1      -9.200   6.849  69.839  1.00  0.00    -0.147 C  
BRANCH  23  24
HETATM   24  C   UNL     1     -10.026   6.190  68.743  1.00  0.00    -0.175 C  
BRANCH  24  25
HETATM   25  C   UNL     1     -10.402   7.191  67.662  1.00  0.00    -0.215 C  
HETATM   26  O   UNL     1     -11.440   6.654  66.855  1.00  0.00    -0.777 OA 
HETATM   27  H   UNL     1     -11.675   7.280  66.180  1.00  0.00     0.000 HD 
ENDBRANCH  24  25
ENDBRANCH  23  24
ENDBRANCH  22  23
ENDBRANCH  21  22
ENDBRANCH  20  21
ENDBRANCH  19  20
ENDBRANCH  18  19
ENDBRANCH  17  18
ENDBRANCH  16  17
ENDBRANCH  15  16
ENDBRANCH  14  15
ENDBRANCH   9  14
ENDBRANCH   2   3
TORSDOF 14
ENDMDL
MODEL       10
REMARK 921   NORMALIZED FREE ENERGY PREDICTED BY IDOCK:   -5.12 KCAL/MOL
REMARK 922        TOTAL FREE ENERGY PREDICTED BY IDOCK:  -11.14 KCAL/MOL
REMARK 923 INTER-LIGAND FREE ENERGY PREDICTED BY IDOCK:   -9.17 KCAL/MOL
REMARK 924 INTRA-LIGAND FREE ENERGY PREDICTED BY IDOCK:   -1.97 KCAL/MOL
REMARK 927      BINDING AFFINITY PREDICTED BY RF-SCORE:    0.00 PKD
ROOT
HETATM    1  C   UNL     1     -12.134   8.048  72.510  1.00  0.00    -0.284 C  
HETATM    2  O   UNL     1     -11.086   8.896  72.057  1.00  0.00    -0.356 OA 
ENDROOT
BRANCH   2   3
HETATM    3  C   UNL     1     -11.205   9.400  70.764  1.00  0.00    -0.302 C  
HETATM    4  C   UNL     1     -10.701   8.677  69.748  1.00  0.00    -0.215 C  
HETATM    5  C   UNL     1     -10.801   9.219  68.359  1.00  0.00    -0.076 C  
HETATM    6  O   UNL     1     -12.564  11.309  71.294  1.00  0.00    -0.387 OA 
HETATM    7  O   UNL     1     -10.730   8.517  67.356  1.00  0.00    -0.264 OA 
HETATM    8  C   UNL     1     -11.829  10.740  70.494  1.00  0.00    -0.356 C  
HETATM    9  C   UNL     1     -10.948  10.696  68.219  1.00  0.00    -0.314 C  
HETATM   10  C   UNL     1     -11.751  12.892  69.181  1.00  0.00    -0.376 C  
HETATM   11  C   UNL     1     -11.470  11.417  69.223  1.00  0.00    -0.370 C  
BRANCH   4  12
HETATM   12  O   UNL     1     -10.117   7.443  70.034  1.00  0.00    -0.187 OA 
HETATM   13  C   UNL     1     -10.817   6.261  69.665  1.00  0.00    -0.339 C  
ENDBRANCH   4  12
BRANCH   9  14
HETATM   14  C   UNL     1     -10.461  11.268  66.924  1.00  0.00    -0.286 C  
BRANCH  14  15
HETATM   15  C   UNL     1      -8.944  11.463  66.888  1.00  0.00    -0.171 C  
BRANCH  15  16
HETATM   16  C   UNL     1      -8.286  10.593  65.818  1.00  0.00    -0.162 C  
BRANCH  16  17
HETATM   17  C   UNL     1      -9.299  10.129  64.778  1.00  0.00    -0.324 C  
BRANCH  17  18
HETATM   18  C   UNL     1      -8.978  10.655  63.391  1.00  0.00    -0.226 C  
BRANCH  18  19
HETATM   19  C   UNL     1      -9.861  11.862  63.102  1.00  0.00    -0.279 C  
BRANCH  19  20
HETATM   20  C   UNL     1     -11.320  11.522  63.341  1.00  0.00    -0.303 C  
BRANCH  20  21
HETATM   21  C   UNL     1     -12.148  12.792  63.479  1.00  0.00    -0.642 C  
BRANCH  21  22
HETATM   22  C   UNL     1     -12.561  12.988  64.930  1.00  0.00    -0.490 C  
BRANCH  22  23
HETATM   23  C   UNL     1     -12.597  14.468  65.288  1.00  0.00    -0.240 C  
BRANCH  23  24
HETATM   24  C   UNL     1     -11.266  14.907  65.882  1.00  0.00    -0.328 C  
BRANCH  24  25
HETATM   25  C   UNL     1     -10.665  16.058  65.092  1.00  0.00    -0.409 C  
HETATM   26  O   UNL     1     -11.468  16.323  63.950  1.00  0.00    -1.484 OA 
HETATM   27  H   UNL     1     -11.093  17.043  63.456  1.00  0.00     0.000 HD 
ENDBRANCH  24  25
ENDBRANCH  23  24
ENDBRANCH  22  23
ENDBRANCH  21  22
ENDBRANCH  20  21
ENDBRANCH  19  20
ENDBRANCH  18  19
ENDBRANCH  17  18
ENDBRANCH  16  17
ENDBRANCH  15  16
ENDBRANCH  14  15
ENDBRANCH   9  14
ENDBRANCH   2   3
TORSDOF 14
ENDMDL
MODEL       11
REMARK 921   NORMALIZED FREE ENERGY PREDICTED BY IDOCK:   -5.12 KCAL/MOL
REMARK 922        TOTAL FREE ENERGY PREDICTED BY IDOCK:  -11.12 KCAL/MOL
REMARK 923 INTER-LIGAND FREE ENERGY PREDICTED BY IDOCK:   -9.06 KCAL/MOL
REMARK 924 INTRA-LIGAND FREE ENERGY PREDICTED BY IDOCK:   -2.06 KCAL/MOL
REMARK 927      BINDING AFFINITY PREDICTED BY RF-SCORE:    0.00 PKD
ROOT
HETATM    1  C   UNL     1     -10.539  16.181  69.747  1.00  0.00    -0.312 C  
HETATM    2  O   UNL     1     -11.893  15.777  69.903  1.00  0.00    -0.342 OA 
ENDROOT
BRANCH   2   3
HETATM    3  C   UNL     1     -12.144  14.407  69.870  1.00  0.00    -0.344 C  
HETATM    4  C   UNL     1     -12.404  13.777  71.030  1.00  0.00    -0.372 C  
HETATM    5  C   UNL     1     -12.650  12.304  71.009  1.00  0.00    -0.257 C  
HETATM    6  O   UNL     1     -12.151  14.145  67.481  1.00  0.00    -0.395 OA 
HETATM    7  O   UNL     1     -13.249  11.710  71.900  1.00  0.00    -0.485 OA 
HETATM    8  C   UNL     1     -12.079  13.624  68.589  1.00  0.00    -0.290 C  
HETATM    9  C   UNL     1     -12.090  11.540  69.859  1.00  0.00    -0.389 C  
HETATM   10  C   UNL     1     -11.369  11.497  67.435  1.00  0.00    -0.367 C  
HETATM   11  C   UNL     1     -11.850  12.162  68.694  1.00  0.00    -0.358 C  
BRANCH   4  12
HETATM   12  O   UNL     1     -12.444  14.531  72.202  1.00  0.00    -0.326 OA 
HETATM   13  C   UNL     1     -13.692  15.072  72.617  1.00  0.00    -0.456 C  
ENDBRANCH   4  12
BRANCH   9  14
HETATM   14  C   UNL     1     -11.815  10.092  70.123  1.00  0.00    -0.299 C  
BRANCH  14  15
HETATM   15  C   UNL     1     -10.407   9.840  70.667  1.00  0.00    -0.330 C  
BRANCH  15  16
HETATM   16  C   UNL     1     -10.410   8.792  71.779  1.00  0.00    -0.413 C  
BRANCH  16  17
HETATM   17  C   UNL     1     -11.821   8.299  72.078  1.00  0.00    -0.408 C  
BRANCH  17  18
HETATM   18  C   UNL     1     -12.021   6.852  71.668  1.00  0.00    -0.379 C  
BRANCH  18  19
HETATM   19  C   UNL     1     -10.666   6.238  71.340  1.00  0.00    -0.297 C  
BRANCH  19  20
HETATM   20  C   UNL     1     -10.733   5.474  70.030  1.00  0.00    -0.356 C  
BRANCH  20  21
HETATM   21  C   UNL     1     -11.189   6.388  68.903  1.00  0.00    -0.385 C  
BRANCH  21  22
HETATM   22  C   UNL     1      -9.984   7.032  68.235  1.00  0.00    -0.165 C  
BRANCH  22  23
HETATM   23  C   UNL     1     -10.415   7.906  67.064  1.00  0.00    -0.419 C  
BRANCH  23  24
HETATM   24  C   UNL     1      -9.207   8.328  66.239  1.00  0.00    -0.258 C  
BRANCH  24  25
HETATM   25  C   UNL     1      -9.554   9.480  65.310  1.00  0.00    -0.243 C  
HETATM   26  O   UNL     1      -9.198   9.142  63.977  1.00  0.00    -0.421 OA 
HETATM   27  H   UNL     1      -9.415   9.862  63.396  1.00  0.00     0.000 HD 
ENDBRANCH  24  25
ENDBRANCH  23  24
ENDBRANCH  22  23
ENDBRANCH  21  22
ENDBRANCH  20  21
ENDBRANCH  19  20
ENDBRANCH  18  19
ENDBRANCH  17  18
ENDBRANCH  16  17
ENDBRANCH  15  16
ENDBRANCH  14  15
ENDBRANCH   9  14
ENDBRANCH   2   3
TORSDOF 14
ENDMDL
MODEL       12
REMARK 921   NORMALIZED FREE ENERGY PREDICTED BY IDOCK:   -5.11 KCAL/MOL
REMARK 922        TOTAL FREE ENERGY PREDICTED BY IDOCK:  -11.11 KCAL/MOL
REMARK 923 INTER-LIGAND FREE ENERGY PREDICTED BY IDOCK:   -9.66 KCAL/MOL
REMARK 924 INTRA-LIGAND FREE ENERGY PREDICTED BY IDOCK:   -1.44 KCAL/MOL
REMARK 927      BINDING AFFINITY PREDICTED BY RF-SCORE:    0.00 PKD
ROOT
HETATM    1  C   UNL     1     -12.594  11.979  63.252  1.00  0.00    -0.385 C  
HETATM    2  O   UNL     1     -11.407  12.729  63.474  1.00  0.00    -0.462 OA 
ENDROOT
BRANCH   2   3
HETATM    3  C   UNL     1     -10.843  12.645  64.746  1.00  0.00    -0.302 C  
HETATM    4  C   UNL     1      -9.801  11.816  64.929  1.00  0.00    -0.223 C  
HETATM    5  C   UNL     1      -9.204  11.699  66.294  1.00  0.00    -0.217 C  
HETATM    6  O   UNL     1     -12.131  14.393  65.776  1.00  0.00    -0.385 OA 
HETATM    7  O   UNL     1      -8.066  11.292  66.497  1.00  0.00    -0.163 OA 
HETATM    8  C   UNL     1     -11.404  13.414  65.908  1.00  0.00    -0.309 C  
HETATM    9  C   UNL     1     -10.077  12.062  67.446  1.00  0.00    -0.206 C  
HETATM   10  C   UNL     1     -12.006  13.419  68.357  1.00  0.00    -0.359 C  
HETATM   11  C   UNL     1     -11.105  12.907  67.270  1.00  0.00    -0.309 C  
BRANCH   4  12
HETATM   12  O   UNL     1      -9.313  11.106  63.831  1.00  0.00    -0.215 OA 
HETATM   13  C   UNL     1      -9.127   9.703  63.962  1.00  0.00    -0.200 C  
ENDBRANCH   4  12
BRANCH   9  14
HETATM   14  C   UNL     1      -9.726  11.408  68.747  1.00  0.00    -0.155 C  
BRANCH  14  15
HETATM   15  C   UNL     1     -10.571  10.166  69.040  1.00  0.00    -0.245 C  
BRANCH  15  16
HETATM   16  C   UNL     1     -10.350   9.655  70.463  1.00  0.00    -0.359 C  
BRANCH  16  17
HETATM   17  C   UNL     1     -11.672   9.457  71.195  1.00  0.00    -0.418 C  
BRANCH  17  18
HETATM   18  C   UNL     1     -12.733  10.441  70.738  1.00  0.00    -0.460 C  
BRANCH  18  19
HETATM   19  C   UNL     1     -13.237  11.223  71.944  1.00  0.00    -0.491 C  
BRANCH  19  20
HETATM   20  C   UNL     1     -13.058  12.714  71.723  1.00  0.00    -0.461 C  
BRANCH  20  21
HETATM   21  C   UNL     1     -14.223  13.486  72.324  1.00  0.00    -0.463 C  
BRANCH  21  22
HETATM   22  C   UNL     1     -14.003  14.981  72.147  1.00  0.00    -0.610 C  
BRANCH  22  23
HETATM   23  C   UNL     1     -13.065  15.521  73.219  1.00  0.00    -0.658 C  
BRANCH  23  24
HETATM   24  C   UNL     1     -11.939  16.328  72.587  1.00  0.00    -0.644 C  
BRANCH  24  25
HETATM   25  C   UNL     1     -11.720  15.923  71.138  1.00  0.00    -0.442 C  
HETATM   26  O   UNL     1     -10.653  14.989  71.059  1.00  0.00    -0.523 OA 
HETATM   27  H   UNL     1     -10.517  14.735  70.154  1.00  0.00     0.000 HD 
ENDBRANCH  24  25
ENDBRANCH  23  24
ENDBRANCH  22  23
ENDBRANCH  21  22
ENDBRANCH  20  21
ENDBRANCH  19  20
ENDBRANCH  18  19
ENDBRANCH  17  18
ENDBRANCH  16  17
ENDBRANCH  15  16
ENDBRANCH  14  15
ENDBRANCH   9  14
ENDBRANCH   2   3
TORSDOF 14
ENDMDL
MODEL       13
REMARK 921   NORMALIZED FREE ENERGY PREDICTED BY IDOCK:   -5.10 KCAL/MOL
REMARK 922        TOTAL FREE ENERGY PREDICTED BY IDOCK:  -11.09 KCAL/MOL
REMARK 923 INTER-LIGAND FREE ENERGY PREDICTED BY IDOCK:   -8.91 KCAL/MOL
REMARK 924 INTRA-LIGAND FREE ENERGY PREDICTED BY IDOCK:   -2.19 KCAL/MOL
REMARK 927      BINDING AFFINITY PREDICTED BY RF-SCORE:    0.00 PKD
ROOT
HETATM    1  C   UNL     1     -10.413   8.942  71.976  1.00  0.00    -0.313 C  
HETATM    2  O   UNL     1     -11.485   8.892  71.045  1.00  0.00    -0.272 OA 
ENDROOT
BRANCH   2   3
HETATM    3  C   UNL     1     -11.757  10.064  70.341  1.00  0.00    -0.286 C  
HETATM    4  C   UNL     1     -11.319  10.163  69.073  1.00  0.00    -0.133 C  
HETATM    5  C   UNL     1     -11.582  11.425  68.317  1.00  0.00    -0.306 C  
HETATM    6  O   UNL     1     -13.155  11.106  71.993  1.00  0.00    -0.492 OA 
HETATM    7  O   UNL     1     -11.574  11.488  67.092  1.00  0.00    -0.516 OA 
HETATM    8  C   UNL     1     -12.473  11.219  70.980  1.00  0.00    -0.400 C  
HETATM    9  C   UNL     1     -11.820  12.657  69.120  1.00  0.00    -0.349 C  
HETATM   10  C   UNL     1     -12.638  13.719  71.264  1.00  0.00    -0.444 C  
HETATM   11  C   UNL     1     -12.278  12.561  70.378  1.00  0.00    -0.368 C  
BRANCH   4  12
HETATM   12  O   UNL     1     -10.645   9.077  68.514  1.00  0.00    -0.209 OA 
HETATM   13  C   UNL     1      -9.230   9.148  68.395  1.00  0.00    -0.132 C  
ENDBRANCH   4  12
BRANCH   9  14
HETATM   14  C   UNL     1     -11.493  13.945  68.429  1.00  0.00    -0.346 C  
BRANCH  14  15
HETATM   15  C   UNL     1     -10.010  14.311  68.516  1.00  0.00    -0.235 C  
BRANCH  15  16
HETATM   16  C   UNL     1      -9.786  15.812  68.329  1.00  0.00    -0.213 C  
BRANCH  16  17
HETATM   17  C   UNL     1     -10.638  16.365  67.193  1.00  0.00    -0.276 C  
BRANCH  17  18
HETATM   18  C   UNL     1      -9.980  16.176  65.839  1.00  0.00    -0.384 C  
BRANCH  18  19
HETATM   19  C   UNL     1     -11.023  15.678  64.847  1.00  0.00    -0.447 C  
BRANCH  19  20
HETATM   20  C   UNL     1     -11.220  14.180  64.990  1.00  0.00    -0.356 C  
BRANCH  20  21
HETATM   21  C   UNL     1     -12.189  13.666  63.936  1.00  0.00    -0.429 C  
BRANCH  21  22
HETATM   22  C   UNL     1     -11.837  12.235  63.560  1.00  0.00    -0.601 C  
BRANCH  22  23
HETATM   23  C   UNL     1     -10.330  12.015  63.613  1.00  0.00    -0.482 C  
BRANCH  23  24
HETATM   24  C   UNL     1     -10.012  10.573  63.983  1.00  0.00    -0.363 C  
BRANCH  24  25
HETATM   25  C   UNL     1      -8.823  10.499  64.926  1.00  0.00    -0.192 C  
HETATM   26  O   UNL     1      -8.851  11.604  65.817  1.00  0.00    -0.367 OA 
HETATM   27  H   UNL     1      -8.108  11.558  66.408  1.00  0.00     0.000 HD 
ENDBRANCH  24  25
ENDBRANCH  23  24
ENDBRANCH  22  23
ENDBRANCH  21  22
ENDBRANCH  20  21
ENDBRANCH  19  20
ENDBRANCH  18  19
ENDBRANCH  17  18
ENDBRANCH  16  17
ENDBRANCH  15  16
ENDBRANCH  14  15
ENDBRANCH   9  14
ENDBRANCH   2   3
TORSDOF 14
ENDMDL
MODEL       14
REMARK 921   NORMALIZED FREE ENERGY PREDICTED BY IDOCK:   -5.09 KCAL/MOL
REMARK 922        TOTAL FREE ENERGY PREDICTED BY IDOCK:  -11.07 KCAL/MOL
REMARK 923 INTER-LIGAND FREE ENERGY PREDICTED BY IDOCK:   -9.22 KCAL/MOL
REMARK 924 INTRA-LIGAND FREE ENERGY PREDICTED BY IDOCK:   -1.85 KCAL/MOL
REMARK 927      BINDING AFFINITY PREDICTED BY RF-SCORE:    0.00 PKD
ROOT
HETATM    1  C   UNL     1     -12.575  10.487  70.742  1.00  0.00    -0.382 C  
HETATM    2  O   UNL     1     -11.470  11.027  70.030  1.00  0.00    -0.285 OA 
ENDROOT
BRANCH   2   3
HETATM    3  C   UNL     1     -11.756  12.014  69.087  1.00  0.00    -0.330 C  
HETATM    4  C   UNL     1     -11.748  11.674  67.786  1.00  0.00    -0.245 C  
HETATM    5  C   UNL     1     -12.028  12.729  66.765  1.00  0.00    -0.319 C  
HETATM    6  O   UNL     1     -12.337  13.762  70.629  1.00  0.00    -0.339 OA 
HETATM    7  O   UNL     1     -12.412  12.479  65.628  1.00  0.00    -0.648 OA 
HETATM    8  C   UNL     1     -12.017  13.437  69.491  1.00  0.00    -0.319 C  
HETATM    9  C   UNL     1     -11.777  14.142  67.167  1.00  0.00    -0.430 C  
HETATM   10  C   UNL     1     -11.655  15.883  68.997  1.00  0.00    -0.392 C  
HETATM   11  C   UNL     1     -11.806  14.487  68.464  1.00  0.00    -0.355 C  
BRANCH   4  12
HETATM   12  O   UNL     1     -11.489  10.347  67.445  1.00  0.00    -0.354 OA 
HETATM   13  C   UNL     1     -10.204  10.020  66.931  1.00  0.00    -0.238 C  
ENDBRANCH   4  12
BRANCH   9  14
HETATM   14  C   UNL     1     -11.484  15.086  66.042  1.00  0.00    -0.221 C  
BRANCH  14  15
HETATM   15  C   UNL     1     -10.102  14.866  65.422  1.00  0.00    -0.400 C  
BRANCH  15  16
HETATM   16  C   UNL     1      -8.981  15.202  66.404  1.00  0.00    -0.314 C  
BRANCH  16  17
HETATM   17  C   UNL     1      -8.471  16.624  66.202  1.00  0.00    -0.308 C  
BRANCH  17  18
HETATM   18  C   UNL     1      -7.162  16.871  66.928  1.00  0.00    -0.251 C  
BRANCH  18  19
HETATM   19  C   UNL     1      -7.453  17.134  68.400  1.00  0.00    -0.227 C  
BRANCH  19  20
HETATM   20  C   UNL     1      -6.661  18.331  68.893  1.00  0.00    -0.251 C  
BRANCH  20  21
HETATM   21  C   UNL     1      -7.556  19.557  68.994  1.00  0.00    -0.356 C  
BRANCH  21  22
HETATM   22  C   UNL     1      -9.017  19.134  69.016  1.00  0.00    -0.253 C  
BRANCH  22  23
HETATM   23  C   UNL     1      -9.843  19.992  68.067  1.00  0.00    -0.522 C  
BRANCH  23  24
HETATM   24  C   UNL     1     -10.789  19.124  67.248  1.00  0.00    -0.529 C  
BRANCH  24  25
HETATM   25  C   UNL     1     -10.649  19.412  65.762  1.00  0.00    -0.400 C  
HETATM   26  O   UNL     1      -9.771  20.512  65.569  1.00  0.00    -0.552 OA 
HETATM   27  H   UNL     1      -9.683  20.692  64.640  1.00  0.00     0.000 HD 
ENDBRANCH  24  25
ENDBRANCH  23  24
ENDBRANCH  22  23
ENDBRANCH  21  22
ENDBRANCH  20  21
ENDBRANCH  19  20
ENDBRANCH  18  19
ENDBRANCH  17  18
ENDBRANCH  16  17
ENDBRANCH  15  16
ENDBRANCH  14  15
ENDBRANCH   9  14
ENDBRANCH   2   3
TORSDOF 14
ENDMDL
MODEL       15
REMARK 921   NORMALIZED FREE ENERGY PREDICTED BY IDOCK:   -5.09 KCAL/MOL
REMARK 922        TOTAL FREE ENERGY PREDICTED BY IDOCK:  -11.07 KCAL/MOL
REMARK 923 INTER-LIGAND FREE ENERGY PREDICTED BY IDOCK:   -9.81 KCAL/MOL
REMARK 924 INTRA-LIGAND FREE ENERGY PREDICTED BY IDOCK:   -1.26 KCAL/MOL
REMARK 927      BINDING AFFINITY PREDICTED BY RF-SCORE:    0.00 PKD
ROOT
HETATM    1  C   UNL     1     -10.408   6.715  74.050  1.00  0.00    -0.351 C  
HETATM    2  O   UNL     1     -11.158   6.852  72.851  1.00  0.00    -0.275 OA 
ENDROOT
BRANCH   2   3
HETATM    3  C   UNL     1     -11.085   8.085  72.205  1.00  0.00    -0.311 C  
HETATM    4  C   UNL     1     -12.226   8.768  72.001  1.00  0.00    -0.377 C  
HETATM    5  C   UNL     1     -12.162  10.080  71.288  1.00  0.00    -0.402 C  
HETATM    6  O   UNL     1      -8.690   8.239  72.092  1.00  0.00    -0.160 OA 
HETATM    7  O   UNL     1     -13.035  10.936  71.378  1.00  0.00    -0.394 OA 
HETATM    8  C   UNL     1      -9.782   8.631  71.695  1.00  0.00    -0.278 C  
HETATM    9  C   UNL     1     -10.990  10.308  70.397  1.00  0.00    -0.365 C  
HETATM   10  C   UNL     1      -8.566   9.841  69.846  1.00  0.00    -0.236 C  
HETATM   11  C   UNL     1      -9.843   9.644  70.612  1.00  0.00    -0.268 C  
BRANCH   4  12
HETATM   12  O   UNL     1     -13.420   8.227  72.476  1.00  0.00    -0.172 OA 
HETATM   13  C   UNL     1     -14.381   7.775  71.530  1.00  0.00    -0.447 C  
ENDBRANCH   4  12
BRANCH   9  14
HETATM   14  C   UNL     1     -11.211  11.285  69.284  1.00  0.00    -0.336 C  
BRANCH  14  15
HETATM   15  C   UNL     1     -11.377  10.611  67.920  1.00  0.00    -0.342 C  
BRANCH  15  16
HETATM   16  C   UNL     1     -10.227  10.959  66.975  1.00  0.00    -0.256 C  
BRANCH  16  17
HETATM   17  C   UNL     1      -9.881   9.787  66.064  1.00  0.00    -0.342 C  
BRANCH  17  18
HETATM   18  C   UNL     1      -9.575  10.234  64.647  1.00  0.00    -0.374 C  
BRANCH  18  19
HETATM   19  C   UNL     1      -9.966  11.698  64.494  1.00  0.00    -0.290 C  
BRANCH  19  20
HETATM   20  C   UNL     1     -10.777  11.901  63.227  1.00  0.00    -0.415 C  
BRANCH  20  21
HETATM   21  C   UNL     1     -11.953  12.829  63.490  1.00  0.00    -0.633 C  
BRANCH  21  22
HETATM   22  C   UNL     1     -12.426  12.674  64.928  1.00  0.00    -0.564 C  
BRANCH  22  23
HETATM   23  C   UNL     1     -12.645  14.035  65.576  1.00  0.00    -0.543 C  
BRANCH  23  24
HETATM   24  C   UNL     1     -11.312  14.679  65.932  1.00  0.00    -0.338 C  
BRANCH  24  25
HETATM   25  C   UNL     1     -10.952  15.778  64.946  1.00  0.00    -0.427 C  
HETATM   26  O   UNL     1     -12.094  16.118  64.173  1.00  0.00    -0.913 OA 
HETATM   27  H   UNL     1     -11.869  16.805  63.557  1.00  0.00     0.000 HD 
ENDBRANCH  24  25
ENDBRANCH  23  24
ENDBRANCH  22  23
ENDBRANCH  21  22
ENDBRANCH  20  21
ENDBRANCH  19  20
ENDBRANCH  18  19
ENDBRANCH  17  18
ENDBRANCH  16  17
ENDBRANCH  15  16
ENDBRANCH  14  15
ENDBRANCH   9  14
ENDBRANCH   2   3
TORSDOF 14
ENDMDL
MODEL       16
REMARK 921   NORMALIZED FREE ENERGY PREDICTED BY IDOCK:   -5.08 KCAL/MOL
REMARK 922        TOTAL FREE ENERGY PREDICTED BY IDOCK:  -11.06 KCAL/MOL
REMARK 923 INTER-LIGAND FREE ENERGY PREDICTED BY IDOCK:   -9.61 KCAL/MOL
REMARK 924 INTRA-LIGAND FREE ENERGY PREDICTED BY IDOCK:   -1.45 KCAL/MOL
REMARK 927      BINDING AFFINITY PREDICTED BY RF-SCORE:    0.00 PKD
ROOT
HETATM    1  C   UNL     1     -12.153  15.229  64.212  1.00  0.00    -0.208 C  
HETATM    2  O   UNL     1     -10.960  14.687  64.764  1.00  0.00    -0.392 OA 
ENDROOT
BRANCH   2   3
HETATM    3  C   UNL     1     -11.046  13.406  65.305  1.00  0.00    -0.291 C  
HETATM    4  C   UNL     1     -11.450  13.277  66.581  1.00  0.00    -0.347 C  
HETATM    5  C   UNL     1     -11.522  11.909  67.178  1.00  0.00    -0.319 C  
HETATM    6  O   UNL     1     -10.572  12.183  63.291  1.00  0.00    -0.428 OA 
HETATM    7  O   UNL     1     -12.209  11.639  68.158  1.00  0.00    -0.537 OA 
HETATM    8  C   UNL     1     -10.653  12.190  64.515  1.00  0.00    -0.310 C  
HETATM    9  C   UNL     1     -10.673  10.854  66.557  1.00  0.00    -0.270 C  
HETATM   10  C   UNL     1      -9.506   9.944  64.507  1.00  0.00    -0.328 C  
HETATM   11  C   UNL     1     -10.288  10.970  65.277  1.00  0.00    -0.338 C  
BRANCH   4  12
HETATM   12  O   UNL     1     -11.795  14.427  67.290  1.00  0.00    -0.384 OA 
HETATM   13  C   UNL     1     -10.824  15.005  68.155  1.00  0.00    -0.263 C  
ENDBRANCH   4  12
BRANCH   9  14
HETATM   14  C   UNL     1     -10.294   9.722  67.461  1.00  0.00    -0.291 C  
BRANCH  14  15
HETATM   15  C   UNL     1      -8.981   9.966  68.208  1.00  0.00    -0.119 C  
BRANCH  15  16
HETATM   16  C   UNL     1      -9.175   9.916  69.723  1.00  0.00    -0.252 C  
BRANCH  16  17
HETATM   17  C   UNL     1     -10.347   9.021  70.106  1.00  0.00    -0.237 C  
BRANCH  17  18
HETATM   18  C   UNL     1     -11.113   9.560  71.299  1.00  0.00    -0.449 C  
BRANCH  18  19
HETATM   19  C   UNL     1     -12.555   9.826  70.885  1.00  0.00    -0.350 C  
BRANCH  19  20
HETATM   20  C   UNL     1     -13.233  10.747  71.883  1.00  0.00    -0.524 C  
BRANCH  20  21
HETATM   21  C   UNL     1     -12.925  12.201  71.561  1.00  0.00    -0.398 C  
BRANCH  21  22
HETATM   22  C   UNL     1     -13.648  13.114  72.540  1.00  0.00    -0.595 C  
BRANCH  22  23
HETATM   23  C   UNL     1     -14.159  14.366  71.838  1.00  0.00    -0.596 C  
BRANCH  23  24
HETATM   24  C   UNL     1     -13.122  14.888  70.853  1.00  0.00    -0.430 C  
BRANCH  24  25
HETATM   25  C   UNL     1     -12.195  15.895  71.514  1.00  0.00    -0.465 C  
HETATM   26  O   UNL     1     -11.067  15.222  72.054  1.00  0.00    -0.491 OA 
HETATM   27  H   UNL     1     -10.488  15.852  72.467  1.00  0.00     0.000 HD 
ENDBRANCH  24  25
ENDBRANCH  23  24
ENDBRANCH  22  23
ENDBRANCH  21  22
ENDBRANCH  20  21
ENDBRANCH  19  20
ENDBRANCH  18  19
ENDBRANCH  17  18
ENDBRANCH  16  17
ENDBRANCH  15  16
ENDBRANCH  14  15
ENDBRANCH   9  14
ENDBRANCH   2   3
TORSDOF 14
ENDMDL
MODEL       17
REMARK 921   NORMALIZED FREE ENERGY PREDICTED BY IDOCK:   -5.05 KCAL/MOL
REMARK 922        TOTAL FREE ENERGY PREDICTED BY IDOCK:  -11.00 KCAL/MOL
REMARK 923 INTER-LIGAND FREE ENERGY PREDICTED BY IDOCK:   -8.92 KCAL/MOL
REMARK 924 INTRA-LIGAND FREE ENERGY PREDICTED BY IDOCK:   -2.07 KCAL/MOL
REMARK 927      BINDING AFFINITY PREDICTED BY RF-SCORE:    0.00 PKD
ROOT
HETATM    1  C   UNL     1     -10.541  16.237  68.837  1.00  0.00    -0.284 C  
HETATM    2  O   UNL     1     -11.915  15.915  69.001  1.00  0.00    -0.378 OA 
ENDROOT
BRANCH   2   3
HETATM    3  C   UNL     1     -12.208  14.629  69.450  1.00  0.00    -0.235 C  
HETATM    4  C   UNL     1     -12.611  14.473  70.724  1.00  0.00    -0.351 C  
HETATM    5  C   UNL     1     -12.903  13.095  71.223  1.00  0.00    -0.296 C  
HETATM    6  O   UNL     1     -11.968  13.499  67.343  1.00  0.00    -0.367 OA 
HETATM    7  O   UNL     1     -13.613  12.870  72.197  1.00  0.00    -0.528 OA 
HETATM    8  C   UNL     1     -12.033  13.427  68.565  1.00  0.00    -0.328 C  
HETATM    9  C   UNL     1     -12.249  11.964  70.507  1.00  0.00    -0.426 C  
HETATM   10  C   UNL     1     -11.275  11.030  68.368  1.00  0.00    -0.337 C  
HETATM   11  C   UNL     1     -11.866  12.110  69.229  1.00  0.00    -0.370 C  
BRANCH   4  12
HETATM   12  O   UNL     1     -12.750  15.608  71.522  1.00  0.00    -0.405 OA 
HETATM   13  C   UNL     1     -11.796  15.832  72.552  1.00  0.00    -0.499 C  
ENDBRANCH   4  12
BRANCH   9  14
HETATM   14  C   UNL     1     -12.053  10.720  71.317  1.00  0.00    -0.365 C  
BRANCH  14  15
HETATM   15  C   UNL     1     -13.251   9.770  71.254  1.00  0.00    -0.452 C  
BRANCH  15  16
HETATM   16  C   UNL     1     -13.145   8.655  72.295  1.00  0.00    -0.415 C  
BRANCH  16  17
HETATM   17  C   UNL     1     -11.743   8.058  72.330  1.00  0.00    -0.444 C  
BRANCH  17  18
HETATM   18  C   UNL     1     -11.725   6.611  71.877  1.00  0.00    -0.355 C  
BRANCH  18  19
HETATM   19  C   UNL     1     -11.640   6.567  70.357  1.00  0.00    -0.470 C  
BRANCH  19  20
HETATM   20  C   UNL     1     -10.574   5.583  69.913  1.00  0.00    -0.387 C  
BRANCH  20  21
HETATM   21  C   UNL     1      -9.698   6.197  68.832  1.00  0.00    -0.151 C  
BRANCH  21  22
HETATM   22  C   UNL     1      -8.556   6.975  69.468  1.00  0.00    -0.134 C  
BRANCH  22  23
HETATM   23  C   UNL     1      -8.757   8.475  69.293  1.00  0.00    -0.133 C  
BRANCH  23  24
HETATM   24  C   UNL     1      -8.638   9.190  70.631  1.00  0.00    -0.266 C  
BRANCH  24  25
HETATM   25  C   UNL     1      -8.082   8.264  71.701  1.00  0.00    -0.134 C  
HETATM   26  O   UNL     1      -8.357   8.801  72.987  1.00  0.00    -0.412 OA 
HETATM   27  H   UNL     1      -8.011   8.222  73.656  1.00  0.00     0.000 HD 
ENDBRANCH  24  25
ENDBRANCH  23  24
ENDBRANCH  22  23
ENDBRANCH  21  22
ENDBRANCH  20  21
ENDBRANCH  19  20
ENDBRANCH  18  19
ENDBRANCH  17  18
ENDBRANCH  16  17
ENDBRANCH  15  16
ENDBRANCH  14  15
ENDBRANCH   9  14
ENDBRANCH   2   3
TORSDOF 14
ENDMDL
MODEL       18
REMARK 921   NORMALIZED FREE ENERGY PREDICTED BY IDOCK:   -5.05 KCAL/MOL
REMARK 922        TOTAL FREE ENERGY PREDICTED BY IDOCK:  -10.99 KCAL/MOL
REMARK 923 INTER-LIGAND FREE ENERGY PREDICTED BY IDOCK:   -9.02 KCAL/MOL
REMARK 924 INTRA-LIGAND FREE ENERGY PREDICTED BY IDOCK:   -1.97 KCAL/MOL
REMARK 927      BINDING AFFINITY PREDICTED BY RF-SCORE:    0.00 PKD
ROOT
HETATM    1  C   UNL     1     -10.583  16.435  69.474  1.00  0.00    -0.320 C  
HETATM    2  O   UNL     1     -11.913  15.950  69.610  1.00  0.00    -0.335 OA 
ENDROOT
BRANCH   2   3
HETATM    3  C   UNL     1     -12.091  14.573  69.492  1.00  0.00    -0.306 C  
HETATM    4  C   UNL     1     -12.300  13.858  70.612  1.00  0.00    -0.381 C  
HETATM    5  C   UNL     1     -12.468  12.378  70.499  1.00  0.00    -0.187 C  
HETATM    6  O   UNL     1     -12.122  14.465  67.092  1.00  0.00    -0.414 OA 
HETATM    7  O   UNL     1     -13.020  11.697  71.357  1.00  0.00    -0.404 OA 
HETATM    8  C   UNL     1     -12.005  13.879  68.162  1.00  0.00    -0.350 C  
HETATM    9  C   UNL     1     -11.886  11.720  69.295  1.00  0.00    -0.389 C  
HETATM   10  C   UNL     1     -11.202  11.871  66.865  1.00  0.00    -0.382 C  
HETATM   11  C   UNL     1     -11.698  12.427  68.170  1.00  0.00    -0.408 C  
BRANCH   4  12
HETATM   12  O   UNL     1     -12.361  14.532  71.831  1.00  0.00    -0.336 OA 
HETATM   13  C   UNL     1     -13.640  14.863  72.357  1.00  0.00    -0.450 C  
ENDBRANCH   4  12
BRANCH   9  14
HETATM   14  C   UNL     1     -11.531  10.275  69.462  1.00  0.00    -0.273 C  
BRANCH  14  15
HETATM   15  C   UNL     1     -10.159  10.067  70.107  1.00  0.00    -0.266 C  
BRANCH  15  16
HETATM   16  C   UNL     1     -10.247   9.189  71.355  1.00  0.00    -0.402 C  
BRANCH  16  17
HETATM   17  C   UNL     1     -11.684   8.766  71.638  1.00  0.00    -0.402 C  
BRANCH  17  18
HETATM   18  C   UNL     1     -11.757   7.597  72.601  1.00  0.00    -0.323 C  
BRANCH  18  19
HETATM   19  C   UNL     1     -10.463   7.533  73.403  1.00  0.00    -0.404 C  
BRANCH  19  20
HETATM   20  C   UNL     1      -9.812   6.170  73.253  1.00  0.00    -0.170 C  
BRANCH  20  21
HETATM   21  C   UNL     1     -10.756   5.201  72.557  1.00  0.00    -0.286 C  
BRANCH  21  22
HETATM   22  C   UNL     1     -10.061   4.563  71.365  1.00  0.00    -0.230 C  
BRANCH  22  23
HETATM   23  C   UNL     1      -9.722   5.609  70.310  1.00  0.00    -0.232 C  
BRANCH  23  24
HETATM   24  C   UNL     1     -10.919   5.861  69.403  1.00  0.00    -0.421 C  
BRANCH  24  25
HETATM   25  C   UNL     1     -10.546   6.771  68.244  1.00  0.00    -0.230 C  
HETATM   26  O   UNL     1     -11.625   6.837  67.323  1.00  0.00    -0.726 OA 
HETATM   27  H   UNL     1     -11.393   7.406  66.599  1.00  0.00     0.000 HD 
ENDBRANCH  24  25
ENDBRANCH  23  24
ENDBRANCH  22  23
ENDBRANCH  21  22
ENDBRANCH  20  21
ENDBRANCH  19  20
ENDBRANCH  18  19
ENDBRANCH  17  18
ENDBRANCH  16  17
ENDBRANCH  15  16
ENDBRANCH  14  15
ENDBRANCH   9  14
ENDBRANCH   2   3
TORSDOF 14
ENDMDL
MODEL       19
REMARK 921   NORMALIZED FREE ENERGY PREDICTED BY IDOCK:   -5.04 KCAL/MOL
REMARK 922        TOTAL FREE ENERGY PREDICTED BY IDOCK:  -10.99 KCAL/MOL
REMARK 923 INTER-LIGAND FREE ENERGY PREDICTED BY IDOCK:   -8.99 KCAL/MOL
REMARK 924 INTRA-LIGAND FREE ENERGY PREDICTED BY IDOCK:   -1.99 KCAL/MOL
REMARK 927      BINDING AFFINITY PREDICTED BY RF-SCORE:    0.00 PKD
ROOT
HETATM    1  C   UNL     1     -11.122   6.459  72.428  1.00  0.00    -0.268 C  
HETATM    2  O   UNL     1     -11.110   7.773  72.970  1.00  0.00    -0.398 OA 
ENDROOT
BRANCH   2   3
HETATM    3  C   UNL     1     -11.124   8.826  72.057  1.00  0.00    -0.371 C  
HETATM    4  C   UNL     1     -12.285   9.470  71.842  1.00  0.00    -0.358 C  
HETATM    5  C   UNL     1     -12.317  10.584  70.847  1.00  0.00    -0.390 C  
HETATM    6  O   UNL     1      -8.761   8.899  71.626  1.00  0.00    -0.274 OA 
HETATM    7  O   UNL     1     -13.177  11.458  70.844  1.00  0.00    -0.075 OA 
HETATM    8  C   UNL     1      -9.896   9.214  71.284  1.00  0.00    -0.293 C  
HETATM    9  C   UNL     1     -11.263  10.580  69.793  1.00  0.00    -0.361 C  
HETATM   10  C   UNL     1      -8.922   9.948  69.076  1.00  0.00    -0.160 C  
HETATM   11  C   UNL     1     -10.095   9.957  70.015  1.00  0.00    -0.308 C  
BRANCH   4  12
HETATM   12  O   UNL     1     -13.409   9.075  72.567  1.00  0.00    -0.453 OA 
HETATM   13  C   UNL     1     -14.396   8.289  71.910  1.00  0.00    -0.476 C  
ENDBRANCH   4  12
BRANCH   9  14
HETATM   14  C   UNL     1     -11.625  11.285  68.523  1.00  0.00    -0.384 C  
BRANCH  14  15
HETATM   15  C   UNL     1     -10.978  12.666  68.400  1.00  0.00    -0.284 C  
BRANCH  15  16
HETATM   16  C   UNL     1     -11.760  13.574  67.451  1.00  0.00    -0.419 C  
BRANCH  16  17
HETATM   17  C   UNL     1     -10.867  14.654  66.851  1.00  0.00    -0.305 C  
BRANCH  17  18
HETATM   18  C   UNL     1     -11.223  14.955  65.408  1.00  0.00    -0.359 C  
BRANCH  18  19
HETATM   19  C   UNL     1     -12.440  14.127  65.014  1.00  0.00    -0.434 C  
BRANCH  19  20
HETATM   20  C   UNL     1     -12.218  13.463  63.668  1.00  0.00    -0.480 C  
BRANCH  20  21
HETATM   21  C   UNL     1     -12.103  11.955  63.829  1.00  0.00    -0.547 C  
BRANCH  21  22
HETATM   22  C   UNL     1     -10.654  11.523  63.662  1.00  0.00    -0.491 C  
BRANCH  22  23
HETATM   23  C   UNL     1      -9.957  11.428  65.013  1.00  0.00    -0.312 C  
BRANCH  23  24
HETATM   24  C   UNL     1      -9.463  10.009  65.261  1.00  0.00    -0.323 C  
BRANCH  24  25
HETATM   25  C   UNL     1      -7.951   9.974  65.414  1.00  0.00    -0.141 C  
HETATM   26  O   UNL     1      -7.341  10.512  64.249  1.00  0.00    -0.330 OA 
HETATM   27  H   UNL     1      -6.396  10.491  64.345  1.00  0.00     0.000 HD 
ENDBRANCH  24  25
ENDBRANCH  23  24
ENDBRANCH  22  23
ENDBRANCH  21  22
ENDBRANCH  20  21
ENDBRANCH  19  20
ENDBRANCH  18  19
ENDBRANCH  17  18
ENDBRANCH  16  17
ENDBRANCH  15  16
ENDBRANCH  14  15
ENDBRANCH   9  14
ENDBRANCH   2   3
TORSDOF 14
ENDMDL
MODEL       20
REMARK 921   NORMALIZED FREE ENERGY PREDICTED BY IDOCK:   -5.03 KCAL/MOL
REMARK 922        TOTAL FREE ENERGY PREDICTED BY IDOCK:  -10.97 KCAL/MOL
REMARK 923 INTER-LIGAND FREE ENERGY PREDICTED BY IDOCK:   -8.53 KCAL/MOL
REMARK 924 INTRA-LIGAND FREE ENERGY PREDICTED BY IDOCK:   -2.43 KCAL/MOL
REMARK 927      BINDING AFFINITY PREDICTED BY RF-SCORE:    0.00 PKD
ROOT
HETATM    1  C   UNL     1      -9.371   8.119  72.746  1.00  0.00    -0.274 C  
HETATM    2  O   UNL     1     -10.402   7.564  71.941  1.00  0.00    -0.190 OA 
ENDROOT
BRANCH   2   3
HETATM    3  C   UNL     1     -10.789   8.302  70.824  1.00  0.00    -0.227 C  
HETATM    4  C   UNL     1     -10.327   7.925  69.619  1.00  0.00    -0.216 C  
HETATM    5  C   UNL     1     -10.715   8.724  68.417  1.00  0.00    -0.062 C  
HETATM    6  O   UNL     1     -12.352   9.752  71.932  1.00  0.00    -0.377 OA 
HETATM    7  O   UNL     1     -10.677   8.281  67.274  1.00  0.00    -0.289 OA 
HETATM    8  C   UNL     1     -11.658   9.521  70.948  1.00  0.00    -0.326 C  
HETATM    9  C   UNL     1     -11.122  10.139  68.648  1.00  0.00    -0.254 C  
HETATM   10  C   UNL     1     -12.127  11.878  70.184  1.00  0.00    -0.382 C  
HETATM   11  C   UNL     1     -11.604  10.511  69.844  1.00  0.00    -0.384 C  
BRANCH   4  12
HETATM   12  O   UNL     1      -9.512   6.796  69.541  1.00  0.00    -0.149 OA 
HETATM   13  C   UNL     1      -8.115   6.982  69.349  1.00  0.00    -0.130 C  
ENDBRANCH   4  12
BRANCH   9  14
HETATM   14  C   UNL     1     -10.930  11.059  67.483  1.00  0.00    -0.338 C  
BRANCH  14  15
HETATM   15  C   UNL     1      -9.457  11.347  67.185  1.00  0.00    -0.186 C  
BRANCH  15  16
HETATM   16  C   UNL     1      -9.190  11.429  65.682  1.00  0.00    -0.209 C  
BRANCH  16  17
HETATM   17  C   UNL     1     -10.409  11.000  64.875  1.00  0.00    -0.378 C  
BRANCH  17  18
HETATM   18  C   UNL     1     -10.438  11.637  63.499  1.00  0.00    -0.498 C  
BRANCH  18  19
HETATM   19  C   UNL     1     -11.558  12.668  63.453  1.00  0.00    -0.536 C  
BRANCH  19  20
HETATM   20  C   UNL     1     -12.481  12.503  64.647  1.00  0.00    -0.539 C  
BRANCH  20  21
HETATM   21  C   UNL     1     -12.664  13.831  65.367  1.00  0.00    -0.513 C  
BRANCH  21  22
HETATM   22  C   UNL     1     -11.420  14.690  65.197  1.00  0.00    -0.375 C  
BRANCH  22  23
HETATM   23  C   UNL     1     -10.847  15.087  66.552  1.00  0.00    -0.320 C  
BRANCH  23  24
HETATM   24  C   UNL     1     -11.733  14.574  67.679  1.00  0.00    -0.410 C  
BRANCH  24  25
HETATM   25  C   UNL     1     -11.656  15.483  68.894  1.00  0.00    -0.373 C  
HETATM   26  O   UNL     1     -12.832  15.335  69.676  1.00  0.00    -0.601 OA 
HETATM   27  H   UNL     1     -12.784  15.903  70.436  1.00  0.00     0.000 HD 
ENDBRANCH  24  25
ENDBRANCH  23  24
ENDBRANCH  22  23
ENDBRANCH  21  22
ENDBRANCH  20  21
ENDBRANCH  19  20
ENDBRANCH  18  19
ENDBRANCH  17  18
ENDBRANCH  16  17
ENDBRANCH  15  16
ENDBRANCH  14  15
ENDBRANCH   9  14
ENDBRANCH   2   3
TORSDOF 14
ENDMDL
MODEL       21
REMARK 921   NORMALIZED FREE ENERGY PREDICTED BY IDOCK:   -5.01 KCAL/MOL
REMARK 922        TOTAL FREE ENERGY PREDICTED BY IDOCK:  -10.93 KCAL/MOL
REMARK 923 INTER-LIGAND FREE ENERGY PREDICTED BY IDOCK:   -9.85 KCAL/MOL
REMARK 924 INTRA-LIGAND FREE ENERGY PREDICTED BY IDOCK:   -1.09 KCAL/MOL
REMARK 927      BINDING AFFINITY PREDICTED BY RF-SCORE:    0.00 PKD
ROOT
HETATM    1  C   UNL     1      -8.206  17.363  65.956  1.00  0.00    -0.126 C  
HETATM    2  O   UNL     1      -9.596  17.659  65.996  1.00  0.00    -0.493 OA 
ENDROOT
BRANCH   2   3
HETATM    3  C   UNL     1     -10.459  16.583  66.193  1.00  0.00    -0.294 C  
HETATM    4  C   UNL     1     -10.600  16.097  67.439  1.00  0.00    -0.311 C  
HETATM    5  C   UNL     1     -11.504  14.927  67.658  1.00  0.00    -0.352 C  
HETATM    6  O   UNL     1     -11.350  16.483  63.964  1.00  0.00    -1.064 OA 
HETATM    7  O   UNL     1     -11.991  14.649  68.748  1.00  0.00    -0.306 OA 
HETATM    8  C   UNL     1     -11.184  15.935  65.048  1.00  0.00    -0.290 C  
HETATM    9  C   UNL     1     -11.771  14.050  66.483  1.00  0.00    -0.412 C  
HETATM   10  C   UNL     1     -11.971  13.793  63.975  1.00  0.00    -0.451 C  
HETATM   11  C   UNL     1     -11.652  14.540  65.239  1.00  0.00    -0.359 C  
BRANCH   4  12
HETATM   12  O   UNL     1      -9.903  16.713  68.478  1.00  0.00    -0.232 OA 
HETATM   13  C   UNL     1      -8.749  16.064  68.997  1.00  0.00    -0.245 C  
ENDBRANCH   4  12
BRANCH   9  14
HETATM   14  C   UNL     1     -12.144  12.637  66.809  1.00  0.00    -0.236 C  
BRANCH  14  15
HETATM   15  C   UNL     1     -10.947  11.788  67.243  1.00  0.00    -0.318 C  
BRANCH  15  16
HETATM   16  C   UNL     1     -11.350  10.722  68.262  1.00  0.00    -0.376 C  
BRANCH  16  17
HETATM   17  C   UNL     1     -11.401  11.292  69.675  1.00  0.00    -0.359 C  
BRANCH  17  18
HETATM   18  C   UNL     1     -12.542  10.709  70.486  1.00  0.00    -0.433 C  
BRANCH  18  19
HETATM   19  C   UNL     1     -12.006   9.579  71.355  1.00  0.00    -0.464 C  
BRANCH  19  20
HETATM   20  C   UNL     1     -13.146   8.722  71.876  1.00  0.00    -0.420 C  
BRANCH  20  21
HETATM   21  C   UNL     1     -12.926   7.262  71.511  1.00  0.00    -0.434 C  
BRANCH  21  22
HETATM   22  C   UNL     1     -11.489   7.051  71.057  1.00  0.00    -0.343 C  
BRANCH  22  23
HETATM   23  C   UNL     1     -11.443   6.279  69.745  1.00  0.00    -0.449 C  
BRANCH  23  24
HETATM   24  C   UNL     1     -10.528   6.975  68.747  1.00  0.00    -0.222 C  
BRANCH  24  25
HETATM   25  C   UNL     1     -10.915   6.632  67.317  1.00  0.00    -0.385 C  
HETATM   26  O   UNL     1     -10.225   7.488  66.418  1.00  0.00    -0.473 OA 
HETATM   27  H   UNL     1     -10.466   7.274  65.524  1.00  0.00     0.000 HD 
ENDBRANCH  24  25
ENDBRANCH  23  24
ENDBRANCH  22  23
ENDBRANCH  21  22
ENDBRANCH  20  21
ENDBRANCH  19  20
ENDBRANCH  18  19
ENDBRANCH  17  18
ENDBRANCH  16  17
ENDBRANCH  15  16
ENDBRANCH  14  15
ENDBRANCH   9  14
ENDBRANCH   2   3
TORSDOF 14
ENDMDL
MODEL       22
REMARK 921   NORMALIZED FREE ENERGY PREDICTED BY IDOCK:   -5.01 KCAL/MOL
REMARK 922        TOTAL FREE ENERGY PREDICTED BY IDOCK:  -10.93 KCAL/MOL
REMARK 923 INTER-LIGAND FREE ENERGY PREDICTED BY IDOCK:   -8.97 KCAL/MOL
REMARK 924 INTRA-LIGAND FREE ENERGY PREDICTED BY IDOCK:   -1.95 KCAL/MOL
REMARK 927      BINDING AFFINITY PREDICTED BY RF-SCORE:    0.00 PKD
ROOT
HETATM    1  C   UNL     1      -9.840  15.502  65.820  1.00  0.00    -0.357 C  
HETATM    2  O   UNL     1     -11.219  15.356  66.131  1.00  0.00    -0.281 OA 
ENDROOT
BRANCH   2   3
HETATM    3  C   UNL     1     -11.556  14.333  67.015  1.00  0.00    -0.386 C  
HETATM    4  C   UNL     1     -11.771  14.649  68.305  1.00  0.00    -0.328 C  
HETATM    5  C   UNL     1     -12.109  13.557  69.267  1.00  0.00    -0.288 C  
HETATM    6  O   UNL     1     -11.750  12.568  65.396  1.00  0.00    -0.360 OA 
HETATM    7  O   UNL     1     -12.677  13.754  70.335  1.00  0.00    -0.276 OA 
HETATM    8  C   UNL     1     -11.631  12.900  66.570  1.00  0.00    -0.371 C  
HETATM    9  C   UNL     1     -11.680  12.177  68.901  1.00  0.00    -0.381 C  
HETATM   10  C   UNL     1     -11.138  10.485  67.102  1.00  0.00    -0.232 C  
HETATM   11  C   UNL     1     -11.486  11.854  67.613  1.00  0.00    -0.387 C  
BRANCH   4  12
HETATM   12  O   UNL     1     -11.680  15.987  68.687  1.00  0.00    -0.382 OA 
HETATM   13  C   UNL     1     -10.529  16.408  69.407  1.00  0.00    -0.309 C  
ENDBRANCH   4  12
BRANCH   9  14
HETATM   14  C   UNL     1     -11.477  11.242  70.053  1.00  0.00    -0.359 C  
BRANCH  14  15
HETATM   15  C   UNL     1     -12.679  10.328  70.300  1.00  0.00    -0.167 C  
BRANCH  15  16
HETATM   16  C   UNL     1     -13.111  10.346  71.766  1.00  0.00    -0.567 C  
BRANCH  16  17
HETATM   17  C   UNL     1     -12.808   9.020  72.453  1.00  0.00    -0.454 C  
BRANCH  17  18
HETATM   18  C   UNL     1     -13.033   7.834  71.534  1.00  0.00    -0.357 C  
BRANCH  18  19
HETATM   19  C   UNL     1     -12.097   6.704  71.944  1.00  0.00    -0.385 C  
BRANCH  19  20
HETATM   20  C   UNL     1     -11.210   6.301  70.781  1.00  0.00    -0.387 C  
BRANCH  20  21
HETATM   21  C   UNL     1     -10.070   7.294  70.611  1.00  0.00    -0.198 C  
BRANCH  21  22
HETATM   22  C   UNL     1      -9.999   7.762  69.165  1.00  0.00    -0.182 C  
BRANCH  22  23
HETATM   23  C   UNL     1     -10.706   6.778  68.242  1.00  0.00    -0.290 C  
BRANCH  23  24
HETATM   24  C   UNL     1      -9.914   6.589  66.955  1.00  0.00    -0.216 C  
BRANCH  24  25
HETATM   25  C   UNL     1     -10.081   5.180  66.411  1.00  0.00    -0.239 C  
HETATM   26  O   UNL     1     -11.308   5.083  65.703  1.00  0.00    -0.832 OA 
HETATM   27  H   UNL     1     -11.412   4.203  65.362  1.00  0.00     0.000 HD 
ENDBRANCH  24  25
ENDBRANCH  23  24
ENDBRANCH  22  23
ENDBRANCH  21  22
ENDBRANCH  20  21
ENDBRANCH  19  20
ENDBRANCH  18  19
ENDBRANCH  17  18
ENDBRANCH  16  17
ENDBRANCH  15  16
ENDBRANCH  14  15
ENDBRANCH   9  14
ENDBRANCH   2   3
TORSDOF 14
ENDMDL
MODEL       23
REMARK 921   NORMALIZED FREE ENERGY PREDICTED BY IDOCK:   -4.99 KCAL/MOL
REMARK 922        TOTAL FREE ENERGY PREDICTED BY IDOCK:  -10.89 KCAL/MOL
REMARK 923 INTER-LIGAND FREE ENERGY PREDICTED BY IDOCK:   -8.65 KCAL/MOL
REMARK 924 INTRA-LIGAND FREE ENERGY PREDICTED BY IDOCK:   -2.24 KCAL/MOL
REMARK 927      BINDING AFFINITY PREDICTED BY RF-SCORE:    0.00 PKD
ROOT
HETATM    1  C   UNL     1      -9.748  15.351  65.732  1.00  0.00    -0.350 C  
HETATM    2  O   UNL     1     -11.134  15.296  66.042  1.00  0.00    -0.332 OA 
ENDROOT
BRANCH   2   3
HETATM    3  C   UNL     1     -11.527  14.350  66.986  1.00  0.00    -0.361 C  
HETATM    4  C   UNL     1     -11.743  14.759  68.249  1.00  0.00    -0.311 C  
HETATM    5  C   UNL     1     -12.141  13.749  69.275  1.00  0.00    -0.329 C  
HETATM    6  O   UNL     1     -11.780  12.492  65.484  1.00  0.00    -0.369 OA 
HETATM    7  O   UNL     1     -12.713  14.041  70.320  1.00  0.00    -0.318 OA 
HETATM    8  C   UNL     1     -11.661  12.895  66.635  1.00  0.00    -0.390 C  
HETATM    9  C   UNL     1     -11.770  12.331  69.007  1.00  0.00    -0.376 C  
HETATM   10  C   UNL     1     -11.283  10.501  67.331  1.00  0.00    -0.249 C  
HETATM   11  C   UNL     1     -11.576  11.915  67.746  1.00  0.00    -0.393 C  
BRANCH   4  12
HETATM   12  O   UNL     1     -11.597  16.115  68.544  1.00  0.00    -0.377 OA 
HETATM   13  C   UNL     1     -10.438  16.531  69.255  1.00  0.00    -0.326 C  
ENDBRANCH   4  12
BRANCH   9  14
HETATM   14  C   UNL     1     -11.623  11.466  70.221  1.00  0.00    -0.334 C  
BRANCH  14  15
HETATM   15  C   UNL     1     -12.867  10.622  70.508  1.00  0.00    -0.356 C  
BRANCH  15  16
HETATM   16  C   UNL     1     -13.115  10.473  72.009  1.00  0.00    -0.511 C  
BRANCH  16  17
HETATM   17  C   UNL     1     -13.330   9.015  72.397  1.00  0.00    -0.516 C  
BRANCH  17  18
HETATM   18  C   UNL     1     -12.090   8.173  72.166  1.00  0.00    -0.408 C  
BRANCH  18  19
HETATM   19  C   UNL     1     -12.486   6.894  71.440  1.00  0.00    -0.413 C  
BRANCH  19  20
HETATM   20  C   UNL     1     -11.473   6.560  70.361  1.00  0.00    -0.465 C  
BRANCH  20  21
HETATM   21  C   UNL     1     -10.587   7.762  70.070  1.00  0.00    -0.238 C  
BRANCH  21  22
HETATM   22  C   UNL     1      -9.158   7.306  69.820  1.00  0.00    -0.141 C  
BRANCH  22  23
HETATM   23  C   UNL     1      -8.416   8.305  68.940  1.00  0.00    -0.128 C  
BRANCH  23  24
HETATM   24  C   UNL     1      -8.411   9.684  69.583  1.00  0.00    -0.181 C  
BRANCH  24  25
HETATM   25  C   UNL     1      -7.926  10.743  68.607  1.00  0.00    -0.133 C  
HETATM   26  O   UNL     1      -8.221  12.035  69.118  1.00  0.00    -0.347 OA 
HETATM   27  H   UNL     1      -7.918  12.697  68.508  1.00  0.00     0.000 HD 
ENDBRANCH  24  25
ENDBRANCH  23  24
ENDBRANCH  22  23
ENDBRANCH  21  22
ENDBRANCH  20  21
ENDBRANCH  19  20
ENDBRANCH  18  19
ENDBRANCH  17  18
ENDBRANCH  16  17
ENDBRANCH  15  16
ENDBRANCH  14  15
ENDBRANCH   9  14
ENDBRANCH   2   3
TORSDOF 14
ENDMDL
MODEL       24
REMARK 921   NORMALIZED FREE ENERGY PREDICTED BY IDOCK:   -4.98 KCAL/MOL
REMARK 922        TOTAL FREE ENERGY PREDICTED BY IDOCK:  -10.87 KCAL/MOL
REMARK 923 INTER-LIGAND FREE ENERGY PREDICTED BY IDOCK:   -8.60 KCAL/MOL
REMARK 924 INTRA-LIGAND FREE ENERGY PREDICTED BY IDOCK:   -2.28 KCAL/MOL
REMARK 927      BINDING AFFINITY PREDICTED BY RF-SCORE:    0.00 PKD
ROOT
HETATM    1  C   UNL     1     -10.909   6.200  72.628  1.00  0.00    -0.245 C  
HETATM    2  O   UNL     1     -11.755   6.568  71.547  1.00  0.00    -0.298 OA 
ENDROOT
BRANCH   2   3
HETATM    3  C   UNL     1     -11.274   7.549  70.683  1.00  0.00    -0.268 C  
HETATM    4  C   UNL     1     -11.613   8.830  70.918  1.00  0.00    -0.277 C  
HETATM    5  C   UNL     1     -11.124   9.887  69.983  1.00  0.00    -0.285 C  
HETATM    6  O   UNL     1      -9.847   6.135  69.365  1.00  0.00    -0.150 OA 
HETATM    7  O   UNL     1     -11.045  11.072  70.291  1.00  0.00    -0.208 OA 
HETATM    8  C   UNL     1     -10.441   7.202  69.482  1.00  0.00    -0.225 C  
HETATM    9  C   UNL     1     -10.762   9.456  68.603  1.00  0.00    -0.196 C  
HETATM   10  C   UNL     1      -9.936   7.639  67.050  1.00  0.00    -0.310 C  
HETATM   11  C   UNL     1     -10.403   8.184  68.371  1.00  0.00    -0.236 C  
BRANCH   4  12
HETATM   12  O   UNL     1     -12.399   9.116  72.034  1.00  0.00    -0.360 OA 
HETATM   13  C   UNL     1     -13.778   9.401  71.834  1.00  0.00    -0.368 C  
ENDBRANCH   4  12
BRANCH   9  14
HETATM   14  C   UNL     1     -10.856  10.520  67.554  1.00  0.00    -0.357 C  
BRANCH  14  15
HETATM   15  C   UNL     1      -9.511  11.187  67.257  1.00  0.00    -0.178 C  
BRANCH  15  16
HETATM   16  C   UNL     1      -9.159  11.115  65.772  1.00  0.00    -0.222 C  
BRANCH  16  17
HETATM   17  C   UNL     1     -10.409  10.993  64.908  1.00  0.00    -0.378 C  
BRANCH  17  18
HETATM   18  C   UNL     1     -10.316  11.827  63.644  1.00  0.00    -0.476 C  
BRANCH  18  19
HETATM   19  C   UNL     1     -11.612  12.607  63.468  1.00  0.00    -0.584 C  
BRANCH  19  20
HETATM   20  C   UNL     1     -12.405  12.619  64.762  1.00  0.00    -0.556 C  
BRANCH  20  21
HETATM   21  C   UNL     1     -12.496  14.032  65.318  1.00  0.00    -0.495 C  
BRANCH  21  22
HETATM   22  C   UNL     1     -11.928  14.073  66.729  1.00  0.00    -0.473 C  
BRANCH  22  23
HETATM   23  C   UNL     1     -10.491  14.579  66.720  1.00  0.00    -0.270 C  
BRANCH  23  24
HETATM   24  C   UNL     1     -10.266  15.530  65.553  1.00  0.00    -0.415 C  
BRANCH  24  25
HETATM   25  C   UNL     1     -10.062  16.956  66.038  1.00  0.00    -0.319 C  
HETATM   26  O   UNL     1      -8.783  17.420  65.630  1.00  0.00    -0.449 OA 
HETATM   27  H   UNL     1      -8.655  18.312  65.933  1.00  0.00     0.000 HD 
ENDBRANCH  24  25
ENDBRANCH  23  24
ENDBRANCH  22  23
ENDBRANCH  21  22
ENDBRANCH  20  21
ENDBRANCH  19  20
ENDBRANCH  18  19
ENDBRANCH  17  18
ENDBRANCH  16  17
ENDBRANCH  15  16
ENDBRANCH  14  15
ENDBRANCH   9  14
ENDBRANCH   2   3
TORSDOF 14
ENDMDL
MODEL       25
REMARK 921   NORMALIZED FREE ENERGY PREDICTED BY IDOCK:   -4.97 KCAL/MOL
REMARK 922        TOTAL FREE ENERGY PREDICTED BY IDOCK:  -10.86 KCAL/MOL
REMARK 923 INTER-LIGAND FREE ENERGY PREDICTED BY IDOCK:   -9.24 KCAL/MOL
REMARK 924 INTRA-LIGAND FREE ENERGY PREDICTED BY IDOCK:   -1.63 KCAL/MOL
REMARK 927      BINDING AFFINITY PREDICTED BY RF-SCORE:    0.00 PKD
ROOT
HETATM    1  C   UNL     1      -7.964  17.753  68.691  1.00  0.00    -0.276 C  
HETATM    2  O   UNL     1      -7.805  17.581  67.289  1.00  0.00    -0.196 OA 
ENDROOT
BRANCH   2   3
HETATM    3  C   UNL     1      -8.703  16.722  66.658  1.00  0.00    -0.248 C  
HETATM    4  C   UNL     1      -9.681  17.260  65.908  1.00  0.00    -0.086 C  
HETATM    5  C   UNL     1     -10.665  16.350  65.247  1.00  0.00    -0.295 C  
HETATM    6  O   UNL     1      -7.624  14.656  67.240  1.00  0.00    -0.193 OA 
HETATM    7  O   UNL     1     -11.336  16.679  64.275  1.00  0.00    -1.116 OA 
HETATM    8  C   UNL     1      -8.629  15.233  66.840  1.00  0.00    -0.257 C  
HETATM    9  C   UNL     1     -10.848  15.000  65.850  1.00  0.00    -0.339 C  
HETATM   10  C   UNL     1      -9.884  13.071  67.171  1.00  0.00    -0.230 C  
HETATM   11  C   UNL     1      -9.864  14.452  66.580  1.00  0.00    -0.287 C  
BRANCH   4  12
HETATM   12  O   UNL     1      -9.729  18.647  65.772  1.00  0.00    -0.457 OA 
HETATM   13  C   UNL     1     -10.728  19.364  66.486  1.00  0.00    -0.418 C  
ENDBRANCH   4  12
BRANCH   9  14
HETATM   14  C   UNL     1     -12.176  14.357  65.592  1.00  0.00    -0.352 C  
BRANCH  14  15
HETATM   15  C   UNL     1     -12.231  13.614  64.256  1.00  0.00    -0.445 C  
BRANCH  15  16
HETATM   16  C   UNL     1     -11.684  12.192  64.377  1.00  0.00    -0.430 C  
BRANCH  16  17
HETATM   17  C   UNL     1     -10.477  11.980  63.470  1.00  0.00    -0.505 C  
BRANCH  17  18
HETATM   18  C   UNL     1      -9.880  10.594  63.628  1.00  0.00    -0.392 C  
BRANCH  18  19
HETATM   19  C   UNL     1      -9.888  10.215  65.103  1.00  0.00    -0.394 C  
BRANCH  19  20
HETATM   20  C   UNL     1      -8.970   9.033  65.353  1.00  0.00    -0.249 C  
BRANCH  20  21
HETATM   21  C   UNL     1      -9.239   8.429  66.723  1.00  0.00    -0.214 C  
BRANCH  21  22
HETATM   22  C   UNL     1     -10.490   9.048  67.327  1.00  0.00    -0.343 C  
BRANCH  22  23
HETATM   23  C   UNL     1     -10.506   8.870  68.840  1.00  0.00    -0.225 C  
BRANCH  23  24
HETATM   24  C   UNL     1     -10.416  10.220  69.539  1.00  0.00    -0.268 C  
BRANCH  24  25
HETATM   25  C   UNL     1     -11.713  10.552  70.258  1.00  0.00    -0.332 C  
HETATM   26  O   UNL     1     -12.760  10.703  69.311  1.00  0.00    -0.689 OA 
HETATM   27  H   UNL     1     -13.571  10.911  69.760  1.00  0.00     0.000 HD 
ENDBRANCH  24  25
ENDBRANCH  23  24
ENDBRANCH  22  23
ENDBRANCH  21  22
ENDBRANCH  20  21
ENDBRANCH  19  20
ENDBRANCH  18  19
ENDBRANCH  17  18
ENDBRANCH  16  17
ENDBRANCH  15  16
ENDBRANCH  14  15
ENDBRANCH   9  14
ENDBRANCH   2   3
TORSDOF 14
ENDMDL
MODEL       26
REMARK 921   NORMALIZED FREE ENERGY PREDICTED BY IDOCK:   -4.96 KCAL/MOL
REMARK 922        TOTAL FREE ENERGY PREDICTED BY IDOCK:  -10.85 KCAL/MOL
REMARK 923 INTER-LIGAND FREE ENERGY PREDICTED BY IDOCK:   -8.22 KCAL/MOL
REMARK 924 INTRA-LIGAND FREE ENERGY PREDICTED BY IDOCK:   -2.62 KCAL/MOL
REMARK 927      BINDING AFFINITY PREDICTED BY RF-SCORE:    0.00 PKD
ROOT
HETATM    1  C   UNL     1      -9.384   8.287  72.787  1.00  0.00    -0.268 C  
HETATM    2  O   UNL     1     -10.516   7.780  72.092  1.00  0.00    -0.208 OA 
ENDROOT
BRANCH   2   3
HETATM    3  C   UNL     1     -10.850   8.411  70.895  1.00  0.00    -0.231 C  
HETATM    4  C   UNL     1     -10.429   7.858  69.743  1.00  0.00    -0.233 C  
HETATM    5  C   UNL     1     -10.760   8.539  68.455  1.00  0.00    -0.031 C  
HETATM    6  O   UNL     1     -12.280  10.105  71.821  1.00  0.00    -0.374 OA 
HETATM    7  O   UNL     1     -10.767   7.963  67.373  1.00  0.00    -0.272 OA 
HETATM    8  C   UNL     1     -11.614   9.704  70.873  1.00  0.00    -0.344 C  
HETATM    9  C   UNL     1     -11.048  10.000  68.517  1.00  0.00    -0.219 C  
HETATM   10  C   UNL     1     -11.895  11.985  69.835  1.00  0.00    -0.405 C  
HETATM   11  C   UNL     1     -11.488  10.550  69.660  1.00  0.00    -0.349 C  
BRANCH   4  12
HETATM   12  O   UNL     1      -9.710   6.665  69.801  1.00  0.00    -0.159 OA 
HETATM   13  C   UNL     1     -10.426   5.439  69.715  1.00  0.00    -0.307 C  
ENDBRANCH   4  12
BRANCH   9  14
HETATM   14  C   UNL     1     -10.790  10.759  67.252  1.00  0.00    -0.344 C  
BRANCH  14  15
HETATM   15  C   UNL     1      -9.329  11.188  67.099  1.00  0.00    -0.176 C  
BRANCH  15  16
HETATM   16  C   UNL     1      -8.852  11.064  65.653  1.00  0.00    -0.187 C  
BRANCH  16  17
HETATM   17  C   UNL     1      -9.855  10.299  64.798  1.00  0.00    -0.403 C  
BRANCH  17  18
HETATM   18  C   UNL     1      -9.970  10.872  63.398  1.00  0.00    -0.414 C  
BRANCH  18  19
HETATM   19  C   UNL     1     -10.671  12.222  63.471  1.00  0.00    -0.497 C  
BRANCH  19  20
HETATM   20  C   UNL     1     -12.175  12.036  63.548  1.00  0.00    -0.653 C  
BRANCH  20  21
HETATM   21  C   UNL     1     -12.738  12.745  64.770  1.00  0.00    -0.469 C  
BRANCH  21  22
HETATM   22  C   UNL     1     -11.744  13.780  65.275  1.00  0.00    -0.349 C  
BRANCH  22  23
HETATM   23  C   UNL     1     -12.047  14.163  66.718  1.00  0.00    -0.474 C  
BRANCH  23  24
HETATM   24  C   UNL     1     -10.780  14.622  67.427  1.00  0.00    -0.280 C  
BRANCH  24  25
HETATM   25  C   UNL     1      -9.808  15.265  66.451  1.00  0.00    -0.275 C  
HETATM   26  O   UNL     1      -8.480  14.883  66.778  1.00  0.00    -0.302 OA 
HETATM   27  H   UNL     1      -7.872  15.284  66.168  1.00  0.00     0.000 HD 
ENDBRANCH  24  25
ENDBRANCH  23  24
ENDBRANCH  22  23
ENDBRANCH  21  22
ENDBRANCH  20  21
ENDBRANCH  19  20
ENDBRANCH  18  19
ENDBRANCH  17  18
ENDBRANCH  16  17
ENDBRANCH  15  16
ENDBRANCH  14  15
ENDBRANCH   9  14
ENDBRANCH   2   3
TORSDOF 14
ENDMDL
MODEL       27
REMARK 921   NORMALIZED FREE ENERGY PREDICTED BY IDOCK:   -4.95 KCAL/MOL
REMARK 922        TOTAL FREE ENERGY PREDICTED BY IDOCK:  -10.83 KCAL/MOL
REMARK 923 INTER-LIGAND FREE ENERGY PREDICTED BY IDOCK:   -8.66 KCAL/MOL
REMARK 924 INTRA-LIGAND FREE ENERGY PREDICTED BY IDOCK:   -2.17 KCAL/MOL
REMARK 927      BINDING AFFINITY PREDICTED BY RF-SCORE:    0.00 PKD
ROOT
HETATM    1  C   UNL     1     -12.299  13.100  63.333  1.00  0.00    -0.362 C  
HETATM    2  O   UNL     1     -10.933  12.998  63.713  1.00  0.00    -0.392 OA 
ENDROOT
BRANCH   2   3
HETATM    3  C   UNL     1     -10.664  12.324  64.903  1.00  0.00    -0.297 C  
HETATM    4  C   UNL     1     -10.200  11.063  64.832  1.00  0.00    -0.311 C  
HETATM    5  C   UNL     1      -9.931  10.322  66.101  1.00  0.00    -0.238 C  
HETATM    6  O   UNL     1     -11.055  14.161  66.401  1.00  0.00    -0.311 OA 
HETATM    7  O   UNL     1      -9.180   9.356  66.169  1.00  0.00    -0.163 OA 
HETATM    8  C   UNL     1     -10.928  12.952  66.242  1.00  0.00    -0.281 C  
HETATM    9  C   UNL     1     -10.662  10.778  67.317  1.00  0.00    -0.325 C  
HETATM   10  C   UNL     1     -11.780  12.651  68.596  1.00  0.00    -0.364 C  
HETATM   11  C   UNL     1     -11.107  12.041  67.399  1.00  0.00    -0.337 C  
BRANCH   4  12
HETATM   12  O   UNL     1      -9.978  10.505  63.573  1.00  0.00    -0.317 OA 
HETATM   13  C   UNL     1      -8.706  10.693  62.964  1.00  0.00    -0.208 C  
ENDBRANCH   4  12
BRANCH   9  14
HETATM   14  C   UNL     1     -10.859   9.735  68.374  1.00  0.00    -0.244 C  
BRANCH  14  15
HETATM   15  C   UNL     1      -9.740   9.722  69.417  1.00  0.00    -0.214 C  
BRANCH  15  16
HETATM   16  C   UNL     1     -10.285   9.513  70.830  1.00  0.00    -0.363 C  
BRANCH  16  17
HETATM   17  C   UNL     1     -11.748   9.927  70.929  1.00  0.00    -0.449 C  
BRANCH  17  18
HETATM   18  C   UNL     1     -12.516   9.082  71.928  1.00  0.00    -0.454 C  
BRANCH  18  19
HETATM   19  C   UNL     1     -11.620   7.949  72.411  1.00  0.00    -0.436 C  
BRANCH  19  20
HETATM   20  C   UNL     1     -12.096   6.620  71.854  1.00  0.00    -0.385 C  
BRANCH  20  21
HETATM   21  C   UNL     1     -10.930   5.840  71.266  1.00  0.00    -0.299 C  
BRANCH  21  22
HETATM   22  C   UNL     1     -10.968   5.913  69.747  1.00  0.00    -0.452 C  
BRANCH  22  23
HETATM   23  C   UNL     1      -9.564   5.825  69.165  1.00  0.00    -0.171 C  
BRANCH  23  24
HETATM   24  C   UNL     1      -9.582   6.139  67.675  1.00  0.00    -0.113 C  
BRANCH  24  25
HETATM   25  C   UNL     1     -11.001   6.369  67.180  1.00  0.00    -0.399 C  
HETATM   26  O   UNL     1     -11.274   5.498  66.092  1.00  0.00    -0.774 OA 
HETATM   27  H   UNL     1     -12.161   5.641  65.783  1.00  0.00     0.000 HD 
ENDBRANCH  24  25
ENDBRANCH  23  24
ENDBRANCH  22  23
ENDBRANCH  21  22
ENDBRANCH  20  21
ENDBRANCH  19  20
ENDBRANCH  18  19
ENDBRANCH  17  18
ENDBRANCH  16  17
ENDBRANCH  15  16
ENDBRANCH  14  15
ENDBRANCH   9  14
ENDBRANCH   2   3
TORSDOF 14
ENDMDL
MODEL       28
REMARK 921   NORMALIZED FREE ENERGY PREDICTED BY IDOCK:   -4.95 KCAL/MOL
REMARK 922        TOTAL FREE ENERGY PREDICTED BY IDOCK:  -10.83 KCAL/MOL
REMARK 923 INTER-LIGAND FREE ENERGY PREDICTED BY IDOCK:   -9.05 KCAL/MOL
REMARK 924 INTRA-LIGAND FREE ENERGY PREDICTED BY IDOCK:   -1.78 KCAL/MOL
REMARK 927      BINDING AFFINITY PREDICTED BY RF-SCORE:    0.00 PKD
ROOT
HETATM    1  C   UNL     1     -10.468  16.594  68.541  1.00  0.00    -0.319 C  
HETATM    2  O   UNL     1     -11.774  16.064  68.728  1.00  0.00    -0.385 OA 
ENDROOT
BRANCH   2   3
HETATM    3  C   UNL     1     -11.885  14.675  68.766  1.00  0.00    -0.313 C  
HETATM    4  C   UNL     1     -11.857  14.065  69.965  1.00  0.00    -0.320 C  
HETATM    5  C   UNL     1     -11.950  12.575  70.016  1.00  0.00    -0.299 C  
HETATM    6  O   UNL     1     -12.314  14.330  66.428  1.00  0.00    -0.448 OA 
HETATM    7  O   UNL     1     -12.307  11.958  71.014  1.00  0.00    -0.352 OA 
HETATM    8  C   UNL     1     -11.982  13.858  67.509  1.00  0.00    -0.386 C  
HETATM    9  C   UNL     1     -11.542  11.829  68.792  1.00  0.00    -0.367 C  
HETATM   10  C   UNL     1     -11.289  11.770  66.277  1.00  0.00    -0.350 C  
HETATM   11  C   UNL     1     -11.590  12.429  67.593  1.00  0.00    -0.421 C  
BRANCH   4  12
HETATM   12  O   UNL     1     -11.752  14.853  71.111  1.00  0.00    -0.307 OA 
HETATM   13  C   UNL     1     -12.949  15.285  71.746  1.00  0.00    -0.394 C  
ENDBRANCH   4  12
BRANCH   9  14
HETATM   14  C   UNL     1     -11.076  10.424  69.023  1.00  0.00    -0.297 C  
BRANCH  14  15
HETATM   15  C   UNL     1      -9.552  10.306  69.104  1.00  0.00    -0.229 C  
BRANCH  15  16
HETATM   16  C   UNL     1      -9.113   9.474  70.309  1.00  0.00    -0.296 C  
BRANCH  16  17
HETATM   17  C   UNL     1      -8.309   8.253  69.881  1.00  0.00    -0.125 C  
BRANCH  17  18
HETATM   18  C   UNL     1      -8.194   7.225  70.990  1.00  0.00    -0.107 C  
BRANCH  18  19
HETATM   19  C   UNL     1      -8.424   5.837  70.406  1.00  0.00    -0.129 C  
BRANCH  19  20
HETATM   20  C   UNL     1      -9.849   5.383  70.661  1.00  0.00    -0.254 C  
BRANCH  20  21
HETATM   21  C   UNL     1     -10.139   5.352  72.154  1.00  0.00    -0.237 C  
BRANCH  21  22
HETATM   22  C   UNL     1     -11.503   5.967  72.431  1.00  0.00    -0.357 C  
BRANCH  22  23
HETATM   23  C   UNL     1     -11.819   7.062  71.421  1.00  0.00    -0.359 C  
BRANCH  23  24
HETATM   24  C   UNL     1     -12.207   8.351  72.133  1.00  0.00    -0.434 C  
BRANCH  24  25
HETATM   25  C   UNL     1     -13.673   8.683  71.906  1.00  0.00    -0.421 C  
HETATM   26  O   UNL     1     -14.284   9.019  73.144  1.00  0.00    -1.142 OA 
HETATM   27  H   UNL     1     -15.200   9.227  73.002  1.00  0.00     0.000 HD 
ENDBRANCH  24  25
ENDBRANCH  23  24
ENDBRANCH  22  23
ENDBRANCH  21  22
ENDBRANCH  20  21
ENDBRANCH  19  20
ENDBRANCH  18  19
ENDBRANCH  17  18
ENDBRANCH  16  17
ENDBRANCH  15  16
ENDBRANCH  14  15
ENDBRANCH   9  14
ENDBRANCH   2   3
TORSDOF 14
ENDMDL
MODEL       29
REMARK 921   NORMALIZED FREE ENERGY PREDICTED BY IDOCK:   -4.95 KCAL/MOL
REMARK 922        TOTAL FREE ENERGY PREDICTED BY IDOCK:  -10.82 KCAL/MOL
REMARK 923 INTER-LIGAND FREE ENERGY PREDICTED BY IDOCK:   -8.72 KCAL/MOL
REMARK 924 INTRA-LIGAND FREE ENERGY PREDICTED BY IDOCK:   -2.10 KCAL/MOL
REMARK 927      BINDING AFFINITY PREDICTED BY RF-SCORE:    0.00 PKD
ROOT
HETATM    1  C   UNL     1     -10.071  15.804  69.589  1.00  0.00    -0.289 C  
HETATM    2  O   UNL     1     -11.476  15.652  69.739  1.00  0.00    -0.290 OA 
ENDROOT
BRANCH   2   3
HETATM    3  C   UNL     1     -11.950  14.352  69.906  1.00  0.00    -0.335 C  
HETATM    4  C   UNL     1     -12.341  13.969  71.135  1.00  0.00    -0.365 C  
HETATM    5  C   UNL     1     -12.828  12.570  71.331  1.00  0.00    -0.260 C  
HETATM    6  O   UNL     1     -11.937  13.712  67.591  1.00  0.00    -0.360 OA 
HETATM    7  O   UNL     1     -13.540  12.231  72.270  1.00  0.00    -0.472 OA 
HETATM    8  C   UNL     1     -11.982  13.372  68.768  1.00  0.00    -0.324 C  
HETATM    9  C   UNL     1     -12.372  11.550  70.344  1.00  0.00    -0.390 C  
HETATM   10  C   UNL     1     -11.604  11.001  67.998  1.00  0.00    -0.326 C  
HETATM   11  C   UNL     1     -12.002  11.929  69.110  1.00  0.00    -0.336 C  
BRANCH   4  12
HETATM   12  O   UNL     1     -12.287  14.899  72.172  1.00  0.00    -0.330 OA 
HETATM   13  C   UNL     1     -13.467  15.625  72.493  1.00  0.00    -0.538 C  
ENDBRANCH   4  12
BRANCH   9  14
HETATM   14  C   UNL     1     -12.348  10.139  70.844  1.00  0.00    -0.461 C  
BRANCH  14  15
HETATM   15  C   UNL     1     -10.959   9.691  71.304  1.00  0.00    -0.399 C  
BRANCH  15  16
HETATM   16  C   UNL     1     -10.573   8.339  70.703  1.00  0.00    -0.235 C  
BRANCH  16  17
HETATM   17  C   UNL     1      -9.184   8.383  70.079  1.00  0.00    -0.158 C  
BRANCH  17  18
HETATM   18  C   UNL     1      -8.678   9.802  69.906  1.00  0.00    -0.238 C  
BRANCH  18  19
HETATM   19  C   UNL     1      -8.254  10.004  68.457  1.00  0.00    -0.108 C  
BRANCH  19  20
HETATM   20  C   UNL     1      -8.227   8.677  67.721  1.00  0.00    -0.118 C  
BRANCH  20  21
HETATM   21  C   UNL     1      -9.144   8.721  66.508  1.00  0.00    -0.203 C  
BRANCH  21  22
HETATM   22  C   UNL     1      -8.975  10.044  65.776  1.00  0.00    -0.187 C  
BRANCH  22  23
HETATM   23  C   UNL     1     -10.152  10.303  64.844  1.00  0.00    -0.346 C  
BRANCH  23  24
HETATM   24  C   UNL     1     -10.358  11.798  64.645  1.00  0.00    -0.336 C  
BRANCH  24  25
HETATM   25  C   UNL     1     -11.798  12.108  64.270  1.00  0.00    -0.378 C  
HETATM   26  O   UNL     1     -12.078  11.584  62.980  1.00  0.00    -0.939 OA 
HETATM   27  H   UNL     1     -12.978  11.777  62.745  1.00  0.00     0.000 HD 
ENDBRANCH  24  25
ENDBRANCH  23  24
ENDBRANCH  22  23
ENDBRANCH  21  22
ENDBRANCH  20  21
ENDBRANCH  19  20
ENDBRANCH  18  19
ENDBRANCH  17  18
ENDBRANCH  16  17
ENDBRANCH  15  16
ENDBRANCH  14  15
ENDBRANCH   9  14
ENDBRANCH   2   3
TORSDOF 14
ENDMDL
MODEL       30
REMARK 921   NORMALIZED FREE ENERGY PREDICTED BY IDOCK:   -4.95 KCAL/MOL
REMARK 922        TOTAL FREE ENERGY PREDICTED BY IDOCK:  -10.81 KCAL/MOL
REMARK 923 INTER-LIGAND FREE ENERGY PREDICTED BY IDOCK:   -9.32 KCAL/MOL
REMARK 924 INTRA-LIGAND FREE ENERGY PREDICTED BY IDOCK:   -1.50 KCAL/MOL
REMARK 927      BINDING AFFINITY PREDICTED BY RF-SCORE:    0.00 PKD
ROOT
HETATM    1  C   UNL     1      -9.169  10.338  64.410  1.00  0.00    -0.252 C  
HETATM    2  O   UNL     1     -10.118  10.431  65.464  1.00  0.00    -0.274 OA 
ENDROOT
BRANCH   2   3
HETATM    3  C   UNL     1     -10.245  11.673  66.084  1.00  0.00    -0.226 C  
HETATM    4  C   UNL     1     -11.192  12.516  65.636  1.00  0.00    -0.317 C  
HETATM    5  C   UNL     1     -11.320  13.860  66.277  1.00  0.00    -0.324 C  
HETATM    6  O   UNL     1      -8.654  11.307  67.847  1.00  0.00    -0.126 OA 
HETATM    7  O   UNL     1     -12.342  14.536  66.222  1.00  0.00    -0.339 OA 
HETATM    8  C   UNL     1      -9.322  12.099  67.191  1.00  0.00    -0.193 C  
HETATM    9  C   UNL     1     -10.115  14.396  66.971  1.00  0.00    -0.256 C  
HETATM   10  C   UNL     1      -7.964  13.955  68.225  1.00  0.00    -0.148 C  
HETATM   11  C   UNL     1      -9.179  13.555  67.437  1.00  0.00    -0.223 C  
BRANCH   4  12
HETATM   12  O   UNL     1     -12.023  12.095  64.599  1.00  0.00    -0.366 OA 
HETATM   13  C   UNL     1     -11.907  12.738  63.336  1.00  0.00    -0.518 C  
ENDBRANCH   4  12
BRANCH   9  14
HETATM   14  C   UNL     1     -10.044  15.889  67.071  1.00  0.00    -0.268 C  
BRANCH  14  15
HETATM   15  C   UNL     1     -11.031  16.467  68.088  1.00  0.00    -0.336 C  
BRANCH  15  16
HETATM   16  C   UNL     1     -10.451  16.470  69.502  1.00  0.00    -0.298 C  
BRANCH  16  17
HETATM   17  C   UNL     1     -11.272  15.596  70.443  1.00  0.00    -0.374 C  
BRANCH  17  18
HETATM   18  C   UNL     1     -11.738  16.357  71.669  1.00  0.00    -0.372 C  
BRANCH  18  19
HETATM   19  C   UNL     1     -12.373  15.379  72.649  1.00  0.00    -0.492 C  
BRANCH  19  20
HETATM   20  C   UNL     1     -13.848  15.201  72.341  1.00  0.00    -0.617 C  
BRANCH  20  21
HETATM   21  C   UNL     1     -14.202  13.724  72.260  1.00  0.00    -0.563 C  
BRANCH  21  22
HETATM   22  C   UNL     1     -12.965  12.911  71.909  1.00  0.00    -0.405 C  
BRANCH  22  23
HETATM   23  C   UNL     1     -13.267  11.419  71.949  1.00  0.00    -0.485 C  
BRANCH  23  24
HETATM   24  C   UNL     1     -12.267  10.648  71.098  1.00  0.00    -0.479 C  
BRANCH  24  25
HETATM   25  C   UNL     1     -11.818  11.469  69.900  1.00  0.00    -0.355 C  
HETATM   26  O   UNL     1     -12.486  11.014  68.732  1.00  0.00    -0.712 OA 
HETATM   27  H   UNL     1     -12.206  11.528  67.983  1.00  0.00     0.000 HD 
ENDBRANCH  24  25
ENDBRANCH  23  24
ENDBRANCH  22  23
ENDBRANCH  21  22
ENDBRANCH  20  21
ENDBRANCH  19  20
ENDBRANCH  18  19
ENDBRANCH  17  18
ENDBRANCH  16  17
ENDBRANCH  15  16
ENDBRANCH  14  15
ENDBRANCH   9  14
ENDBRANCH   2   3
TORSDOF 14
ENDMDL
MODEL       31
REMARK 921   NORMALIZED FREE ENERGY PREDICTED BY IDOCK:   -4.94 KCAL/MOL
REMARK 922        TOTAL FREE ENERGY PREDICTED BY IDOCK:  -10.81 KCAL/MOL
REMARK 923 INTER-LIGAND FREE ENERGY PREDICTED BY IDOCK:   -8.63 KCAL/MOL
REMARK 924 INTRA-LIGAND FREE ENERGY PREDICTED BY IDOCK:   -2.18 KCAL/MOL
REMARK 927      BINDING AFFINITY PREDICTED BY RF-SCORE:    0.00 PKD
ROOT
HETATM    1  C   UNL     1      -9.484   9.974  67.198  1.00  0.00    -0.155 C  
HETATM    2  O   UNL     1     -10.626  10.446  66.496  1.00  0.00    -0.218 OA 
ENDROOT
BRANCH   2   3
HETATM    3  C   UNL     1     -11.172  11.653  66.929  1.00  0.00    -0.313 C  
HETATM    4  C   UNL     1     -11.064  12.727  66.127  1.00  0.00    -0.290 C  
HETATM    5  C   UNL     1     -11.624  14.032  66.592  1.00  0.00    -0.382 C  
HETATM    6  O   UNL     1     -12.224  10.824  68.924  1.00  0.00    -0.447 OA 
HETATM    7  O   UNL     1     -11.918  14.947  65.831  1.00  0.00    -0.215 OA 
HETATM    8  C   UNL     1     -11.821  11.785  68.278  1.00  0.00    -0.271 C  
HETATM    9  C   UNL     1     -11.778  14.216  68.063  1.00  0.00    -0.394 C  
HETATM   10  C   UNL     1     -12.153  13.191  70.344  1.00  0.00    -0.392 C  
HETATM   11  C   UNL     1     -11.907  13.145  68.863  1.00  0.00    -0.361 C  
BRANCH   4  12
HETATM   12  O   UNL     1     -10.444  12.573  64.887  1.00  0.00    -0.285 OA 
HETATM   13  C   UNL     1     -11.263  12.421  63.735  1.00  0.00    -0.453 C  
ENDBRANCH   4  12
BRANCH   9  14
HETATM   14  C   UNL     1     -11.755  15.636  68.538  1.00  0.00    -0.339 C  
BRANCH  14  15
HETATM   15  C   UNL     1     -10.431  16.023  69.202  1.00  0.00    -0.251 C  
BRANCH  15  16
HETATM   16  C   UNL     1      -9.244  15.805  68.264  1.00  0.00    -0.188 C  
BRANCH  16  17
HETATM   17  C   UNL     1      -8.124  15.033  68.953  1.00  0.00    -0.176 C  
BRANCH  17  18
HETATM   18  C   UNL     1      -7.016  15.946  69.442  1.00  0.00    -0.211 C  
BRANCH  18  19
HETATM   19  C   UNL     1      -6.925  17.154  68.519  1.00  0.00    -0.201 C  
BRANCH  19  20
HETATM   20  C   UNL     1      -6.484  18.383  69.293  1.00  0.00    -0.268 C  
BRANCH  20  21
HETATM   21  C   UNL     1      -7.273  19.605  68.848  1.00  0.00    -0.381 C  
BRANCH  21  22
HETATM   22  C   UNL     1      -8.356  19.194  67.863  1.00  0.00    -0.333 C  
BRANCH  22  23
HETATM   23  C   UNL     1      -9.734  19.597  68.373  1.00  0.00    -0.497 C  
BRANCH  23  24
HETATM   24  C   UNL     1     -10.820  19.105  67.426  1.00  0.00    -0.533 C  
BRANCH  24  25
HETATM   25  C   UNL     1     -10.292  18.977  66.006  1.00  0.00    -0.446 C  
HETATM   26  O   UNL     1     -10.762  17.766  65.430  1.00  0.00    -0.626 OA 
HETATM   27  H   UNL     1     -10.433  17.686  64.543  1.00  0.00     0.000 HD 
ENDBRANCH  24  25
ENDBRANCH  23  24
ENDBRANCH  22  23
ENDBRANCH  21  22
ENDBRANCH  20  21
ENDBRANCH  19  20
ENDBRANCH  18  19
ENDBRANCH  17  18
ENDBRANCH  16  17
ENDBRANCH  15  16
ENDBRANCH  14  15
ENDBRANCH   9  14
ENDBRANCH   2   3
TORSDOF 14
ENDMDL
MODEL       32
REMARK 921   NORMALIZED FREE ENERGY PREDICTED BY IDOCK:   -4.93 KCAL/MOL
REMARK 922        TOTAL FREE ENERGY PREDICTED BY IDOCK:  -10.79 KCAL/MOL
REMARK 923 INTER-LIGAND FREE ENERGY PREDICTED BY IDOCK:   -8.55 KCAL/MOL
REMARK 924 INTRA-LIGAND FREE ENERGY PREDICTED BY IDOCK:   -2.24 KCAL/MOL
REMARK 927      BINDING AFFINITY PREDICTED BY RF-SCORE:    0.00 PKD
ROOT
HETATM    1  C   UNL     1     -10.516   7.315  73.698  1.00  0.00    -0.344 C  
HETATM    2  O   UNL     1     -11.149   7.115  72.442  1.00  0.00    -0.243 OA 
ENDROOT
BRANCH   2   3
HETATM    3  C   UNL     1     -10.894   8.064  71.454  1.00  0.00    -0.231 C  
HETATM    4  C   UNL     1     -11.704   9.135  71.373  1.00  0.00    -0.343 C  
HETATM    5  C   UNL     1     -11.454  10.147  70.302  1.00  0.00    -0.306 C  
HETATM    6  O   UNL     1      -8.834   7.129  70.645  1.00  0.00    -0.147 OA 
HETATM    7  O   UNL     1     -11.862  11.302  70.361  1.00  0.00    -0.328 OA 
HETATM    8  C   UNL     1      -9.779   7.889  70.463  1.00  0.00    -0.174 C  
HETATM    9  C   UNL     1     -10.707   9.686  69.097  1.00  0.00    -0.237 C  
HETATM   10  C   UNL     1      -9.009   8.118  68.072  1.00  0.00    -0.134 C  
HETATM   11  C   UNL     1      -9.882   8.632  69.182  1.00  0.00    -0.185 C  
BRANCH   4  12
HETATM   12  O   UNL     1     -12.738   9.260  72.300  1.00  0.00    -0.382 OA 
HETATM   13  C   UNL     1     -14.035   8.809  71.932  1.00  0.00    -0.436 C  
ENDBRANCH   4  12
BRANCH   9  14
HETATM   14  C   UNL     1     -10.971  10.463  67.844  1.00  0.00    -0.354 C  
BRANCH  14  15
HETATM   15  C   UNL     1      -9.883  11.494  67.539  1.00  0.00    -0.203 C  
BRANCH  15  16
HETATM   16  C   UNL     1      -9.334  11.335  66.121  1.00  0.00    -0.230 C  
BRANCH  16  17
HETATM   17  C   UNL     1     -10.264  10.494  65.255  1.00  0.00    -0.352 C  
BRANCH  17  18
HETATM   18  C   UNL     1     -10.161  10.856  63.785  1.00  0.00    -0.413 C  
BRANCH  18  19
HETATM   19  C   UNL     1     -10.808  12.218  63.563  1.00  0.00    -0.508 C  
BRANCH  19  20
HETATM   20  C   UNL     1     -12.257  12.196  64.012  1.00  0.00    -0.544 C  
BRANCH  20  21
HETATM   21  C   UNL     1     -12.536  13.347  64.968  1.00  0.00    -0.459 C  
BRANCH  21  22
HETATM   22  C   UNL     1     -11.367  14.320  64.966  1.00  0.00    -0.365 C  
BRANCH  22  23
HETATM   23  C   UNL     1     -11.136  14.894  66.358  1.00  0.00    -0.342 C  
BRANCH  23  24
HETATM   24  C   UNL     1     -12.005  14.177  67.382  1.00  0.00    -0.439 C  
BRANCH  24  25
HETATM   25  C   UNL     1     -11.678  14.635  68.794  1.00  0.00    -0.324 C  
HETATM   26  O   UNL     1     -12.715  15.478  69.275  1.00  0.00    -0.524 OA 
HETATM   27  H   UNL     1     -12.511  15.764  70.158  1.00  0.00     0.000 HD 
ENDBRANCH  24  25
ENDBRANCH  23  24
ENDBRANCH  22  23
ENDBRANCH  21  22
ENDBRANCH  20  21
ENDBRANCH  19  20
ENDBRANCH  18  19
ENDBRANCH  17  18
ENDBRANCH  16  17
ENDBRANCH  15  16
ENDBRANCH  14  15
ENDBRANCH   9  14
ENDBRANCH   2   3
TORSDOF 14
ENDMDL
MODEL       33
REMARK 921   NORMALIZED FREE ENERGY PREDICTED BY IDOCK:   -4.93 KCAL/MOL
REMARK 922        TOTAL FREE ENERGY PREDICTED BY IDOCK:  -10.78 KCAL/MOL
REMARK 923 INTER-LIGAND FREE ENERGY PREDICTED BY IDOCK:   -9.03 KCAL/MOL
REMARK 924 INTRA-LIGAND FREE ENERGY PREDICTED BY IDOCK:   -1.75 KCAL/MOL
REMARK 927      BINDING AFFINITY PREDICTED BY RF-SCORE:    0.00 PKD
ROOT
HETATM    1  C   UNL     1     -12.075   8.364  72.136  1.00  0.00    -0.373 C  
HETATM    2  O   UNL     1     -11.091   9.322  71.769  1.00  0.00    -0.364 OA 
ENDROOT
BRANCH   2   3
HETATM    3  C   UNL     1     -11.272   9.967  70.546  1.00  0.00    -0.330 C  
HETATM    4  C   UNL     1     -10.721   9.419  69.448  1.00  0.00    -0.217 C  
HETATM    5  C   UNL     1     -10.887  10.115  68.136  1.00  0.00    -0.262 C  
HETATM    6  O   UNL     1     -12.785  11.670  71.309  1.00  0.00    -0.393 OA 
HETATM    7  O   UNL     1     -10.770   9.548  67.055  1.00  0.00    -0.231 OA 
HETATM    8  C   UNL     1     -12.014  11.269  70.444  1.00  0.00    -0.380 C  
HETATM    9  C   UNL     1     -11.165  11.578  68.177  1.00  0.00    -0.335 C  
HETATM   10  C   UNL     1     -12.144  13.562  69.403  1.00  0.00    -0.340 C  
HETATM   11  C   UNL     1     -11.734  12.123  69.264  1.00  0.00    -0.386 C  
BRANCH   4  12
HETATM   12  O   UNL     1     -10.027   8.217  69.580  1.00  0.00    -0.185 OA 
HETATM   13  C   UNL     1      -8.607   8.243  69.501  1.00  0.00    -0.134 C  
ENDBRANCH   4  12
BRANCH   9  14
HETATM   14  C   UNL     1     -10.749  12.344  66.960  1.00  0.00    -0.268 C  
BRANCH  14  15
HETATM   15  C   UNL     1     -11.869  12.478  65.925  1.00  0.00    -0.489 C  
BRANCH  15  16
HETATM   16  C   UNL     1     -12.124  13.938  65.553  1.00  0.00    -0.425 C  
BRANCH  16  17
HETATM   17  C   UNL     1     -10.956  14.526  64.770  1.00  0.00    -0.404 C  
BRANCH  17  18
HETATM   18  C   UNL     1     -10.551  15.894  65.286  1.00  0.00    -0.441 C  
BRANCH  18  19
HETATM   19  C   UNL     1      -9.193  15.785  65.968  1.00  0.00    -0.379 C  
BRANCH  19  20
HETATM   20  C   UNL     1      -9.346  15.885  67.474  1.00  0.00    -0.217 C  
BRANCH  20  21
HETATM   21  C   UNL     1     -10.580  16.699  67.832  1.00  0.00    -0.342 C  
BRANCH  21  22
HETATM   22  C   UNL     1     -10.168  17.995  68.514  1.00  0.00    -0.392 C  
BRANCH  22  23
HETATM   23  C   UNL     1      -8.672  18.236  68.361  1.00  0.00    -0.325 C  
BRANCH  23  24
HETATM   24  C   UNL     1      -8.408  19.622  67.791  1.00  0.00    -0.346 C  
BRANCH  24  25
HETATM   25  C   UNL     1      -9.698  20.278  67.326  1.00  0.00    -0.450 C  
HETATM   26  O   UNL     1      -9.744  20.290  65.907  1.00  0.00    -0.623 OA 
HETATM   27  H   UNL     1     -10.550  20.700  65.616  1.00  0.00     0.000 HD 
ENDBRANCH  24  25
ENDBRANCH  23  24
ENDBRANCH  22  23
ENDBRANCH  21  22
ENDBRANCH  20  21
ENDBRANCH  19  20
ENDBRANCH  18  19
ENDBRANCH  17  18
ENDBRANCH  16  17
ENDBRANCH  15  16
ENDBRANCH  14  15
ENDBRANCH   9  14
ENDBRANCH   2   3
TORSDOF 14
ENDMDL
MODEL       34
REMARK 921   NORMALIZED FREE ENERGY PREDICTED BY IDOCK:   -4.91 KCAL/MOL
REMARK 922        TOTAL FREE ENERGY PREDICTED BY IDOCK:  -10.75 KCAL/MOL
REMARK 923 INTER-LIGAND FREE ENERGY PREDICTED BY IDOCK:   -8.52 KCAL/MOL
REMARK 924 INTRA-LIGAND FREE ENERGY PREDICTED BY IDOCK:   -2.23 KCAL/MOL
REMARK 927      BINDING AFFINITY PREDICTED BY RF-SCORE:    0.00 PKD
ROOT
HETATM    1  C   UNL     1     -11.978  14.164  69.415  1.00  0.00    -0.337 C  
HETATM    2  O   UNL     1     -12.280  12.855  68.951  1.00  0.00    -0.213 OA 
ENDROOT
BRANCH   2   3
HETATM    3  C   UNL     1     -11.706  11.795  69.652  1.00  0.00    -0.344 C  
HETATM    4  C   UNL     1     -10.575  11.250  69.170  1.00  0.00    -0.187 C  
HETATM    5  C   UNL     1      -9.964  10.097  69.899  1.00  0.00    -0.203 C  
HETATM    6  O   UNL     1     -13.179  11.838  71.549  1.00  0.00    -0.361 OA 
HETATM    7  O   UNL     1      -8.786   9.778  69.783  1.00  0.00    -0.193 OA 
HETATM    8  C   UNL     1     -12.346  11.229  70.887  1.00  0.00    -0.388 C  
HETATM    9  C   UNL     1     -10.868   9.291  70.767  1.00  0.00    -0.349 C  
HETATM   10  C   UNL     1     -12.935   9.170  72.218  1.00  0.00    -0.492 C  
HETATM   11  C   UNL     1     -11.986   9.841  71.267  1.00  0.00    -0.471 C  
BRANCH   4  12
HETATM   12  O   UNL     1     -10.015  11.791  68.013  1.00  0.00    -0.177 OA 
HETATM   13  C   UNL     1      -8.905  12.671  68.147  1.00  0.00    -0.194 C  
ENDBRANCH   4  12
BRANCH   9  14
HETATM   14  C   UNL     1     -10.440   7.874  70.996  1.00  0.00    -0.223 C  
BRANCH  14  15
HETATM   15  C   UNL     1     -11.009   6.902  69.960  1.00  0.00    -0.320 C  
BRANCH  15  16
HETATM   16  C   UNL     1     -10.096   6.777  68.741  1.00  0.00    -0.165 C  
BRANCH  16  17
HETATM   17  C   UNL     1     -10.883   6.892  67.441  1.00  0.00    -0.396 C  
BRANCH  17  18
HETATM   18  C   UNL     1     -10.642   8.216  66.741  1.00  0.00    -0.223 C  
BRANCH  18  19
HETATM   19  C   UNL     1      -9.141   8.447  66.619  1.00  0.00    -0.202 C  
BRANCH  19  20
HETATM   20  C   UNL     1      -8.796   8.978  65.240  1.00  0.00    -0.234 C  
BRANCH  20  21
HETATM   21  C   UNL     1      -9.271  10.415  65.087  1.00  0.00    -0.250 C  
BRANCH  21  22
HETATM   22  C   UNL     1      -9.888  10.615  63.711  1.00  0.00    -0.394 C  
BRANCH  22  23
HETATM   23  C   UNL     1     -10.412  12.037  63.553  1.00  0.00    -0.505 C  
BRANCH  23  24
HETATM   24  C   UNL     1     -11.926  12.069  63.702  1.00  0.00    -0.612 C  
BRANCH  24  25
HETATM   25  C   UNL     1     -12.344  12.926  64.886  1.00  0.00    -0.475 C  
HETATM   26  O   UNL     1     -12.164  12.196  66.091  1.00  0.00    -0.611 OA 
HETATM   27  H   UNL     1     -12.424  12.732  66.831  1.00  0.00     0.000 HD 
ENDBRANCH  24  25
ENDBRANCH  23  24
ENDBRANCH  22  23
ENDBRANCH  21  22
ENDBRANCH  20  21
ENDBRANCH  19  20
ENDBRANCH  18  19
ENDBRANCH  17  18
ENDBRANCH  16  17
ENDBRANCH  15  16
ENDBRANCH  14  15
ENDBRANCH   9  14
ENDBRANCH   2   3
TORSDOF 14
ENDMDL
MODEL       35
REMARK 921   NORMALIZED FREE ENERGY PREDICTED BY IDOCK:   -4.91 KCAL/MOL
REMARK 922        TOTAL FREE ENERGY PREDICTED BY IDOCK:  -10.75 KCAL/MOL
REMARK 923 INTER-LIGAND FREE ENERGY PREDICTED BY IDOCK:   -8.74 KCAL/MOL
REMARK 924 INTRA-LIGAND FREE ENERGY PREDICTED BY IDOCK:   -2.01 KCAL/MOL
REMARK 927      BINDING AFFINITY PREDICTED BY RF-SCORE:    0.00 PKD
ROOT
HETATM    1  C   UNL     1     -12.169  14.273  64.376  1.00  0.00    -0.447 C  
HETATM    2  O   UNL     1     -11.197  14.050  65.389  1.00  0.00    -0.306 OA 
ENDROOT
BRANCH   2   3
HETATM    3  C   UNL     1     -11.268  12.833  66.066  1.00  0.00    -0.299 C  
HETATM    4  C   UNL     1     -11.643  12.841  67.357  1.00  0.00    -0.356 C  
HETATM    5  C   UNL     1     -11.698  11.546  68.099  1.00  0.00    -0.287 C  
HETATM    6  O   UNL     1     -10.832  11.402  64.185  1.00  0.00    -0.347 OA 
HETATM    7  O   UNL     1     -12.362  11.381  69.117  1.00  0.00    -0.356 OA 
HETATM    8  C   UNL     1     -10.887  11.540  65.402  1.00  0.00    -0.259 C  
HETATM    9  C   UNL     1     -10.858  10.431  67.576  1.00  0.00    -0.358 C  
HETATM   10  C   UNL     1      -9.732   9.308  65.610  1.00  0.00    -0.302 C  
HETATM   11  C   UNL     1     -10.501  10.410  66.283  1.00  0.00    -0.229 C  
BRANCH   4  12
HETATM   12  O   UNL     1     -11.977  14.061  67.946  1.00  0.00    -0.360 OA 
HETATM   13  C   UNL     1     -11.322  14.430  69.154  1.00  0.00    -0.277 C  
ENDBRANCH   4  12
BRANCH   9  14
HETATM   14  C   UNL     1     -10.456   9.402  68.588  1.00  0.00    -0.236 C  
BRANCH  14  15
HETATM   15  C   UNL     1      -9.244   9.825  69.421  1.00  0.00    -0.214 C  
BRANCH  15  16
HETATM   16  C   UNL     1      -9.342   9.317  70.859  1.00  0.00    -0.313 C  
BRANCH  16  17
HETATM   17  C   UNL     1     -10.790   9.256  71.332  1.00  0.00    -0.434 C  
BRANCH  17  18
HETATM   18  C   UNL     1     -11.029   8.111  72.297  1.00  0.00    -0.399 C  
BRANCH  18  19
HETATM   19  C   UNL     1     -10.373   6.852  71.746  1.00  0.00    -0.217 C  
BRANCH  19  20
HETATM   20  C   UNL     1     -11.397   5.989  71.030  1.00  0.00    -0.299 C  
BRANCH  20  21
HETATM   21  C   UNL     1     -11.124   5.968  69.534  1.00  0.00    -0.468 C  
BRANCH  21  22
HETATM   22  C   UNL     1      -9.674   5.585  69.275  1.00  0.00    -0.214 C  
BRANCH  22  23
HETATM   23  C   UNL     1      -9.356   5.642  67.787  1.00  0.00    -0.113 C  
BRANCH  23  24
HETATM   24  C   UNL     1     -10.635   5.594  66.964  1.00  0.00    -0.358 C  
BRANCH  24  25
HETATM   25  C   UNL     1     -10.467   4.709  65.740  1.00  0.00    -0.255 C  
HETATM   26  O   UNL     1     -11.723   4.536  65.100  1.00  0.00    -1.036 OA 
HETATM   27  H   UNL     1     -11.618   3.983  64.334  1.00  0.00     0.000 HD 
ENDBRANCH  24  25
ENDBRANCH  23  24
ENDBRANCH  22  23
ENDBRANCH  21  22
ENDBRANCH  20  21
ENDBRANCH  19  20
ENDBRANCH  18  19
ENDBRANCH  17  18
ENDBRANCH  16  17
ENDBRANCH  15  16
ENDBRANCH  14  15
ENDBRANCH   9  14
ENDBRANCH   2   3
TORSDOF 14
ENDMDL
MODEL       36
REMARK 921   NORMALIZED FREE ENERGY PREDICTED BY IDOCK:   -4.90 KCAL/MOL
REMARK 922        TOTAL FREE ENERGY PREDICTED BY IDOCK:  -10.73 KCAL/MOL
REMARK 923 INTER-LIGAND FREE ENERGY PREDICTED BY IDOCK:   -8.54 KCAL/MOL
REMARK 924 INTRA-LIGAND FREE ENERGY PREDICTED BY IDOCK:   -2.19 KCAL/MOL
REMARK 927      BINDING AFFINITY PREDICTED BY RF-SCORE:    0.00 PKD
ROOT
HETATM    1  C   UNL     1     -13.908  13.440  72.176  1.00  0.00    -0.511 C  
HETATM    2  O   UNL     1     -12.549  13.352  71.768  1.00  0.00    -0.249 OA 
ENDROOT
BRANCH   2   3
HETATM    3  C   UNL     1     -12.276  13.655  70.435  1.00  0.00    -0.363 C  
HETATM    4  C   UNL     1     -12.124  12.639  69.567  1.00  0.00    -0.192 C  
HETATM    5  C   UNL     1     -11.807  12.953  68.141  1.00  0.00    -0.336 C  
HETATM    6  O   UNL     1     -12.509  16.041  70.602  1.00  0.00    -0.322 OA 
HETATM    7  O   UNL     1     -12.015  12.172  67.219  1.00  0.00    -0.573 OA 
HETATM    8  C   UNL     1     -12.099  15.073  69.970  1.00  0.00    -0.337 C  
HETATM    9  C   UNL     1     -11.165  14.269  67.865  1.00  0.00    -0.305 C  
HETATM   10  C   UNL     1     -10.814  16.686  68.519  1.00  0.00    -0.356 C  
HETATM   11  C   UNL     1     -11.333  15.290  68.719  1.00  0.00    -0.318 C  
BRANCH   4  12
HETATM   12  O   UNL     1     -12.282  11.335  70.034  1.00  0.00    -0.310 OA 
HETATM   13  C   UNL     1     -11.125  10.515  70.154  1.00  0.00    -0.298 C  
ENDBRANCH   4  12
BRANCH   9  14
HETATM   14  C   UNL     1     -10.339  14.330  66.616  1.00  0.00    -0.279 C  
BRANCH  14  15
HETATM   15  C   UNL     1      -8.839  14.441  66.896  1.00  0.00    -0.246 C  
BRANCH  15  16
HETATM   16  C   UNL     1      -8.359  13.347  67.850  1.00  0.00    -0.166 C  
BRANCH  16  17
HETATM   17  C   UNL     1      -7.914  12.102  67.092  1.00  0.00    -0.170 C  
BRANCH  17  18
HETATM   18  C   UNL     1      -7.801  10.890  67.997  1.00  0.00    -0.107 C  
BRANCH  18  19
HETATM   19  C   UNL     1      -8.602   9.744  67.394  1.00  0.00    -0.128 C  
BRANCH  19  20
HETATM   20  C   UNL     1      -9.471  10.245  66.254  1.00  0.00    -0.223 C  
BRANCH  20  21
HETATM   21  C   UNL     1      -9.141   9.505  64.967  1.00  0.00    -0.281 C  
BRANCH  21  22
HETATM   22  C   UNL     1      -9.544  10.347  63.766  1.00  0.00    -0.366 C  
BRANCH  22  23
HETATM   23  C   UNL     1     -10.207  11.645  64.211  1.00  0.00    -0.357 C  
BRANCH  23  24
HETATM   24  C   UNL     1     -11.586  11.785  63.581  1.00  0.00    -0.521 C  
BRANCH  24  25
HETATM   25  C   UNL     1     -12.091  13.214  63.680  1.00  0.00    -0.513 C  
HETATM   26  O   UNL     1     -13.061  13.308  64.714  1.00  0.00    -0.709 OA 
HETATM   27  H   UNL     1     -13.377  14.201  64.776  1.00  0.00     0.000 HD 
ENDBRANCH  24  25
ENDBRANCH  23  24
ENDBRANCH  22  23
ENDBRANCH  21  22
ENDBRANCH  20  21
ENDBRANCH  19  20
ENDBRANCH  18  19
ENDBRANCH  17  18
ENDBRANCH  16  17
ENDBRANCH  15  16
ENDBRANCH  14  15
ENDBRANCH   9  14
ENDBRANCH   2   3
TORSDOF 14
ENDMDL
MODEL       37
REMARK 921   NORMALIZED FREE ENERGY PREDICTED BY IDOCK:   -4.89 KCAL/MOL
REMARK 922        TOTAL FREE ENERGY PREDICTED BY IDOCK:  -10.72 KCAL/MOL
REMARK 923 INTER-LIGAND FREE ENERGY PREDICTED BY IDOCK:   -8.23 KCAL/MOL
REMARK 924 INTRA-LIGAND FREE ENERGY PREDICTED BY IDOCK:   -2.48 KCAL/MOL
REMARK 927      BINDING AFFINITY PREDICTED BY RF-SCORE:    0.00 PKD
ROOT
HETATM    1  C   UNL     1      -6.309  20.427  68.409  1.00  0.00    -0.315 C  
HETATM    2  O   UNL     1      -7.197  19.723  69.268  1.00  0.00    -0.340 OA 
ENDROOT
BRANCH   2   3
HETATM    3  C   UNL     1      -7.987  18.737  68.678  1.00  0.00    -0.336 C  
HETATM    4  C   UNL     1      -7.597  17.455  68.790  1.00  0.00    -0.252 C  
HETATM    5  C   UNL     1      -8.423  16.392  68.141  1.00  0.00    -0.188 C  
HETATM    6  O   UNL     1      -9.798  20.157  67.989  1.00  0.00    -0.381 OA 
HETATM    7  O   UNL     1      -8.388  15.214  68.479  1.00  0.00    -0.144 OA 
HETATM    8  C   UNL     1      -9.217  19.082  67.888  1.00  0.00    -0.301 C  
HETATM    9  C   UNL     1      -9.287  16.810  67.001  1.00  0.00    -0.244 C  
HETATM   10  C   UNL     1     -10.632  18.617  65.853  1.00  0.00    -0.365 C  
HETATM   11  C   UNL     1      -9.695  18.084  66.899  1.00  0.00    -0.314 C  
BRANCH   4  12
HETATM   12  O   UNL     1      -6.442  17.171  69.519  1.00  0.00    -0.233 OA 
HETATM   13  C   UNL     1      -5.259  16.832  68.806  1.00  0.00    -0.120 C  
ENDBRANCH   4  12
BRANCH   9  14
HETATM   14  C   UNL     1      -9.620  15.728  66.020  1.00  0.00    -0.388 C  
BRANCH  14  15
HETATM   15  C   UNL     1     -11.041  15.186  66.187  1.00  0.00    -0.311 C  
BRANCH  15  16
HETATM   16  C   UNL     1     -11.568  14.571  64.891  1.00  0.00    -0.401 C  
BRANCH  16  17
HETATM   17  C   UNL     1     -12.613  13.497  65.168  1.00  0.00    -0.485 C  
BRANCH  17  18
HETATM   18  C   UNL     1     -12.380  12.244  64.346  1.00  0.00    -0.493 C  
BRANCH  18  19
HETATM   19  C   UNL     1     -10.990  12.310  63.726  1.00  0.00    -0.495 C  
BRANCH  19  20
HETATM   20  C   UNL     1     -10.152  11.127  64.174  1.00  0.00    -0.388 C  
BRANCH  20  21
HETATM   21  C   UNL     1     -10.395  10.827  65.645  1.00  0.00    -0.297 C  
BRANCH  21  22
HETATM   22  C   UNL     1      -9.231  11.339  66.480  1.00  0.00    -0.200 C  
BRANCH  22  23
HETATM   23  C   UNL     1      -9.732  12.093  67.705  1.00  0.00    -0.197 C  
BRANCH  23  24
HETATM   24  C   UNL     1     -11.152  11.667  68.051  1.00  0.00    -0.299 C  
BRANCH  24  25
HETATM   25  C   UNL     1     -11.840  12.706  68.922  1.00  0.00    -0.302 C  
HETATM   26  O   UNL     1     -10.864  13.534  69.537  1.00  0.00    -0.443 OA 
HETATM   27  H   UNL     1     -11.293  14.184  70.081  1.00  0.00     0.000 HD 
ENDBRANCH  24  25
ENDBRANCH  23  24
ENDBRANCH  22  23
ENDBRANCH  21  22
ENDBRANCH  20  21
ENDBRANCH  19  20
ENDBRANCH  18  19
ENDBRANCH  17  18
ENDBRANCH  16  17
ENDBRANCH  15  16
ENDBRANCH  14  15
ENDBRANCH   9  14
ENDBRANCH   2   3
TORSDOF 14
ENDMDL
MODEL       38
REMARK 921   NORMALIZED FREE ENERGY PREDICTED BY IDOCK:   -4.89 KCAL/MOL
REMARK 922        TOTAL FREE ENERGY PREDICTED BY IDOCK:  -10.71 KCAL/MOL
REMARK 923 INTER-LIGAND FREE ENERGY PREDICTED BY IDOCK:   -8.63 KCAL/MOL
REMARK 924 INTRA-LIGAND FREE ENERGY PREDICTED BY IDOCK:   -2.08 KCAL/MOL
REMARK 927      BINDING AFFINITY PREDICTED BY RF-SCORE:    0.00 PKD
ROOT
HETATM    1  C   UNL     1      -9.905   8.680  71.881  1.00  0.00    -0.314 C  
HETATM    2  O   UNL     1     -11.068   8.559  71.073  1.00  0.00    -0.244 OA 
ENDROOT
BRANCH   2   3
HETATM    3  C   UNL     1     -11.566   9.735  70.515  1.00  0.00    -0.292 C  
HETATM    4  C   UNL     1     -11.165  10.074  69.276  1.00  0.00    -0.166 C  
HETATM    5  C   UNL     1     -11.673  11.345  68.678  1.00  0.00    -0.329 C  
HETATM    6  O   UNL     1     -13.127  10.275  72.259  1.00  0.00    -0.396 OA 
HETATM    7  O   UNL     1     -11.687  11.561  67.471  1.00  0.00    -0.555 OA 
HETATM    8  C   UNL     1     -12.487  10.642  71.280  1.00  0.00    -0.410 C  
HETATM    9  C   UNL     1     -12.138  12.399  69.623  1.00  0.00    -0.271 C  
HETATM   10  C   UNL     1     -13.130  13.008  71.868  1.00  0.00    -0.483 C  
HETATM   11  C   UNL     1     -12.560  12.060  70.851  1.00  0.00    -0.347 C  
BRANCH   4  12
HETATM   12  O   UNL     1     -10.298   9.217  68.599  1.00  0.00    -0.200 OA 
HETATM   13  C   UNL     1      -8.943   9.616  68.434  1.00  0.00    -0.123 C  
ENDBRANCH   4  12
BRANCH   9  14
HETATM   14  C   UNL     1     -12.073  13.801  69.102  1.00  0.00    -0.374 C  
BRANCH  14  15
HETATM   15  C   UNL     1     -10.951  14.625  69.740  1.00  0.00    -0.232 C  
BRANCH  15  16
HETATM   16  C   UNL     1     -11.309  16.109  69.810  1.00  0.00    -0.323 C  
BRANCH  16  17
HETATM   17  C   UNL     1     -10.214  16.976  69.201  1.00  0.00    -0.288 C  
BRANCH  17  18
HETATM   18  C   UNL     1     -10.730  17.836  68.063  1.00  0.00    -0.317 C  
BRANCH  18  19
HETATM   19  C   UNL     1      -9.560  18.579  67.432  1.00  0.00    -0.307 C  
BRANCH  19  20
HETATM   20  C   UNL     1      -8.522  17.597  66.920  1.00  0.00    -0.261 C  
BRANCH  20  21
HETATM   21  C   UNL     1      -9.151  16.619  65.938  1.00  0.00    -0.155 C  
BRANCH  21  22
HETATM   22  C   UNL     1      -8.718  15.199  66.269  1.00  0.00    -0.125 C  
BRANCH  22  23
HETATM   23  C   UNL     1      -9.903  14.243  66.209  1.00  0.00    -0.323 C  
BRANCH  23  24
HETATM   24  C   UNL     1     -11.157  14.974  65.751  1.00  0.00    -0.346 C  
BRANCH  24  25
HETATM   25  C   UNL     1     -12.011  14.090  64.857  1.00  0.00    -0.404 C  
HETATM   26  O   UNL     1     -12.396  14.815  63.697  1.00  0.00    -1.046 OA 
HETATM   27  H   UNL     1     -12.929  14.263  63.138  1.00  0.00     0.000 HD 
ENDBRANCH  24  25
ENDBRANCH  23  24
ENDBRANCH  22  23
ENDBRANCH  21  22
ENDBRANCH  20  21
ENDBRANCH  19  20
ENDBRANCH  18  19
ENDBRANCH  17  18
ENDBRANCH  16  17
ENDBRANCH  15  16
ENDBRANCH  14  15
ENDBRANCH   9  14
ENDBRANCH   2   3
TORSDOF 14
ENDMDL
MODEL       39
REMARK 921   NORMALIZED FREE ENERGY PREDICTED BY IDOCK:   -4.88 KCAL/MOL
REMARK 922        TOTAL FREE ENERGY PREDICTED BY IDOCK:  -10.70 KCAL/MOL
REMARK 923 INTER-LIGAND FREE ENERGY PREDICTED BY IDOCK:   -9.27 KCAL/MOL
REMARK 924 INTRA-LIGAND FREE ENERGY PREDICTED BY IDOCK:   -1.43 KCAL/MOL
REMARK 927      BINDING AFFINITY PREDICTED BY RF-SCORE:    0.00 PKD
ROOT
HETATM    1  C   UNL     1     -13.586   9.519  71.514  1.00  0.00    -0.323 C  
HETATM    2  O   UNL     1     -12.663  10.530  71.897  1.00  0.00    -0.419 OA 
ENDROOT
BRANCH   2   3
HETATM    3  C   UNL     1     -12.654  11.692  71.128  1.00  0.00    -0.335 C  
HETATM    4  C   UNL     1     -12.077  11.650  69.914  1.00  0.00    -0.301 C  
HETATM    5  C   UNL     1     -12.039  12.896  69.091  1.00  0.00    -0.168 C  
HETATM    6  O   UNL     1     -14.016  13.040  72.578  1.00  0.00    -0.632 OA 
HETATM    7  O   UNL     1     -11.893  12.894  67.873  1.00  0.00    -0.346 OA 
HETATM    8  C   UNL     1     -13.223  12.983  71.644  1.00  0.00    -0.336 C  
HETATM    9  C   UNL     1     -12.142  14.192  69.820  1.00  0.00    -0.409 C  
HETATM   10  C   UNL     1     -12.983  15.487  71.823  1.00  0.00    -0.528 C  
HETATM   11  C   UNL     1     -12.738  14.240  71.022  1.00  0.00    -0.430 C  
BRANCH   4  12
HETATM   12  O   UNL     1     -11.546  10.439  69.470  1.00  0.00    -0.247 OA 
HETATM   13  C   UNL     1     -10.168  10.177  69.706  1.00  0.00    -0.247 C  
ENDBRANCH   4  12
BRANCH   9  14
HETATM   14  C   UNL     1     -11.529  15.369  69.127  1.00  0.00    -0.344 C  
BRANCH  14  15
HETATM   15  C   UNL     1     -10.095  15.651  69.581  1.00  0.00    -0.292 C  
BRANCH  15  16
HETATM   16  C   UNL     1      -9.104  15.549  68.423  1.00  0.00    -0.190 C  
BRANCH  16  17
HETATM   17  C   UNL     1      -8.339  14.232  68.458  1.00  0.00    -0.156 C  
BRANCH  17  18
HETATM   18  C   UNL     1      -8.633  13.367  67.246  1.00  0.00    -0.216 C  
BRANCH  18  19
HETATM   19  C   UNL     1      -7.750  12.127  67.296  1.00  0.00    -0.168 C  
BRANCH  19  20
HETATM   20  C   UNL     1      -8.312  11.039  66.399  1.00  0.00    -0.165 C  
BRANCH  20  21
HETATM   21  C   UNL     1      -9.678  11.440  65.865  1.00  0.00    -0.257 C  
BRANCH  21  22
HETATM   22  C   UNL     1      -9.793  11.064  64.396  1.00  0.00    -0.351 C  
BRANCH  22  23
HETATM   23  C   UNL     1     -10.502  12.159  63.609  1.00  0.00    -0.495 C  
BRANCH  23  24
HETATM   24  C   UNL     1     -10.524  13.458  64.402  1.00  0.00    -0.403 C  
BRANCH  24  25
HETATM   25  C   UNL     1     -11.916  14.066  64.421  1.00  0.00    -0.454 C  
HETATM   26  O   UNL     1     -12.546  13.856  63.165  1.00  0.00    -1.057 OA 
HETATM   27  H   UNL     1     -13.417  14.235  63.176  1.00  0.00     0.000 HD 
ENDBRANCH  24  25
ENDBRANCH  23  24
ENDBRANCH  22  23
ENDBRANCH  21  22
ENDBRANCH  20  21
ENDBRANCH  19  20
ENDBRANCH  18  19
ENDBRANCH  17  18
ENDBRANCH  16  17
ENDBRANCH  15  16
ENDBRANCH  14  15
ENDBRANCH   9  14
ENDBRANCH   2   3
TORSDOF 14
ENDMDL
MODEL       40
REMARK 921   NORMALIZED FREE ENERGY PREDICTED BY IDOCK:   -4.88 KCAL/MOL
REMARK 922        TOTAL FREE ENERGY PREDICTED BY IDOCK:  -10.69 KCAL/MOL
REMARK 923 INTER-LIGAND FREE ENERGY PREDICTED BY IDOCK:   -8.71 KCAL/MOL
REMARK 924 INTRA-LIGAND FREE ENERGY PREDICTED BY IDOCK:   -1.98 KCAL/MOL
REMARK 927      BINDING AFFINITY PREDICTED BY RF-SCORE:    0.00 PKD
ROOT
HETATM    1  C   UNL     1     -12.152  14.493  64.453  1.00  0.00    -0.472 C  
HETATM    2  O   UNL     1     -11.028  14.107  65.233  1.00  0.00    -0.307 OA 
ENDROOT
BRANCH   2   3
HETATM    3  C   UNL     1     -11.002  12.787  65.681  1.00  0.00    -0.273 C  
HETATM    4  C   UNL     1     -11.354  12.539  66.956  1.00  0.00    -0.328 C  
HETATM    5  C   UNL     1     -11.306  11.132  67.454  1.00  0.00    -0.255 C  
HETATM    6  O   UNL     1     -10.502  11.748  63.574  1.00  0.00    -0.373 OA 
HETATM    7  O   UNL     1     -11.940  10.743  68.430  1.00  0.00    -0.508 OA 
HETATM    8  C   UNL     1     -10.545  11.663  64.796  1.00  0.00    -0.304 C  
HETATM    9  C   UNL     1     -10.401  10.190  66.736  1.00  0.00    -0.285 C  
HETATM   10  C   UNL     1      -9.236   9.517  64.596  1.00  0.00    -0.247 C  
HETATM   11  C   UNL     1     -10.067  10.425  65.458  1.00  0.00    -0.352 C  
BRANCH   4  12
HETATM   12  O   UNL     1     -11.760  13.608  67.755  1.00  0.00    -0.320 OA 
HETATM   13  C   UNL     1     -10.861  14.092  68.745  1.00  0.00    -0.263 C  
ENDBRANCH   4  12
BRANCH   9  14
HETATM   14  C   UNL     1      -9.911   9.030  67.546  1.00  0.00    -0.262 C  
BRANCH  14  15
HETATM   15  C   UNL     1     -10.631   7.721  67.212  1.00  0.00    -0.376 C  
BRANCH  15  16
HETATM   16  C   UNL     1     -11.013   6.947  68.473  1.00  0.00    -0.198 C  
BRANCH  16  17
HETATM   17  C   UNL     1     -10.155   5.698  68.642  1.00  0.00    -0.240 C  
BRANCH  17  18
HETATM   18  C   UNL     1      -9.442   5.670  69.980  1.00  0.00    -0.199 C  
BRANCH  18  19
HETATM   19  C   UNL     1      -8.138   6.447  69.864  1.00  0.00    -0.121 C  
BRANCH  19  20
HETATM   20  C   UNL     1      -7.934   7.329  71.082  1.00  0.00    -0.101 C  
BRANCH  20  21
HETATM   21  C   UNL     1      -8.753   8.605  70.959  1.00  0.00    -0.227 C  
BRANCH  21  22
HETATM   22  C   UNL     1      -9.887   8.595  71.973  1.00  0.00    -0.396 C  
BRANCH  22  23
HETATM   23  C   UNL     1     -11.091   9.368  71.449  1.00  0.00    -0.450 C  
BRANCH  23  24
HETATM   24  C   UNL     1     -12.353   8.522  71.547  1.00  0.00    -0.354 C  
BRANCH  24  25
HETATM   25  C   UNL     1     -13.580   9.392  71.769  1.00  0.00    -0.388 C  
HETATM   26  O   UNL     1     -14.177   9.066  73.015  1.00  0.00    -1.107 OA 
HETATM   27  H   UNL     1     -14.944   9.610  73.155  1.00  0.00     0.000 HD 
ENDBRANCH  24  25
ENDBRANCH  23  24
ENDBRANCH  22  23
ENDBRANCH  21  22
ENDBRANCH  20  21
ENDBRANCH  19  20
ENDBRANCH  18  19
ENDBRANCH  17  18
ENDBRANCH  16  17
ENDBRANCH  15  16
ENDBRANCH  14  15
ENDBRANCH   9  14
ENDBRANCH   2   3
TORSDOF 14
ENDMDL
MODEL       41
REMARK 921   NORMALIZED FREE ENERGY PREDICTED BY IDOCK:   -4.87 KCAL/MOL
REMARK 922        TOTAL FREE ENERGY PREDICTED BY IDOCK:  -10.68 KCAL/MOL
REMARK 923 INTER-LIGAND FREE ENERGY PREDICTED BY IDOCK:   -9.66 KCAL/MOL
REMARK 924 INTRA-LIGAND FREE ENERGY PREDICTED BY IDOCK:   -1.02 KCAL/MOL
REMARK 927      BINDING AFFINITY PREDICTED BY RF-SCORE:    0.00 PKD
ROOT
HETATM    1  C   UNL     1      -8.087  17.327  66.075  1.00  0.00    -0.151 C  
HETATM    2  O   UNL     1      -9.474  17.613  65.953  1.00  0.00    -0.514 OA 
ENDROOT
BRANCH   2   3
HETATM    3  C   UNL     1     -10.351  16.544  66.132  1.00  0.00    -0.334 C  
HETATM    4  C   UNL     1     -10.509  16.049  67.372  1.00  0.00    -0.308 C  
HETATM    5  C   UNL     1     -11.428  14.887  67.572  1.00  0.00    -0.348 C  
HETATM    6  O   UNL     1     -11.221  16.474  63.893  1.00  0.00    -0.908 OA 
HETATM    7  O   UNL     1     -11.929  14.605  68.654  1.00  0.00    -0.315 OA 
HETATM    8  C   UNL     1     -11.071  15.914  64.974  1.00  0.00    -0.360 C  
HETATM    9  C   UNL     1     -11.692  14.023  66.386  1.00  0.00    -0.407 C  
HETATM   10  C   UNL     1     -11.871  13.790  63.875  1.00  0.00    -0.368 C  
HETATM   11  C   UNL     1     -11.556  14.523  65.148  1.00  0.00    -0.371 C  
BRANCH   4  12
HETATM   12  O   UNL     1      -9.816  16.649  68.423  1.00  0.00    -0.235 OA 
HETATM   13  C   UNL     1     -10.451  17.701  69.139  1.00  0.00    -0.128 C  
ENDBRANCH   4  12
BRANCH   9  14
HETATM   14  C   UNL     1     -12.083  12.612  66.697  1.00  0.00    -0.267 C  
BRANCH  14  15
HETATM   15  C   UNL     1     -10.899  11.744  67.129  1.00  0.00    -0.303 C  
BRANCH  15  16
HETATM   16  C   UNL     1     -10.297  10.981  65.950  1.00  0.00    -0.315 C  
BRANCH  16  17
HETATM   17  C   UNL     1      -9.560   9.730  66.413  1.00  0.00    -0.256 C  
BRANCH  17  18
HETATM   18  C   UNL     1      -8.681   9.998  67.620  1.00  0.00    -0.121 C  
BRANCH  18  19
HETATM   19  C   UNL     1      -8.950   8.933  68.675  1.00  0.00    -0.137 C  
BRANCH  19  20
HETATM   20  C   UNL     1      -9.046   9.563  70.053  1.00  0.00    -0.255 C  
BRANCH  20  21
HETATM   21  C   UNL     1      -9.492   8.534  71.080  1.00  0.00    -0.249 C  
BRANCH  21  22
HETATM   22  C   UNL     1     -10.670   9.073  71.878  1.00  0.00    -0.401 C  
BRANCH  22  23
HETATM   23  C   UNL     1     -11.522  10.004  71.025  1.00  0.00    -0.463 C  
BRANCH  23  24
HETATM   24  C   UNL     1     -12.969   9.989  71.499  1.00  0.00    -0.535 C  
BRANCH  24  25
HETATM   25  C   UNL     1     -13.263   8.746  72.324  1.00  0.00    -0.412 C  
HETATM   26  O   UNL     1     -14.166   9.070  73.371  1.00  0.00    -1.202 OA 
HETATM   27  H   UNL     1     -14.351   8.294  73.886  1.00  0.00     0.000 HD 
ENDBRANCH  24  25
ENDBRANCH  23  24
ENDBRANCH  22  23
ENDBRANCH  21  22
ENDBRANCH  20  21
ENDBRANCH  19  20
ENDBRANCH  18  19
ENDBRANCH  17  18
ENDBRANCH  16  17
ENDBRANCH  15  16
ENDBRANCH  14  15
ENDBRANCH   9  14
ENDBRANCH   2   3
TORSDOF 14
ENDMDL
MODEL       42
REMARK 921   NORMALIZED FREE ENERGY PREDICTED BY IDOCK:   -4.87 KCAL/MOL
REMARK 922        TOTAL FREE ENERGY PREDICTED BY IDOCK:  -10.68 KCAL/MOL
REMARK 923 INTER-LIGAND FREE ENERGY PREDICTED BY IDOCK:   -9.26 KCAL/MOL
REMARK 924 INTRA-LIGAND FREE ENERGY PREDICTED BY IDOCK:   -1.42 KCAL/MOL
REMARK 927      BINDING AFFINITY PREDICTED BY RF-SCORE:    0.00 PKD
ROOT
HETATM    1  C   UNL     1     -13.765   9.396  71.996  1.00  0.00    -0.395 C  
HETATM    2  O   UNL     1     -12.840  10.427  72.313  1.00  0.00    -0.334 OA 
ENDROOT
BRANCH   2   3
HETATM    3  C   UNL     1     -12.769  11.498  71.423  1.00  0.00    -0.364 C  
HETATM    4  C   UNL     1     -12.108  11.323  70.265  1.00  0.00    -0.373 C  
HETATM    5  C   UNL     1     -12.005  12.472  69.315  1.00  0.00    -0.250 C  
HETATM    6  O   UNL     1     -14.218  12.996  72.619  1.00  0.00    -0.609 OA 
HETATM    7  O   UNL     1     -11.774  12.335  68.118  1.00  0.00    -0.321 OA 
HETATM    8  C   UNL     1     -13.363  12.838  71.754  1.00  0.00    -0.342 C  
HETATM    9  C   UNL     1     -12.149  13.839  69.889  1.00  0.00    -0.412 C  
HETATM   10  C   UNL     1     -13.118  15.346  71.674  1.00  0.00    -0.540 C  
HETATM   11  C   UNL     1     -12.826  14.018  71.034  1.00  0.00    -0.410 C  
BRANCH   4  12
HETATM   12  O   UNL     1     -11.557  10.071  69.995  1.00  0.00    -0.249 OA 
HETATM   13  C   UNL     1     -10.169   9.876  70.238  1.00  0.00    -0.264 C  
ENDBRANCH   4  12
BRANCH   9  14
HETATM   14  C   UNL     1     -11.480  14.933  69.115  1.00  0.00    -0.324 C  
BRANCH  14  15
HETATM   15  C   UNL     1     -10.188  15.426  69.770  1.00  0.00    -0.278 C  
BRANCH  15  16
HETATM   16  C   UNL     1      -8.999  15.337  68.813  1.00  0.00    -0.200 C  
BRANCH  16  17
HETATM   17  C   UNL     1      -9.253  14.325  67.702  1.00  0.00    -0.194 C  
BRANCH  17  18
HETATM   18  C   UNL     1      -9.027  14.919  66.325  1.00  0.00    -0.193 C  
BRANCH  18  19
HETATM   19  C   UNL     1     -10.328  14.853  65.536  1.00  0.00    -0.388 C  
BRANCH  19  20
HETATM   20  C   UNL     1     -10.831  16.250  65.221  1.00  0.00    -0.310 C  
BRANCH  20  21
HETATM   21  C   UNL     1     -10.001  17.293  65.955  1.00  0.00    -0.191 C  
BRANCH  21  22
HETATM   22  C   UNL     1     -10.861  18.010  66.985  1.00  0.00    -0.134 C  
BRANCH  22  23
HETATM   23  C   UNL     1     -10.673  19.519  66.892  1.00  0.00    -0.576 C  
BRANCH  23  24
HETATM   24  C   UNL     1      -9.311  19.852  66.300  1.00  0.00    -0.474 C  
BRANCH  24  25
HETATM   25  C   UNL     1      -8.298  20.159  67.391  1.00  0.00    -0.338 C  
HETATM   26  O   UNL     1      -7.592  21.348  67.067  1.00  0.00    -0.799 OA 
HETATM   27  H   UNL     1      -6.959  21.540  67.749  1.00  0.00     0.000 HD 
ENDBRANCH  24  25
ENDBRANCH  23  24
ENDBRANCH  22  23
ENDBRANCH  21  22
ENDBRANCH  20  21
ENDBRANCH  19  20
ENDBRANCH  18  19
ENDBRANCH  17  18
ENDBRANCH  16  17
ENDBRANCH  15  16
ENDBRANCH  14  15
ENDBRANCH   9  14
ENDBRANCH   2   3
TORSDOF 14
ENDMDL
MODEL       43
REMARK 921   NORMALIZED FREE ENERGY PREDICTED BY IDOCK:   -4.85 KCAL/MOL
REMARK 922        TOTAL FREE ENERGY PREDICTED BY IDOCK:  -10.64 KCAL/MOL
REMARK 923 INTER-LIGAND FREE ENERGY PREDICTED BY IDOCK:   -8.42 KCAL/MOL
REMARK 924 INTRA-LIGAND FREE ENERGY PREDICTED BY IDOCK:   -2.22 KCAL/MOL
REMARK 927      BINDING AFFINITY PREDICTED BY RF-SCORE:    0.00 PKD
ROOT
HETATM    1  C   UNL     1     -10.691   7.686  73.130  1.00  0.00    -0.387 C  
HETATM    2  O   UNL     1     -11.650   7.533  72.092  1.00  0.00    -0.276 OA 
ENDROOT
BRANCH   2   3
HETATM    3  C   UNL     1     -11.689   8.535  71.124  1.00  0.00    -0.281 C  
HETATM    4  C   UNL     1     -10.980   8.360  69.995  1.00  0.00    -0.194 C  
HETATM    5  C   UNL     1     -10.995   9.438  68.961  1.00  0.00    -0.067 C  
HETATM    6  O   UNL     1     -13.346   9.922  72.174  1.00  0.00    -0.438 OA 
HETATM    7  O   UNL     1     -10.716   9.244  67.783  1.00  0.00    -0.259 OA 
HETATM    8  C   UNL     1     -12.455   9.810  71.340  1.00  0.00    -0.387 C  
HETATM    9  C   UNL     1     -11.324  10.816  69.425  1.00  0.00    -0.351 C  
HETATM   10  C   UNL     1     -12.522  12.316  71.071  1.00  0.00    -0.361 C  
HETATM   11  C   UNL     1     -12.050  10.992  70.540  1.00  0.00    -0.470 C  
BRANCH   4  12
HETATM   12  O   UNL     1     -10.270   7.171  69.832  1.00  0.00    -0.198 OA 
HETATM   13  C   UNL     1     -10.901   6.093  69.152  1.00  0.00    -0.351 C  
ENDBRANCH   4  12
BRANCH   9  14
HETATM   14  C   UNL     1     -10.776  11.925  68.581  1.00  0.00    -0.266 C  
BRANCH  14  15
HETATM   15  C   UNL     1     -11.851  12.633  67.753  1.00  0.00    -0.381 C  
BRANCH  15  16
HETATM   16  C   UNL     1     -11.844  14.143  67.990  1.00  0.00    -0.400 C  
BRANCH  16  17
HETATM   17  C   UNL     1     -10.437  14.657  68.270  1.00  0.00    -0.236 C  
BRANCH  17  18
HETATM   18  C   UNL     1      -9.760  15.182  67.018  1.00  0.00    -0.237 C  
BRANCH  18  19
HETATM   19  C   UNL     1     -10.817  15.774  66.095  1.00  0.00    -0.240 C  
BRANCH  19  20
HETATM   20  C   UNL     1     -10.799  15.073  64.749  1.00  0.00    -0.375 C  
BRANCH  20  21
HETATM   21  C   UNL     1     -12.190  14.570  64.391  1.00  0.00    -0.480 C  
BRANCH  21  22
HETATM   22  C   UNL     1     -12.136  13.087  64.058  1.00  0.00    -0.519 C  
BRANCH  22  23
HETATM   23  C   UNL     1     -10.695  12.598  63.991  1.00  0.00    -0.457 C  
BRANCH  23  24
HETATM   24  C   UNL     1     -10.617  11.116  64.330  1.00  0.00    -0.425 C  
BRANCH  24  25
HETATM   25  C   UNL     1      -9.179  10.681  64.562  1.00  0.00    -0.231 C  
HETATM   26  O   UNL     1      -8.959  10.480  65.950  1.00  0.00    -0.155 OA 
HETATM   27  H   UNL     1      -8.060  10.208  66.096  1.00  0.00     0.000 HD 
ENDBRANCH  24  25
ENDBRANCH  23  24
ENDBRANCH  22  23
ENDBRANCH  21  22
ENDBRANCH  20  21
ENDBRANCH  19  20
ENDBRANCH  18  19
ENDBRANCH  17  18
ENDBRANCH  16  17
ENDBRANCH  15  16
ENDBRANCH  14  15
ENDBRANCH   9  14
ENDBRANCH   2   3
TORSDOF 14
ENDMDL
MODEL       44
REMARK 921   NORMALIZED FREE ENERGY PREDICTED BY IDOCK:   -4.85 KCAL/MOL
REMARK 922        TOTAL FREE ENERGY PREDICTED BY IDOCK:  -10.64 KCAL/MOL
REMARK 923 INTER-LIGAND FREE ENERGY PREDICTED BY IDOCK:   -8.82 KCAL/MOL
REMARK 924 INTRA-LIGAND FREE ENERGY PREDICTED BY IDOCK:   -1.82 KCAL/MOL
REMARK 927      BINDING AFFINITY PREDICTED BY RF-SCORE:    0.00 PKD
ROOT
HETATM    1  C   UNL     1     -10.613   7.140  73.560  1.00  0.00    -0.374 C  
HETATM    2  O   UNL     1     -11.346   6.940  72.359  1.00  0.00    -0.259 OA 
ENDROOT
BRANCH   2   3
HETATM    3  C   UNL     1     -11.475   8.042  71.514  1.00  0.00    -0.264 C  
HETATM    4  C   UNL     1     -10.662   8.126  70.446  1.00  0.00    -0.232 C  
HETATM    5  C   UNL     1     -10.775   9.315  69.548  1.00  0.00    -0.222 C  
HETATM    6  O   UNL     1     -13.415   9.007  72.552  1.00  0.00    -0.454 OA 
HETATM    7  O   UNL     1     -10.378   9.321  68.388  1.00  0.00    -0.196 OA 
HETATM    8  C   UNL     1     -12.455   9.144  71.801  1.00  0.00    -0.372 C  
HETATM    9  C   UNL     1     -11.362  10.553  70.135  1.00  0.00    -0.400 C  
HETATM   10  C   UNL     1     -12.916  11.623  71.819  1.00  0.00    -0.483 C  
HETATM   11  C   UNL     1     -12.191  10.468  71.187  1.00  0.00    -0.496 C  
BRANCH   4  12
HETATM   12  O   UNL     1      -9.754   7.093  70.217  1.00  0.00    -0.175 OA 
HETATM   13  C   UNL     1      -8.383   7.318  70.518  1.00  0.00    -0.133 C  
ENDBRANCH   4  12
BRANCH   9  14
HETATM   14  C   UNL     1     -10.942  11.833  69.483  1.00  0.00    -0.126 C  
BRANCH  14  15
HETATM   15  C   UNL     1     -11.966  12.354  68.471  1.00  0.00    -0.273 C  
BRANCH  15  16
HETATM   16  C   UNL     1     -12.245  13.844  68.664  1.00  0.00    -0.213 C  
BRANCH  16  17
HETATM   17  C   UNL     1     -11.096  14.536  69.388  1.00  0.00    -0.297 C  
BRANCH  17  18
HETATM   18  C   UNL     1     -10.962  15.993  68.988  1.00  0.00    -0.296 C  
BRANCH  18  19
HETATM   19  C   UNL     1      -9.920  16.110  67.883  1.00  0.00    -0.239 C  
BRANCH  19  20
HETATM   20  C   UNL     1     -10.593  16.198  66.525  1.00  0.00    -0.268 C  
BRANCH  20  21
HETATM   21  C   UNL     1     -10.170  15.033  65.644  1.00  0.00    -0.386 C  
BRANCH  21  22
HETATM   22  C   UNL     1     -11.215  14.791  64.564  1.00  0.00    -0.283 C  
BRANCH  22  23
HETATM   23  C   UNL     1     -12.425  14.062  65.134  1.00  0.00    -0.472 C  
BRANCH  23  24
HETATM   24  C   UNL     1     -12.337  12.571  64.840  1.00  0.00    -0.539 C  
BRANCH  24  25
HETATM   25  C   UNL     1     -12.262  12.310  63.345  1.00  0.00    -0.527 C  
HETATM   26  O   UNL     1     -11.368  11.235  63.092  1.00  0.00    -0.837 OA 
HETATM   27  H   UNL     1     -11.321  11.072  62.157  1.00  0.00     0.000 HD 
ENDBRANCH  24  25
ENDBRANCH  23  24
ENDBRANCH  22  23
ENDBRANCH  21  22
ENDBRANCH  20  21
ENDBRANCH  19  20
ENDBRANCH  18  19
ENDBRANCH  17  18
ENDBRANCH  16  17
ENDBRANCH  15  16
ENDBRANCH  14  15
ENDBRANCH   9  14
ENDBRANCH   2   3
TORSDOF 14
ENDMDL
MODEL       45
REMARK 921   NORMALIZED FREE ENERGY PREDICTED BY IDOCK:   -4.85 KCAL/MOL
REMARK 922        TOTAL FREE ENERGY PREDICTED BY IDOCK:  -10.64 KCAL/MOL
REMARK 923 INTER-LIGAND FREE ENERGY PREDICTED BY IDOCK:   -9.20 KCAL/MOL
REMARK 924 INTRA-LIGAND FREE ENERGY PREDICTED BY IDOCK:   -1.44 KCAL/MOL
REMARK 927      BINDING AFFINITY PREDICTED BY RF-SCORE:    0.00 PKD
ROOT
HETATM    1  C   UNL     1     -11.063   6.399  69.998  1.00  0.00    -0.379 C  
HETATM    2  O   UNL     1     -10.908   7.185  71.172  1.00  0.00    -0.235 OA 
ENDROOT
BRANCH   2   3
HETATM    3  C   UNL     1     -11.092   8.559  71.034  1.00  0.00    -0.260 C  
HETATM    4  C   UNL     1     -12.183   9.117  71.589  1.00  0.00    -0.361 C  
HETATM    5  C   UNL     1     -12.403  10.585  71.426  1.00  0.00    -0.372 C  
HETATM    6  O   UNL     1      -8.993   9.052  69.974  1.00  0.00    -0.151 OA 
HETATM    7  O   UNL     1     -13.119  11.245  72.172  1.00  0.00    -0.458 OA 
HETATM    8  C   UNL     1     -10.135   9.407  70.244  1.00  0.00    -0.240 C  
HETATM    9  C   UNL     1     -11.742  11.243  70.263  1.00  0.00    -0.415 C  
HETATM   10  C   UNL     1      -9.832  11.301  68.608  1.00  0.00    -0.208 C  
HETATM   11  C   UNL     1     -10.641  10.700  69.722  1.00  0.00    -0.233 C  
BRANCH   4  12
HETATM   12  O   UNL     1     -13.058   8.299  72.304  1.00  0.00    -0.303 OA 
HETATM   13  C   UNL     1     -14.190   7.766  71.629  1.00  0.00    -0.457 C  
ENDBRANCH   4  12
BRANCH   9  14
HETATM   14  C   UNL     1     -12.406  12.492  69.771  1.00  0.00    -0.085 C  
BRANCH  14  15
HETATM   15  C   UNL     1     -11.880  13.757  70.453  1.00  0.00    -0.323 C  
BRANCH  15  16
HETATM   16  C   UNL     1     -11.946  14.969  69.525  1.00  0.00    -0.346 C  
BRANCH  16  17
HETATM   17  C   UNL     1     -10.706  15.845  69.662  1.00  0.00    -0.304 C  
BRANCH  17  18
HETATM   18  C   UNL     1     -10.578  16.839  68.523  1.00  0.00    -0.354 C  
BRANCH  18  19
HETATM   19  C   UNL     1      -9.717  16.227  67.426  1.00  0.00    -0.234 C  
BRANCH  19  20
HETATM   20  C   UNL     1     -10.373  16.413  66.070  1.00  0.00    -0.365 C  
BRANCH  20  21
HETATM   21  C   UNL     1     -10.582  15.068  65.390  1.00  0.00    -0.398 C  
BRANCH  21  22
HETATM   22  C   UNL     1     -10.695  13.969  66.435  1.00  0.00    -0.278 C  
BRANCH  22  23
HETATM   23  C   UNL     1     -11.547  12.816  65.919  1.00  0.00    -0.428 C  
BRANCH  23  24
HETATM   24  C   UNL     1     -11.060  12.362  64.550  1.00  0.00    -0.360 C  
BRANCH  24  25
HETATM   25  C   UNL     1     -12.172  12.444  63.517  1.00  0.00    -0.563 C  
HETATM   26  O   UNL     1     -12.309  13.785  63.070  1.00  0.00    -1.089 OA 
HETATM   27  H   UNL     1     -13.004  13.837  62.424  1.00  0.00     0.000 HD 
ENDBRANCH  24  25
ENDBRANCH  23  24
ENDBRANCH  22  23
ENDBRANCH  21  22
ENDBRANCH  20  21
ENDBRANCH  19  20
ENDBRANCH  18  19
ENDBRANCH  17  18
ENDBRANCH  16  17
ENDBRANCH  15  16
ENDBRANCH  14  15
ENDBRANCH   9  14
ENDBRANCH   2   3
TORSDOF 14
ENDMDL
MODEL       46
REMARK 921   NORMALIZED FREE ENERGY PREDICTED BY IDOCK:   -4.83 KCAL/MOL
REMARK 922        TOTAL FREE ENERGY PREDICTED BY IDOCK:  -10.61 KCAL/MOL
REMARK 923 INTER-LIGAND FREE ENERGY PREDICTED BY IDOCK:   -8.47 KCAL/MOL
REMARK 924 INTRA-LIGAND FREE ENERGY PREDICTED BY IDOCK:   -2.14 KCAL/MOL
REMARK 927      BINDING AFFINITY PREDICTED BY RF-SCORE:    0.00 PKD
ROOT
HETATM    1  C   UNL     1      -8.631   7.252  72.877  1.00  0.00    -0.122 C  
HETATM    2  O   UNL     1      -8.735   8.651  72.648  1.00  0.00    -0.380 OA 
ENDROOT
BRANCH   2   3
HETATM    3  C   UNL     1      -9.547   9.053  71.590  1.00  0.00    -0.248 C  
HETATM    4  C   UNL     1      -8.960   9.394  70.428  1.00  0.00    -0.250 C  
HETATM    5  C   UNL     1      -9.820   9.851  69.295  1.00  0.00    -0.207 C  
HETATM    6  O   UNL     1     -11.665   8.597  72.628  1.00  0.00    -0.325 OA 
HETATM    7  O   UNL     1      -9.459   9.821  68.123  1.00  0.00    -0.135 OA 
HETATM    8  C   UNL     1     -11.038   9.161  71.738  1.00  0.00    -0.367 C  
HETATM    9  C   UNL     1     -11.159  10.405  69.642  1.00  0.00    -0.328 C  
HETATM   10  C   UNL     1     -13.134  10.465  71.221  1.00  0.00    -0.494 C  
HETATM   11  C   UNL     1     -11.756  10.049  70.790  1.00  0.00    -0.437 C  
BRANCH   4  12
HETATM   12  O   UNL     1      -7.573   9.296  70.329  1.00  0.00    -0.089 OA 
HETATM   13  C   UNL     1      -6.818  10.494  70.199  1.00  0.00    -0.141 C  
ENDBRANCH   4  12
BRANCH   9  14
HETATM   14  C   UNL     1     -11.734  11.364  68.646  1.00  0.00    -0.394 C  
BRANCH  14  15
HETATM   15  C   UNL     1     -10.998  12.706  68.615  1.00  0.00    -0.292 C  
BRANCH  15  16
HETATM   16  C   UNL     1     -11.898  13.855  69.068  1.00  0.00    -0.397 C  
BRANCH  16  17
HETATM   17  C   UNL     1     -11.708  15.090  68.196  1.00  0.00    -0.335 C  
BRANCH  17  18
HETATM   18  C   UNL     1     -10.430  15.024  67.382  1.00  0.00    -0.257 C  
BRANCH  18  19
HETATM   19  C   UNL     1     -10.634  15.782  66.076  1.00  0.00    -0.334 C  
BRANCH  19  20
HETATM   20  C   UNL     1     -10.731  14.815  64.910  1.00  0.00    -0.438 C  
BRANCH  20  21
HETATM   21  C   UNL     1     -12.184  14.466  64.627  1.00  0.00    -0.479 C  
BRANCH  21  22
HETATM   22  C   UNL     1     -12.449  13.012  64.986  1.00  0.00    -0.534 C  
BRANCH  22  23
HETATM   23  C   UNL     1     -11.502  12.086  64.234  1.00  0.00    -0.435 C  
BRANCH  23  24
HETATM   24  C   UNL     1     -10.659  11.276  65.209  1.00  0.00    -0.323 C  
BRANCH  24  25
HETATM   25  C   UNL     1      -9.888  10.181  64.490  1.00  0.00    -0.264 C  
HETATM   26  O   UNL     1      -9.764   9.049  65.338  1.00  0.00    -0.461 OA 
HETATM   27  H   UNL     1      -9.283   8.364  64.889  1.00  0.00     0.000 HD 
ENDBRANCH  24  25
ENDBRANCH  23  24
ENDBRANCH  22  23
ENDBRANCH  21  22
ENDBRANCH  20  21
ENDBRANCH  19  20
ENDBRANCH  18  19
ENDBRANCH  17  18
ENDBRANCH  16  17
ENDBRANCH  15  16
ENDBRANCH  14  15
ENDBRANCH   9  14
ENDBRANCH   2   3
TORSDOF 14
ENDMDL
MODEL       47
REMARK 921   NORMALIZED FREE ENERGY PREDICTED BY IDOCK:   -4.82 KCAL/MOL
REMARK 922        TOTAL FREE ENERGY PREDICTED BY IDOCK:  -10.59 KCAL/MOL
REMARK 923 INTER-LIGAND FREE ENERGY PREDICTED BY IDOCK:   -9.30 KCAL/MOL
REMARK 924 INTRA-LIGAND FREE ENERGY PREDICTED BY IDOCK:   -1.29 KCAL/MOL
REMARK 927      BINDING AFFINITY PREDICTED BY RF-SCORE:    0.00 PKD
ROOT
HETATM    1  C   UNL     1      -9.255   5.862  71.699  1.00  0.00    -0.146 C  
HETATM    2  O   UNL     1      -9.663   6.991  72.460  1.00  0.00    -0.149 OA 
ENDROOT
BRANCH   2   3
HETATM    3  C   UNL     1     -10.536   7.882  71.839  1.00  0.00    -0.231 C  
HETATM    4  C   UNL     1     -10.040   9.042  71.371  1.00  0.00    -0.329 C  
HETATM    5  C   UNL     1     -10.972  10.015  70.726  1.00  0.00    -0.305 C  
HETATM    6  O   UNL     1     -12.481   6.472  71.846  1.00  0.00    -0.347 OA 
HETATM    7  O   UNL     1     -10.598  10.891  69.954  1.00  0.00    -0.158 OA 
HETATM    8  C   UNL     1     -12.007   7.596  71.730  1.00  0.00    -0.299 C  
HETATM    9  C   UNL     1     -12.413   9.917  71.092  1.00  0.00    -0.464 C  
HETATM   10  C   UNL     1     -14.359   8.497  71.860  1.00  0.00    -0.536 C  
HETATM   11  C   UNL     1     -12.914   8.754  71.538  1.00  0.00    -0.359 C  
BRANCH   4  12
HETATM   12  O   UNL     1      -8.672   9.281  71.501  1.00  0.00    -0.323 OA 
HETATM   13  C   UNL     1      -7.829   9.003  70.390  1.00  0.00    -0.116 C  
ENDBRANCH   4  12
BRANCH   9  14
HETATM   14  C   UNL     1     -13.199  11.182  70.943  1.00  0.00     0.029 C  
BRANCH  14  15
HETATM   15  C   UNL     1     -13.182  12.050  72.203  1.00  0.00    -0.400 C  
BRANCH  15  16
HETATM   16  C   UNL     1     -13.958  13.351  72.005  1.00  0.00    -0.414 C  
BRANCH  16  17
HETATM   17  C   UNL     1     -13.252  14.528  72.668  1.00  0.00    -0.571 C  
BRANCH  17  18
HETATM   18  C   UNL     1     -12.033  14.979  71.886  1.00  0.00    -0.454 C  
BRANCH  18  19
HETATM   19  C   UNL     1     -12.423  15.168  70.425  1.00  0.00    -0.416 C  
BRANCH  19  20
HETATM   20  C   UNL     1     -11.541  14.320  69.527  1.00  0.00    -0.353 C  
BRANCH  20  21
HETATM   21  C   UNL     1     -11.829  14.619  68.063  1.00  0.00    -0.343 C  
BRANCH  21  22
HETATM   22  C   UNL     1     -11.973  13.318  67.286  1.00  0.00    -0.393 C  
BRANCH  22  23
HETATM   23  C   UNL     1     -11.504  13.492  65.847  1.00  0.00    -0.338 C  
BRANCH  23  24
HETATM   24  C   UNL     1     -11.753  12.221  65.046  1.00  0.00    -0.405 C  
BRANCH  24  25
HETATM   25  C   UNL     1     -11.725  12.500  63.553  1.00  0.00    -0.518 C  
HETATM   26  O   UNL     1     -12.482  11.512  62.869  1.00  0.00    -0.964 OA 
HETATM   27  H   UNL     1     -12.466  11.686  61.935  1.00  0.00     0.000 HD 
ENDBRANCH  24  25
ENDBRANCH  23  24
ENDBRANCH  22  23
ENDBRANCH  21  22
ENDBRANCH  20  21
ENDBRANCH  19  20
ENDBRANCH  18  19
ENDBRANCH  17  18
ENDBRANCH  16  17
ENDBRANCH  15  16
ENDBRANCH  14  15
ENDBRANCH   9  14
ENDBRANCH   2   3
TORSDOF 14
ENDMDL
MODEL       48
REMARK 921   NORMALIZED FREE ENERGY PREDICTED BY IDOCK:   -4.82 KCAL/MOL
REMARK 922        TOTAL FREE ENERGY PREDICTED BY IDOCK:  -10.59 KCAL/MOL
REMARK 923 INTER-LIGAND FREE ENERGY PREDICTED BY IDOCK:   -8.97 KCAL/MOL
REMARK 924 INTRA-LIGAND FREE ENERGY PREDICTED BY IDOCK:   -1.62 KCAL/MOL
REMARK 927      BINDING AFFINITY PREDICTED BY RF-SCORE:    0.00 PKD
ROOT
HETATM    1  C   UNL     1     -10.714   6.312  72.605  1.00  0.00    -0.232 C  
HETATM    2  O   UNL     1     -11.127   7.580  73.098  1.00  0.00    -0.383 OA 
ENDROOT
BRANCH   2   3
HETATM    3  C   UNL     1     -11.122   8.636  72.188  1.00  0.00    -0.364 C  
HETATM    4  C   UNL     1     -12.293   9.230  71.893  1.00  0.00    -0.382 C  
HETATM    5  C   UNL     1     -12.303  10.347  70.901  1.00  0.00    -0.381 C  
HETATM    6  O   UNL     1      -8.741   8.814  71.926  1.00  0.00    -0.284 OA 
HETATM    7  O   UNL     1     -13.198  11.183  70.839  1.00  0.00    -0.149 OA 
HETATM    8  C   UNL     1      -9.861   9.081  71.505  1.00  0.00    -0.310 C  
HETATM    9  C   UNL     1     -11.178  10.395  69.925  1.00  0.00    -0.371 C  
HETATM   10  C   UNL     1      -8.766   9.869  69.374  1.00  0.00    -0.186 C  
HETATM   11  C   UNL     1     -10.002   9.822  70.227  1.00  0.00    -0.309 C  
BRANCH   4  12
HETATM   12  O   UNL     1     -13.447   8.784  72.536  1.00  0.00    -0.397 OA 
HETATM   13  C   UNL     1     -14.399   8.045  71.780  1.00  0.00    -0.478 C  
ENDBRANCH   4  12
BRANCH   9  14
HETATM   14  C   UNL     1     -11.479  11.090  68.633  1.00  0.00    -0.375 C  
BRANCH  14  15
HETATM   15  C   UNL     1     -11.310  12.609  68.718  1.00  0.00    -0.333 C  
BRANCH  15  16
HETATM   16  C   UNL     1      -9.965  13.060  68.149  1.00  0.00    -0.231 C  
BRANCH  16  17
HETATM   17  C   UNL     1     -10.117  13.630  66.743  1.00  0.00    -0.269 C  
BRANCH  17  18
HETATM   18  C   UNL     1      -9.694  15.084  66.666  1.00  0.00    -0.273 C  
BRANCH  18  19
HETATM   19  C   UNL     1     -10.856  15.963  67.113  1.00  0.00    -0.267 C  
BRANCH  19  20
HETATM   20  C   UNL     1     -10.376  17.021  68.090  1.00  0.00    -0.347 C  
BRANCH  20  21
HETATM   21  C   UNL     1     -10.269  16.442  69.493  1.00  0.00    -0.244 C  
BRANCH  21  22
HETATM   22  C   UNL     1     -11.648  16.050  70.000  1.00  0.00    -0.316 C  
BRANCH  22  23
HETATM   23  C   UNL     1     -11.540  15.130  71.209  1.00  0.00    -0.406 C  
BRANCH  23  24
HETATM   24  C   UNL     1     -11.970  15.858  72.475  1.00  0.00    -0.622 C  
BRANCH  24  25
HETATM   25  C   UNL     1     -13.148  15.160  73.136  1.00  0.00    -0.516 C  
HETATM   26  O   UNL     1     -14.338  15.449  72.417  1.00  0.00    -0.543 OA 
HETATM   27  H   UNL     1     -15.074  15.013  72.829  1.00  0.00     0.000 HD 
ENDBRANCH  24  25
ENDBRANCH  23  24
ENDBRANCH  22  23
ENDBRANCH  21  22
ENDBRANCH  20  21
ENDBRANCH  19  20
ENDBRANCH  18  19
ENDBRANCH  17  18
ENDBRANCH  16  17
ENDBRANCH  15  16
ENDBRANCH  14  15
ENDBRANCH   9  14
ENDBRANCH   2   3
TORSDOF 14
ENDMDL
MODEL       49
REMARK 921   NORMALIZED FREE ENERGY PREDICTED BY IDOCK:   -4.80 KCAL/MOL
REMARK 922        TOTAL FREE ENERGY PREDICTED BY IDOCK:  -10.54 KCAL/MOL
REMARK 923 INTER-LIGAND FREE ENERGY PREDICTED BY IDOCK:   -8.20 KCAL/MOL
REMARK 924 INTRA-LIGAND FREE ENERGY PREDICTED BY IDOCK:   -2.34 KCAL/MOL
REMARK 927      BINDING AFFINITY PREDICTED BY RF-SCORE:    0.00 PKD
ROOT
HETATM    1  C   UNL     1     -12.162  15.621  64.361  1.00  0.00    -0.016 C  
HETATM    2  O   UNL     1     -10.947  15.520  65.094  1.00  0.00    -0.377 OA 
ENDROOT
BRANCH   2   3
HETATM    3  C   UNL     1     -10.863  14.486  66.024  1.00  0.00    -0.310 C  
HETATM    4  C   UNL     1     -10.518  13.261  65.588  1.00  0.00    -0.281 C  
HETATM    5  C   UNL     1     -10.448  12.140  66.573  1.00  0.00    -0.225 C  
HETATM    6  O   UNL     1     -11.219  15.810  67.998  1.00  0.00    -0.342 OA 
HETATM    7  O   UNL     1      -9.804  11.115  66.380  1.00  0.00    -0.200 OA 
HETATM    8  C   UNL     1     -11.195  14.702  67.474  1.00  0.00    -0.333 C  
HETATM    9  C   UNL     1     -11.247  12.287  67.823  1.00  0.00    -0.331 C  
HETATM   10  C   UNL     1     -12.299  13.801  69.554  1.00  0.00    -0.258 C  
HETATM   11  C   UNL     1     -11.574  13.509  68.271  1.00  0.00    -0.381 C  
BRANCH   4  12
HETATM   12  O   UNL     1     -10.229  13.093  64.235  1.00  0.00    -0.400 OA 
HETATM   13  C   UNL     1     -11.061  12.232  63.467  1.00  0.00    -0.464 C  
ENDBRANCH   4  12
BRANCH   9  14
HETATM   14  C   UNL     1     -11.647  11.003  68.482  1.00  0.00    -0.380 C  
BRANCH  14  15
HETATM   15  C   UNL     1     -10.670  10.562  69.574  1.00  0.00    -0.291 C  
BRANCH  15  16
HETATM   16  C   UNL     1     -11.382  10.314  70.904  1.00  0.00    -0.376 C  
BRANCH  16  17
HETATM   17  C   UNL     1     -12.894  10.251  70.723  1.00  0.00    -0.427 C  
BRANCH  17  18
HETATM   18  C   UNL     1     -13.531   9.186  71.596  1.00  0.00    -0.452 C  
BRANCH  18  19
HETATM   19  C   UNL     1     -12.434   8.316  72.197  1.00  0.00    -0.398 C  
BRANCH  19  20
HETATM   20  C   UNL     1     -12.619   6.868  71.784  1.00  0.00    -0.386 C  
BRANCH  20  21
HETATM   21  C   UNL     1     -12.063   6.636  70.387  1.00  0.00    -0.251 C  
BRANCH  21  22
HETATM   22  C   UNL     1     -10.591   6.259  70.470  1.00  0.00    -0.305 C  
BRANCH  22  23
HETATM   23  C   UNL     1      -9.776   7.028  69.439  1.00  0.00    -0.159 C  
BRANCH  23  24
HETATM   24  C   UNL     1     -10.548   7.155  68.133  1.00  0.00    -0.241 C  
BRANCH  24  25
HETATM   25  C   UNL     1      -9.610   7.406  66.964  1.00  0.00    -0.172 C  
HETATM   26  O   UNL     1     -10.188   8.359  66.084  1.00  0.00    -0.449 OA 
HETATM   27  H   UNL     1      -9.602   8.517  65.353  1.00  0.00     0.000 HD 
ENDBRANCH  24  25
ENDBRANCH  23  24
ENDBRANCH  22  23
ENDBRANCH  21  22
ENDBRANCH  20  21
ENDBRANCH  19  20
ENDBRANCH  18  19
ENDBRANCH  17  18
ENDBRANCH  16  17
ENDBRANCH  15  16
ENDBRANCH  14  15
ENDBRANCH   9  14
ENDBRANCH   2   3
TORSDOF 14
ENDMDL
MODEL       50
REMARK 921   NORMALIZED FREE ENERGY PREDICTED BY IDOCK:   -4.75 KCAL/MOL
REMARK 922        TOTAL FREE ENERGY PREDICTED BY IDOCK:  -10.46 KCAL/MOL
REMARK 923 INTER-LIGAND FREE ENERGY PREDICTED BY IDOCK:   -8.58 KCAL/MOL
REMARK 924 INTRA-LIGAND FREE ENERGY PREDICTED BY IDOCK:   -1.88 KCAL/MOL
REMARK 927      BINDING AFFINITY PREDICTED BY RF-SCORE:    0.00 PKD
ROOT
HETATM    1  C   UNL     1     -10.132  17.605  68.477  1.00  0.00    -0.375 C  
HETATM    2  O   UNL     1     -11.205  16.779  68.045  1.00  0.00    -0.295 OA 
ENDROOT
BRANCH   2   3
HETATM    3  C   UNL     1     -11.194  15.457  68.488  1.00  0.00    -0.318 C  
HETATM    4  C   UNL     1     -10.793  14.500  67.632  1.00  0.00    -0.273 C  
HETATM    5  C   UNL     1     -10.801  13.078  68.088  1.00  0.00    -0.247 C  
HETATM    6  O   UNL     1     -11.754  15.891  70.784  1.00  0.00    -0.351 OA 
HETATM    7  O   UNL     1     -10.127  12.199  67.561  1.00  0.00    -0.194 OA 
HETATM    8  C   UNL     1     -11.665  15.084  69.865  1.00  0.00    -0.307 C  
HETATM    9  C   UNL     1     -11.716  12.733  69.213  1.00  0.00    -0.376 C  
HETATM   10  C   UNL     1     -12.948  13.455  71.300  1.00  0.00    -0.368 C  
HETATM   11  C   UNL     1     -12.101  13.683  70.080  1.00  0.00    -0.431 C  
BRANCH   4  12
HETATM   12  O   UNL     1     -10.375  14.879  66.357  1.00  0.00    -0.271 OA 
HETATM   13  C   UNL     1     -11.245  14.634  65.259  1.00  0.00    -0.358 C  
ENDBRANCH   4  12
BRANCH   9  14
HETATM   14  C   UNL     1     -12.159  11.303  69.264  1.00  0.00    -0.372 C  
BRANCH  14  15
HETATM   15  C   UNL     1     -11.486  10.509  70.385  1.00  0.00    -0.427 C  
BRANCH  15  16
HETATM   16  C   UNL     1     -12.511   9.818  71.283  1.00  0.00    -0.461 C  
BRANCH  16  17
HETATM   17  C   UNL     1     -11.898   8.633  72.020  1.00  0.00    -0.443 C  
BRANCH  17  18
HETATM   18  C   UNL     1     -12.600   7.329  71.691  1.00  0.00    -0.403 C  
BRANCH  18  19
HETATM   19  C   UNL     1     -11.847   6.632  70.565  1.00  0.00    -0.430 C  
BRANCH  19  20
HETATM   20  C   UNL     1     -10.352   6.848  70.712  1.00  0.00    -0.223 C  
BRANCH  20  21
HETATM   21  C   UNL     1      -9.670   6.807  69.352  1.00  0.00    -0.155 C  
BRANCH  21  22
HETATM   22  C   UNL     1     -10.548   6.069  68.353  1.00  0.00    -0.322 C  
BRANCH  22  23
HETATM   23  C   UNL     1     -10.563   6.788  67.010  1.00  0.00    -0.405 C  
BRANCH  23  24
HETATM   24  C   UNL     1     -10.398   8.288  67.204  1.00  0.00    -0.387 C  
BRANCH  24  25
HETATM   25  C   UNL     1      -9.553   8.895  66.097  1.00  0.00    -0.265 C  
HETATM   26  O   UNL     1      -8.580   9.763  66.660  1.00  0.00    -0.126 OA 
HETATM   27  H   UNL     1      -8.051  10.143  65.967  1.00  0.00     0.000 HD 
ENDBRANCH  24  25
ENDBRANCH  23  24
ENDBRANCH  22  23
ENDBRANCH  21  22
ENDBRANCH  20  21
ENDBRANCH  19  20
ENDBRANCH  18  19
ENDBRANCH  17  18
ENDBRANCH  16  17
ENDBRANCH  15  16
ENDBRANCH  14  15
ENDBRANCH   9  14
ENDBRANCH   2   3
TORSDOF 14
ENDMDL
MODEL       51
REMARK 921   NORMALIZED FREE ENERGY PREDICTED BY IDOCK:   -4.74 KCAL/MOL
REMARK 922        TOTAL FREE ENERGY PREDICTED BY IDOCK:  -10.45 KCAL/MOL
REMARK 923 INTER-LIGAND FREE ENERGY PREDICTED BY IDOCK:   -8.71 KCAL/MOL
REMARK 924 INTRA-LIGAND FREE ENERGY PREDICTED BY IDOCK:   -1.74 KCAL/MOL
REMARK 927      BINDING AFFINITY PREDICTED BY RF-SCORE:    0.00 PKD
ROOT
HETATM    1  C   UNL     1     -12.654   8.755  72.224  1.00  0.00    -0.394 C  
HETATM    2  O   UNL     1     -11.399   9.280  71.812  1.00  0.00    -0.369 OA 
ENDROOT
BRANCH   2   3
HETATM    3  C   UNL     1     -11.289   9.659  70.475  1.00  0.00    -0.296 C  
HETATM    4  C   UNL     1     -10.785   8.772  69.599  1.00  0.00    -0.208 C  
HETATM    5  C   UNL     1     -10.639   9.176  68.168  1.00  0.00    -0.183 C  
HETATM    6  O   UNL     1     -12.397  11.783  70.659  1.00  0.00    -0.358 OA 
HETATM    7  O   UNL     1     -10.559   8.371  67.247  1.00  0.00    -0.302 OA 
HETATM    8  C   UNL     1     -11.668  11.038  70.014  1.00  0.00    -0.355 C  
HETATM    9  C   UNL     1     -10.545  10.636  67.885  1.00  0.00    -0.266 C  
HETATM   10  C   UNL     1     -11.115  13.010  68.543  1.00  0.00    -0.298 C  
HETATM   11  C   UNL     1     -11.066  11.523  68.747  1.00  0.00    -0.288 C  
BRANCH   4  12
HETATM   12  O   UNL     1     -10.431   7.505  70.063  1.00  0.00    -0.217 OA 
HETATM   13  C   UNL     1     -11.325   6.424  69.830  1.00  0.00    -0.427 C  
ENDBRANCH   4  12
BRANCH   9  14
HETATM   14  C   UNL     1      -9.830  10.998  66.619  1.00  0.00    -0.235 C  
BRANCH  14  15
HETATM   15  C   UNL     1     -10.716  10.880  65.377  1.00  0.00    -0.189 C  
BRANCH  15  16
HETATM   16  C   UNL     1     -10.280  11.849  64.278  1.00  0.00    -0.346 C  
BRANCH  16  17
HETATM   17  C   UNL     1     -11.466  12.619  63.711  1.00  0.00    -0.539 C  
BRANCH  17  18
HETATM   18  C   UNL     1     -12.583  12.779  64.725  1.00  0.00    -0.518 C  
BRANCH  18  19
HETATM   19  C   UNL     1     -12.497  14.168  65.343  1.00  0.00    -0.488 C  
BRANCH  19  20
HETATM   20  C   UNL     1     -11.957  15.165  64.334  1.00  0.00    -0.321 C  
BRANCH  20  21
HETATM   21  C   UNL     1     -10.931  16.081  64.986  1.00  0.00    -0.393 C  
BRANCH  21  22
HETATM   22  C   UNL     1      -9.975  15.265  65.841  1.00  0.00    -0.368 C  
BRANCH  22  23
HETATM   23  C   UNL     1      -8.942  16.164  66.510  1.00  0.00    -0.322 C  
BRANCH  23  24
HETATM   24  C   UNL     1      -9.345  17.627  66.382  1.00  0.00    -0.265 C  
BRANCH  24  25
HETATM   25  C   UNL     1      -9.754  18.202  67.728  1.00  0.00    -0.293 C  
HETATM   26  O   UNL     1     -10.846  19.094  67.554  1.00  0.00    -0.473 OA 
HETATM   27  H   UNL     1     -11.102  19.453  68.395  1.00  0.00     0.000 HD 
ENDBRANCH  24  25
ENDBRANCH  23  24
ENDBRANCH  22  23
ENDBRANCH  21  22
ENDBRANCH  20  21
ENDBRANCH  19  20
ENDBRANCH  18  19
ENDBRANCH  17  18
ENDBRANCH  16  17
ENDBRANCH  15  16
ENDBRANCH  14  15
ENDBRANCH   9  14
ENDBRANCH   2   3
TORSDOF 14
ENDMDL
MODEL       52
REMARK 921   NORMALIZED FREE ENERGY PREDICTED BY IDOCK:   -4.74 KCAL/MOL
REMARK 922        TOTAL FREE ENERGY PREDICTED BY IDOCK:  -10.44 KCAL/MOL
REMARK 923 INTER-LIGAND FREE ENERGY PREDICTED BY IDOCK:   -8.42 KCAL/MOL
REMARK 924 INTRA-LIGAND FREE ENERGY PREDICTED BY IDOCK:   -2.02 KCAL/MOL
REMARK 927      BINDING AFFINITY PREDICTED BY RF-SCORE:    0.00 PKD
ROOT
HETATM    1  C   UNL     1     -11.172  15.685  64.656  1.00  0.00    -0.369 C  
HETATM    2  O   UNL     1     -12.234  14.751  64.802  1.00  0.00    -0.408 OA 
ENDROOT
BRANCH   2   3
HETATM    3  C   UNL     1     -11.885  13.468  65.220  1.00  0.00    -0.352 C  
HETATM    4  C   UNL     1     -11.949  13.184  66.533  1.00  0.00    -0.398 C  
HETATM    5  C   UNL     1     -11.553  11.819  66.995  1.00  0.00    -0.244 C  
HETATM    6  O   UNL     1     -11.591  12.497  63.042  1.00  0.00    -0.316 OA 
HETATM    7  O   UNL     1     -11.917  11.340  68.063  1.00  0.00    -0.621 OA 
HETATM    8  C   UNL     1     -11.396  12.429  64.250  1.00  0.00    -0.360 C  
HETATM    9  C   UNL     1     -10.635  11.046  66.111  1.00  0.00    -0.288 C  
HETATM   10  C   UNL     1      -9.772  10.557  63.785  1.00  0.00    -0.385 C  
HETATM   11  C   UNL     1     -10.586  11.313  64.797  1.00  0.00    -0.376 C  
BRANCH   4  12
HETATM   12  O   UNL     1     -12.394  14.175  67.408  1.00  0.00    -0.317 OA 
HETATM   13  C   UNL     1     -11.448  14.780  68.282  1.00  0.00    -0.317 C  
ENDBRANCH   4  12
BRANCH   9  14
HETATM   14  C   UNL     1      -9.802  10.011  66.802  1.00  0.00    -0.251 C  
BRANCH  14  15
HETATM   15  C   UNL     1      -8.486  10.570  67.347  1.00  0.00    -0.122 C  
BRANCH  15  16
HETATM   16  C   UNL     1      -8.488  10.633  68.874  1.00  0.00    -0.154 C  
BRANCH  16  17
HETATM   17  C   UNL     1      -8.701   9.255  69.489  1.00  0.00    -0.146 C  
BRANCH  17  18
HETATM   18  C   UNL     1      -9.696   9.286  70.633  1.00  0.00    -0.334 C  
BRANCH  18  19
HETATM   19  C   UNL     1     -11.029   8.732  70.147  1.00  0.00    -0.236 C  
BRANCH  19  20
HETATM   20  C   UNL     1     -10.806   7.571  69.195  1.00  0.00    -0.105 C  
BRANCH  20  21
HETATM   21  C   UNL     1     -11.261   6.266  69.830  1.00  0.00    -0.499 C  
BRANCH  21  22
HETATM   22  C   UNL     1     -10.063   5.361  70.075  1.00  0.00    -0.324 C  
BRANCH  22  23
HETATM   23  C   UNL     1      -9.701   5.331  71.555  1.00  0.00    -0.215 C  
BRANCH  23  24
HETATM   24  C   UNL     1     -10.923   5.634  72.411  1.00  0.00    -0.311 C  
BRANCH  24  25
HETATM   25  C   UNL     1     -10.658   6.795  73.355  1.00  0.00    -0.325 C  
HETATM   26  O   UNL     1     -11.751   7.700  73.318  1.00  0.00    -0.649 OA 
HETATM   27  H   UNL     1     -11.585   8.426  73.908  1.00  0.00     0.000 HD 
ENDBRANCH  24  25
ENDBRANCH  23  24
ENDBRANCH  22  23
ENDBRANCH  21  22
ENDBRANCH  20  21
ENDBRANCH  19  20
ENDBRANCH  18  19
ENDBRANCH  17  18
ENDBRANCH  16  17
ENDBRANCH  15  16
ENDBRANCH  14  15
ENDBRANCH   9  14
ENDBRANCH   2   3
TORSDOF 14
ENDMDL
MODEL       53
REMARK 921   NORMALIZED FREE ENERGY PREDICTED BY IDOCK:   -4.74 KCAL/MOL
REMARK 922        TOTAL FREE ENERGY PREDICTED BY IDOCK:  -10.44 KCAL/MOL
REMARK 923 INTER-LIGAND FREE ENERGY PREDICTED BY IDOCK:   -8.23 KCAL/MOL
REMARK 924 INTRA-LIGAND FREE ENERGY PREDICTED BY IDOCK:   -2.21 KCAL/MOL
REMARK 927      BINDING AFFINITY PREDICTED BY RF-SCORE:    0.00 PKD
ROOT
HETATM    1  C   UNL     1     -12.072  14.227  68.239  1.00  0.00    -0.243 C  
HETATM    2  O   UNL     1     -11.262  14.247  67.072  1.00  0.00    -0.303 OA 
ENDROOT
BRANCH   2   3
HETATM    3  C   UNL     1     -10.547  13.085  66.786  1.00  0.00    -0.262 C  
HETATM    4  C   UNL     1     -10.995  12.285  65.802  1.00  0.00    -0.301 C  
HETATM    5  C   UNL     1     -10.251  11.024  65.505  1.00  0.00    -0.268 C  
HETATM    6  O   UNL     1      -8.697  13.483  68.267  1.00  0.00    -0.172 OA 
HETATM    7  O   UNL     1     -10.330  10.434  64.433  1.00  0.00    -0.304 OA 
HETATM    8  C   UNL     1      -9.334  12.692  67.581  1.00  0.00    -0.190 C  
HETATM    9  C   UNL     1      -9.414  10.458  66.601  1.00  0.00    -0.199 C  
HETATM   10  C   UNL     1      -8.030  10.836  68.683  1.00  0.00    -0.133 C  
HETATM   11  C   UNL     1      -8.948  11.259  67.572  1.00  0.00    -0.140 C  
BRANCH   4  12
HETATM   12  O   UNL     1     -12.131  12.674  65.094  1.00  0.00    -0.407 OA 
HETATM   13  C   UNL     1     -11.961  13.243  63.802  1.00  0.00    -0.491 C  
ENDBRANCH   4  12
BRANCH   9  14
HETATM   14  C   UNL     1      -9.176   8.981  66.528  1.00  0.00    -0.226 C  
BRANCH  14  15
HETATM   15  C   UNL     1     -10.383   8.157  66.981  1.00  0.00    -0.403 C  
BRANCH  15  16
HETATM   16  C   UNL     1     -10.382   7.937  68.493  1.00  0.00    -0.229 C  
BRANCH  16  17
HETATM   17  C   UNL     1      -9.476   6.778  68.887  1.00  0.00    -0.128 C  
BRANCH  17  18
HETATM   18  C   UNL     1      -9.982   6.047  70.116  1.00  0.00    -0.228 C  
BRANCH  18  19
HETATM   19  C   UNL     1     -11.502   6.141  70.158  1.00  0.00    -0.365 C  
BRANCH  19  20
HETATM   20  C   UNL     1     -11.963   6.703  71.490  1.00  0.00    -0.402 C  
BRANCH  20  21
HETATM   21  C   UNL     1     -10.836   7.471  72.164  1.00  0.00    -0.282 C  
BRANCH  21  22
HETATM   22  C   UNL     1     -11.046   8.966  71.984  1.00  0.00    -0.421 C  
BRANCH  22  23
HETATM   23  C   UNL     1     -12.508   9.277  71.691  1.00  0.00    -0.448 C  
BRANCH  23  24
HETATM   24  C   UNL     1     -12.653  10.683  71.126  1.00  0.00    -0.526 C  
BRANCH  24  25
HETATM   25  C   UNL     1     -11.692  10.912  69.970  1.00  0.00    -0.345 C  
HETATM   26  O   UNL     1     -12.381  10.754  68.738  1.00  0.00    -0.812 OA 
HETATM   27  H   UNL     1     -11.781  10.897  68.015  1.00  0.00     0.000 HD 
ENDBRANCH  24  25
ENDBRANCH  23  24
ENDBRANCH  22  23
ENDBRANCH  21  22
ENDBRANCH  20  21
ENDBRANCH  19  20
ENDBRANCH  18  19
ENDBRANCH  17  18
ENDBRANCH  16  17
ENDBRANCH  15  16
ENDBRANCH  14  15
ENDBRANCH   9  14
ENDBRANCH   2   3
TORSDOF 14
ENDMDL
MODEL       54
REMARK 921   NORMALIZED FREE ENERGY PREDICTED BY IDOCK:   -4.72 KCAL/MOL
REMARK 922        TOTAL FREE ENERGY PREDICTED BY IDOCK:  -10.39 KCAL/MOL
REMARK 923 INTER-LIGAND FREE ENERGY PREDICTED BY IDOCK:   -8.70 KCAL/MOL
REMARK 924 INTRA-LIGAND FREE ENERGY PREDICTED BY IDOCK:   -1.70 KCAL/MOL
REMARK 927      BINDING AFFINITY PREDICTED BY RF-SCORE:    0.00 PKD
ROOT
HETATM    1  C   UNL     1     -10.993   6.093  72.821  1.00  0.00    -0.260 C  
HETATM    2  O   UNL     1     -11.215   7.420  73.278  1.00  0.00    -0.324 OA 
ENDROOT
BRANCH   2   3
HETATM    3  C   UNL     1     -11.138   8.432  72.322  1.00  0.00    -0.368 C  
HETATM    4  C   UNL     1     -12.284   8.977  71.876  1.00  0.00    -0.381 C  
HETATM    5  C   UNL     1     -12.214  10.045  70.834  1.00  0.00    -0.346 C  
HETATM    6  O   UNL     1      -8.747   8.664  72.302  1.00  0.00    -0.306 OA 
HETATM    7  O   UNL     1     -13.117  10.851  70.636  1.00  0.00    -0.246 OA 
HETATM    8  C   UNL     1      -9.822   8.879  71.753  1.00  0.00    -0.315 C  
HETATM    9  C   UNL     1     -10.993  10.078  69.979  1.00  0.00    -0.352 C  
HETATM   10  C   UNL     1      -8.526   9.594  69.712  1.00  0.00    -0.200 C  
HETATM   11  C   UNL     1      -9.844   9.553  70.432  1.00  0.00    -0.329 C  
BRANCH   4  12
HETATM   12  O   UNL     1     -13.489   8.529  72.416  1.00  0.00    -0.331 OA 
HETATM   13  C   UNL     1     -14.332   7.719  71.607  1.00  0.00    -0.481 C  
ENDBRANCH   4  12
BRANCH   9  14
HETATM   14  C   UNL     1     -11.172  10.701  68.630  1.00  0.00    -0.337 C  
BRANCH  14  15
HETATM   15  C   UNL     1     -10.715  12.161  68.580  1.00  0.00    -0.261 C  
BRANCH  15  16
HETATM   16  C   UNL     1      -9.688  12.395  67.474  1.00  0.00    -0.191 C  
BRANCH  16  17
HETATM   17  C   UNL     1      -8.301  12.660  68.048  1.00  0.00    -0.175 C  
BRANCH  17  18
HETATM   18  C   UNL     1      -7.693  13.941  67.509  1.00  0.00    -0.192 C  
BRANCH  18  19
HETATM   19  C   UNL     1      -7.912  15.058  68.521  1.00  0.00    -0.144 C  
BRANCH  19  20
HETATM   20  C   UNL     1      -8.947  16.043  68.010  1.00  0.00    -0.187 C  
BRANCH  20  21
HETATM   21  C   UNL     1      -9.043  15.976  66.493  1.00  0.00    -0.319 C  
BRANCH  21  22
HETATM   22  C   UNL     1     -10.450  16.342  66.045  1.00  0.00    -0.333 C  
BRANCH  22  23
HETATM   23  C   UNL     1     -10.890  15.472  64.875  1.00  0.00    -0.447 C  
BRANCH  23  24
HETATM   24  C   UNL     1     -11.692  14.276  65.370  1.00  0.00    -0.354 C  
BRANCH  24  25
HETATM   25  C   UNL     1     -11.847  13.230  64.278  1.00  0.00    -0.417 C  
HETATM   26  O   UNL     1     -12.404  13.830  63.118  1.00  0.00    -1.099 OA 
HETATM   27  H   UNL     1     -12.501  13.177  62.435  1.00  0.00     0.000 HD 
ENDBRANCH  24  25
ENDBRANCH  23  24
ENDBRANCH  22  23
ENDBRANCH  21  22
ENDBRANCH  20  21
ENDBRANCH  19  20
ENDBRANCH  18  19
ENDBRANCH  17  18
ENDBRANCH  16  17
ENDBRANCH  15  16
ENDBRANCH  14  15
ENDBRANCH   9  14
ENDBRANCH   2   3
TORSDOF 14
ENDMDL
MODEL       55
REMARK 921   NORMALIZED FREE ENERGY PREDICTED BY IDOCK:   -4.71 KCAL/MOL
REMARK 922        TOTAL FREE ENERGY PREDICTED BY IDOCK:  -10.39 KCAL/MOL
REMARK 923 INTER-LIGAND FREE ENERGY PREDICTED BY IDOCK:   -8.19 KCAL/MOL
REMARK 924 INTRA-LIGAND FREE ENERGY PREDICTED BY IDOCK:   -2.20 KCAL/MOL
REMARK 927      BINDING AFFINITY PREDICTED BY RF-SCORE:    0.00 PKD
ROOT
HETATM    1  C   UNL     1     -10.719  19.695  65.825  1.00  0.00    -0.392 C  
HETATM    2  O   UNL     1     -10.174  18.388  65.698  1.00  0.00    -0.565 OA 
ENDROOT
BRANCH   2   3
HETATM    3  C   UNL     1      -9.376  17.939  66.749  1.00  0.00    -0.275 C  
HETATM    4  C   UNL     1      -8.042  18.073  66.641  1.00  0.00    -0.260 C  
HETATM    5  C   UNL     1      -7.177  17.572  67.751  1.00  0.00    -0.177 C  
HETATM    6  O   UNL     1     -11.149  17.378  68.270  1.00  0.00    -0.251 OA 
HETATM    7  O   UNL     1      -6.030  17.964  67.938  1.00  0.00    -0.153 OA 
HETATM    8  C   UNL     1      -9.969  17.270  67.957  1.00  0.00    -0.304 C  
HETATM    9  C   UNL     1      -7.748  16.512  68.629  1.00  0.00    -0.216 C  
HETATM   10  C   UNL     1      -9.783  15.426  69.666  1.00  0.00    -0.251 C  
HETATM   11  C   UNL     1      -9.079  16.391  68.755  1.00  0.00    -0.244 C  
BRANCH   4  12
HETATM   12  O   UNL     1      -7.525  18.687  65.501  1.00  0.00    -0.505 OA 
HETATM   13  C   UNL     1      -7.121  20.047  65.588  1.00  0.00    -0.315 C  
ENDBRANCH   4  12
BRANCH   9  14
HETATM   14  C   UNL     1      -6.745  15.629  69.305  1.00  0.00    -0.158 C  
BRANCH  14  15
HETATM   15  C   UNL     1      -6.241  14.499  68.405  1.00  0.00    -0.103 C  
BRANCH  15  16
HETATM   16  C   UNL     1      -6.864  13.155  68.782  1.00  0.00    -0.102 C  
BRANCH  16  17
HETATM   17  C   UNL     1      -7.696  12.587  67.638  1.00  0.00    -0.151 C  
BRANCH  17  18
HETATM   18  C   UNL     1      -9.092  12.195  68.085  1.00  0.00    -0.196 C  
BRANCH  18  19
HETATM   19  C   UNL     1     -10.080  12.527  66.974  1.00  0.00    -0.222 C  
BRANCH  19  20
HETATM   20  C   UNL     1     -11.492  12.603  67.525  1.00  0.00    -0.397 C  
BRANCH  20  21
HETATM   21  C   UNL     1     -12.109  13.961  67.226  1.00  0.00    -0.403 C  
BRANCH  21  22
HETATM   22  C   UNL     1     -11.615  14.472  65.881  1.00  0.00    -0.349 C  
BRANCH  22  23
HETATM   23  C   UNL     1     -12.630  14.180  64.784  1.00  0.00    -0.326 C  
BRANCH  23  24
HETATM   24  C   UNL     1     -11.969  13.450  63.623  1.00  0.00    -0.504 C  
BRANCH  24  25
HETATM   25  C   UNL     1     -12.314  11.970  63.637  1.00  0.00    -0.539 C  
HETATM   26  O   UNL     1     -11.361  11.250  62.869  1.00  0.00    -0.826 OA 
HETATM   27  H   UNL     1     -11.577  10.325  62.878  1.00  0.00     0.000 HD 
ENDBRANCH  24  25
ENDBRANCH  23  24
ENDBRANCH  22  23
ENDBRANCH  21  22
ENDBRANCH  20  21
ENDBRANCH  19  20
ENDBRANCH  18  19
ENDBRANCH  17  18
ENDBRANCH  16  17
ENDBRANCH  15  16
ENDBRANCH  14  15
ENDBRANCH   9  14
ENDBRANCH   2   3
TORSDOF 14
ENDMDL
MODEL       56
REMARK 921   NORMALIZED FREE ENERGY PREDICTED BY IDOCK:   -4.68 KCAL/MOL
REMARK 922        TOTAL FREE ENERGY PREDICTED BY IDOCK:  -10.32 KCAL/MOL
REMARK 923 INTER-LIGAND FREE ENERGY PREDICTED BY IDOCK:   -8.36 KCAL/MOL
REMARK 924 INTRA-LIGAND FREE ENERGY PREDICTED BY IDOCK:   -1.97 KCAL/MOL
REMARK 927      BINDING AFFINITY PREDICTED BY RF-SCORE:    0.00 PKD
ROOT
HETATM    1  C   UNL     1     -10.840  15.524  64.833  1.00  0.00    -0.427 C  
HETATM    2  O   UNL     1     -11.931  14.613  64.875  1.00  0.00    -0.394 OA 
ENDROOT
BRANCH   2   3
HETATM    3  C   UNL     1     -11.643  13.311  65.280  1.00  0.00    -0.310 C  
HETATM    4  C   UNL     1     -11.801  12.997  66.579  1.00  0.00    -0.403 C  
HETATM    5  C   UNL     1     -11.472  11.611  67.029  1.00  0.00    -0.262 C  
HETATM    6  O   UNL     1     -11.232  12.387  63.101  1.00  0.00    -0.387 OA 
HETATM    7  O   UNL     1     -11.917  11.115  68.058  1.00  0.00    -0.625 OA 
HETATM    8  C   UNL     1     -11.119  12.284  64.317  1.00  0.00    -0.348 C  
HETATM    9  C   UNL     1     -10.518  10.835  66.187  1.00  0.00    -0.278 C  
HETATM   10  C   UNL     1      -9.516  10.380  63.910  1.00  0.00    -0.354 C  
HETATM   11  C   UNL     1     -10.375  11.133  64.886  1.00  0.00    -0.375 C  
BRANCH   4  12
HETATM   12  O   UNL     1     -12.276  13.978  67.448  1.00  0.00    -0.384 OA 
HETATM   13  C   UNL     1     -11.370  14.551  68.382  1.00  0.00    -0.289 C  
ENDBRANCH   4  12
BRANCH   9  14
HETATM   14  C   UNL     1      -9.758   9.761  66.903  1.00  0.00    -0.243 C  
BRANCH  14  15
HETATM   15  C   UNL     1     -10.364   8.369  66.708  1.00  0.00    -0.357 C  
BRANCH  15  16
HETATM   16  C   UNL     1     -10.849   7.773  68.029  1.00  0.00    -0.046 C  
BRANCH  16  17
HETATM   17  C   UNL     1     -10.307   6.364  68.237  1.00  0.00    -0.228 C  
BRANCH  17  18
HETATM   18  C   UNL     1     -10.810   5.741  69.526  1.00  0.00    -0.410 C  
BRANCH  18  19
HETATM   19  C   UNL     1     -11.851   6.663  70.148  1.00  0.00    -0.347 C  
BRANCH  19  20
HETATM   20  C   UNL     1     -11.533   6.911  71.611  1.00  0.00    -0.312 C  
BRANCH  20  21
HETATM   21  C   UNL     1     -11.273   8.390  71.857  1.00  0.00    -0.379 C  
BRANCH  21  22
HETATM   22  C   UNL     1      -9.777   8.646  71.956  1.00  0.00    -0.391 C  
BRANCH  22  23
HETATM   23  C   UNL     1      -9.263   9.347  70.705  1.00  0.00    -0.278 C  
BRANCH  23  24
HETATM   24  C   UNL     1      -8.062   8.608  70.132  1.00  0.00    -0.113 C  
BRANCH  24  25
HETATM   25  C   UNL     1      -6.820   8.843  70.976  1.00  0.00    -0.081 C  
HETATM   26  O   UNL     1      -6.558  10.236  71.063  1.00  0.00    -0.337 OA 
HETATM   27  H   UNL     1      -5.782  10.383  71.590  1.00  0.00     0.000 HD 
ENDBRANCH  24  25
ENDBRANCH  23  24
ENDBRANCH  22  23
ENDBRANCH  21  22
ENDBRANCH  20  21
ENDBRANCH  19  20
ENDBRANCH  18  19
ENDBRANCH  17  18
ENDBRANCH  16  17
ENDBRANCH  15  16
ENDBRANCH  14  15
ENDBRANCH   9  14
ENDBRANCH   2   3
TORSDOF 14
ENDMDL
MODEL       57
REMARK 921   NORMALIZED FREE ENERGY PREDICTED BY IDOCK:   -4.66 KCAL/MOL
REMARK 922        TOTAL FREE ENERGY PREDICTED BY IDOCK:  -10.30 KCAL/MOL
REMARK 923 INTER-LIGAND FREE ENERGY PREDICTED BY IDOCK:   -8.23 KCAL/MOL
REMARK 924 INTRA-LIGAND FREE ENERGY PREDICTED BY IDOCK:   -2.07 KCAL/MOL
REMARK 927      BINDING AFFINITY PREDICTED BY RF-SCORE:    0.00 PKD
ROOT
HETATM    1  C   UNL     1      -9.175   8.029  72.923  1.00  0.00    -0.265 C  
HETATM    2  O   UNL     1     -10.132   7.488  72.022  1.00  0.00    -0.182 OA 
ENDROOT
BRANCH   2   3
HETATM    3  C   UNL     1     -10.772   8.390  71.174  1.00  0.00    -0.230 C  
HETATM    4  C   UNL     1     -10.328   8.504  69.910  1.00  0.00    -0.210 C  
HETATM    5  C   UNL     1     -10.991   9.486  69.000  1.00  0.00    -0.100 C  
HETATM    6  O   UNL     1     -12.549   9.016  72.666  1.00  0.00    -0.326 OA 
HETATM    7  O   UNL     1     -10.936   9.412  67.777  1.00  0.00    -0.219 OA 
HETATM    8  C   UNL     1     -11.898   9.261  71.656  1.00  0.00    -0.383 C  
HETATM    9  C   UNL     1     -11.709  10.624  69.640  1.00  0.00    -0.368 C  
HETATM   10  C   UNL     1     -12.983  11.537  71.625  1.00  0.00    -0.499 C  
HETATM   11  C   UNL     1     -12.172  10.504  70.895  1.00  0.00    -0.490 C  
BRANCH   4  12
HETATM   12  O   UNL     1      -9.273   7.690  69.499  1.00  0.00    -0.150 OA 
HETATM   13  C   UNL     1      -7.986   8.277  69.345  1.00  0.00    -0.113 C  
ENDBRANCH   4  12
BRANCH   9  14
HETATM   14  C   UNL     1     -11.838  11.856  68.799  1.00  0.00    -0.371 C  
BRANCH  14  15
HETATM   15  C   UNL     1     -10.496  12.542  68.535  1.00  0.00    -0.246 C  
BRANCH  15  16
HETATM   16  C   UNL     1     -10.314  12.878  67.055  1.00  0.00    -0.245 C  
BRANCH  16  17
HETATM   17  C   UNL     1     -11.639  12.825  66.304  1.00  0.00    -0.433 C  
BRANCH  17  18
HETATM   18  C   UNL     1     -12.010  14.167  65.702  1.00  0.00    -0.401 C  
BRANCH  18  19
HETATM   19  C   UNL     1     -10.791  14.746  64.994  1.00  0.00    -0.440 C  
BRANCH  19  20
HETATM   20  C   UNL     1     -10.584  16.195  65.393  1.00  0.00    -0.399 C  
BRANCH  20  21
HETATM   21  C   UNL     1      -9.241  16.371  66.086  1.00  0.00    -0.365 C  
BRANCH  21  22
HETATM   22  C   UNL     1      -9.412  17.205  67.346  1.00  0.00    -0.247 C  
BRANCH  22  23
HETATM   23  C   UNL     1     -10.705  16.844  68.065  1.00  0.00    -0.364 C  
BRANCH  23  24
HETATM   24  C   UNL     1     -10.408  16.197  69.410  1.00  0.00    -0.277 C  
BRANCH  24  25
HETATM   25  C   UNL     1     -11.680  15.689  70.068  1.00  0.00    -0.357 C  
HETATM   26  O   UNL     1     -12.654  15.410  69.072  1.00  0.00    -0.547 OA 
HETATM   27  H   UNL     1     -13.449  15.092  69.483  1.00  0.00     0.000 HD 
ENDBRANCH  24  25
ENDBRANCH  23  24
ENDBRANCH  22  23
ENDBRANCH  21  22
ENDBRANCH  20  21
ENDBRANCH  19  20
ENDBRANCH  18  19
ENDBRANCH  17  18
ENDBRANCH  16  17
ENDBRANCH  15  16
ENDBRANCH  14  15
ENDBRANCH   9  14
ENDBRANCH   2   3
TORSDOF 14
ENDMDL
MODEL       58
REMARK 921   NORMALIZED FREE ENERGY PREDICTED BY IDOCK:   -4.66 KCAL/MOL
REMARK 922        TOTAL FREE ENERGY PREDICTED BY IDOCK:  -10.29 KCAL/MOL
REMARK 923 INTER-LIGAND FREE ENERGY PREDICTED BY IDOCK:   -8.67 KCAL/MOL
REMARK 924 INTRA-LIGAND FREE ENERGY PREDICTED BY IDOCK:   -1.62 KCAL/MOL
REMARK 927      BINDING AFFINITY PREDICTED BY RF-SCORE:    0.00 PKD
ROOT
HETATM    1  C   UNL     1     -11.079   6.128  72.654  1.00  0.00    -0.272 C  
HETATM    2  O   UNL     1     -11.082   7.452  73.172  1.00  0.00    -0.353 OA 
ENDROOT
BRANCH   2   3
HETATM    3  C   UNL     1     -11.143   8.488  72.241  1.00  0.00    -0.360 C  
HETATM    4  C   UNL     1     -12.351   8.975  71.906  1.00  0.00    -0.384 C  
HETATM    5  C   UNL     1     -12.429  10.069  70.890  1.00  0.00    -0.337 C  
HETATM    6  O   UNL     1      -8.778   8.860  72.031  1.00  0.00    -0.365 OA 
HETATM    7  O   UNL     1     -13.389  10.824  70.789  1.00  0.00    -0.146 OA 
HETATM    8  C   UNL     1      -9.906   9.025  71.578  1.00  0.00    -0.310 C  
HETATM    9  C   UNL     1     -11.288  10.192  69.940  1.00  0.00    -0.335 C  
HETATM   10  C   UNL     1      -8.828   9.861  69.457  1.00  0.00    -0.208 C  
HETATM   11  C   UNL     1     -10.076   9.726  70.282  1.00  0.00    -0.323 C  
BRANCH   4  12
HETATM   12  O   UNL     1     -13.479   8.445  72.530  1.00  0.00    -0.238 OA 
HETATM   13  C   UNL     1     -14.384   7.673  71.750  1.00  0.00    -0.452 C  
ENDBRANCH   4  12
BRANCH   9  14
HETATM   14  C   UNL     1     -11.613  10.835  68.627  1.00  0.00    -0.342 C  
BRANCH  14  15
HETATM   15  C   UNL     1     -11.705  12.360  68.714  1.00  0.00    -0.379 C  
BRANCH  15  16
HETATM   16  C   UNL     1     -11.983  12.988  67.348  1.00  0.00    -0.372 C  
BRANCH  16  17
HETATM   17  C   UNL     1     -10.927  12.587  66.325  1.00  0.00    -0.311 C  
BRANCH  17  18
HETATM   18  C   UNL     1      -9.817  13.616  66.214  1.00  0.00    -0.310 C  
BRANCH  18  19
HETATM   19  C   UNL     1     -10.380  14.886  65.590  1.00  0.00    -0.370 C  
BRANCH  19  20
HETATM   20  C   UNL     1      -9.737  16.113  66.211  1.00  0.00    -0.332 C  
BRANCH  20  21
HETATM   21  C   UNL     1      -9.661  15.966  67.724  1.00  0.00    -0.218 C  
BRANCH  21  22
HETATM   22  C   UNL     1     -10.854  16.652  68.373  1.00  0.00    -0.361 C  
BRANCH  22  23
HETATM   23  C   UNL     1     -10.958  16.279  69.846  1.00  0.00    -0.365 C  
BRANCH  23  24
HETATM   24  C   UNL     1     -12.327  15.690  70.153  1.00  0.00    -0.366 C  
BRANCH  24  25
HETATM   25  C   UNL     1     -12.429  15.270  71.610  1.00  0.00    -0.363 C  
HETATM   26  O   UNL     1     -11.127  15.110  72.154  1.00  0.00    -0.497 OA 
HETATM   27  H   UNL     1     -11.190  14.848  73.065  1.00  0.00     0.000 HD 
ENDBRANCH  24  25
ENDBRANCH  23  24
ENDBRANCH  22  23
ENDBRANCH  21  22
ENDBRANCH  20  21
ENDBRANCH  19  20
ENDBRANCH  18  19
ENDBRANCH  17  18
ENDBRANCH  16  17
ENDBRANCH  15  16
ENDBRANCH  14  15
ENDBRANCH   9  14
ENDBRANCH   2   3
TORSDOF 14
ENDMDL
MODEL       59
REMARK 921   NORMALIZED FREE ENERGY PREDICTED BY IDOCK:   -4.65 KCAL/MOL
REMARK 922        TOTAL FREE ENERGY PREDICTED BY IDOCK:  -10.28 KCAL/MOL
REMARK 923 INTER-LIGAND FREE ENERGY PREDICTED BY IDOCK:   -8.21 KCAL/MOL
REMARK 924 INTRA-LIGAND FREE ENERGY PREDICTED BY IDOCK:   -2.07 KCAL/MOL
REMARK 927      BINDING AFFINITY PREDICTED BY RF-SCORE:    0.00 PKD
ROOT
HETATM    1  C   UNL     1     -11.236  15.783  64.588  1.00  0.00    -0.363 C  
HETATM    2  O   UNL     1     -12.277  14.822  64.691  1.00  0.00    -0.442 OA 
ENDROOT
BRANCH   2   3
HETATM    3  C   UNL     1     -11.925  13.569  65.191  1.00  0.00    -0.368 C  
HETATM    4  C   UNL     1     -12.024  13.360  66.516  1.00  0.00    -0.400 C  
HETATM    5  C   UNL     1     -11.625  12.029  67.065  1.00  0.00    -0.317 C  
HETATM    6  O   UNL     1     -11.559  12.481  63.080  1.00  0.00    -0.419 OA 
HETATM    7  O   UNL     1     -12.014  11.606  68.149  1.00  0.00    -0.550 OA 
HETATM    8  C   UNL     1     -11.397  12.484  64.296  1.00  0.00    -0.361 C  
HETATM    9  C   UNL     1     -10.673  11.219  66.253  1.00  0.00    -0.312 C  
HETATM   10  C   UNL     1      -9.738  10.611  63.984  1.00  0.00    -0.373 C  
HETATM   11  C   UNL     1     -10.590  11.412  64.927  1.00  0.00    -0.368 C  
BRANCH   4  12
HETATM   12  O   UNL     1     -12.505  14.393  67.319  1.00  0.00    -0.211 OA 
HETATM   13  C   UNL     1     -11.661  14.901  68.345  1.00  0.00    -0.325 C  
ENDBRANCH   4  12
BRANCH   9  14
HETATM   14  C   UNL     1      -9.848  10.236  67.024  1.00  0.00    -0.238 C  
BRANCH  14  15
HETATM   15  C   UNL     1     -10.511   8.863  67.145  1.00  0.00    -0.344 C  
BRANCH  15  16
HETATM   16  C   UNL     1      -9.615   7.752  66.598  1.00  0.00    -0.286 C  
BRANCH  16  17
HETATM   17  C   UNL     1      -8.726   7.165  67.688  1.00  0.00    -0.121 C  
BRANCH  17  18
HETATM   18  C   UNL     1      -8.910   5.666  67.831  1.00  0.00    -0.105 C  
BRANCH  18  19
HETATM   19  C   UNL     1     -10.243   5.392  68.516  1.00  0.00    -0.237 C  
BRANCH  19  20
HETATM   20  C   UNL     1     -10.235   5.938  69.932  1.00  0.00    -0.280 C  
BRANCH  20  21
HETATM   21  C   UNL     1     -11.623   6.418  70.327  1.00  0.00    -0.451 C  
BRANCH  21  22
HETATM   22  C   UNL     1     -11.567   7.878  70.752  1.00  0.00    -0.258 C  
BRANCH  22  23
HETATM   23  C   UNL     1     -10.188   8.233  71.292  1.00  0.00    -0.253 C  
BRANCH  23  24
HETATM   24  C   UNL     1      -9.674   9.512  70.645  1.00  0.00    -0.311 C  
BRANCH  24  25
HETATM   25  C   UNL     1      -8.160   9.489  70.513  1.00  0.00    -0.166 C  
HETATM   26  O   UNL     1      -7.722  10.658  69.836  1.00  0.00    -0.351 OA 
HETATM   27  H   UNL     1      -6.776  10.645  69.754  1.00  0.00     0.000 HD 
ENDBRANCH  24  25
ENDBRANCH  23  24
ENDBRANCH  22  23
ENDBRANCH  21  22
ENDBRANCH  20  21
ENDBRANCH  19  20
ENDBRANCH  18  19
ENDBRANCH  17  18
ENDBRANCH  16  17
ENDBRANCH  15  16
ENDBRANCH  14  15
ENDBRANCH   9  14
ENDBRANCH   2   3
TORSDOF 14
ENDMDL
MODEL       60
REMARK 921   NORMALIZED FREE ENERGY PREDICTED BY IDOCK:   -4.65 KCAL/MOL
REMARK 922        TOTAL FREE ENERGY PREDICTED BY IDOCK:  -10.28 KCAL/MOL
REMARK 923 INTER-LIGAND FREE ENERGY PREDICTED BY IDOCK:   -8.71 KCAL/MOL
REMARK 924 INTRA-LIGAND FREE ENERGY PREDICTED BY IDOCK:   -1.57 KCAL/MOL
REMARK 927      BINDING AFFINITY PREDICTED BY RF-SCORE:    0.00 PKD
ROOT
HETATM    1  C   UNL     1     -12.059   9.349  71.875  1.00  0.00    -0.357 C  
HETATM    2  O   UNL     1     -12.985  10.223  71.245  1.00  0.00    -0.364 OA 
ENDROOT
BRANCH   2   3
HETATM    3  C   UNL     1     -12.448  11.257  70.480  1.00  0.00    -0.310 C  
HETATM    4  C   UNL     1     -12.591  12.519  70.922  1.00  0.00    -0.241 C  
HETATM    5  C   UNL     1     -12.041  13.637  70.098  1.00  0.00    -0.361 C  
HETATM    6  O   UNL     1     -11.335   9.893  68.845  1.00  0.00    -0.136 OA 
HETATM    7  O   UNL     1     -11.780  14.744  70.556  1.00  0.00    -0.267 OA 
HETATM    8  C   UNL     1     -11.768  10.994  69.166  1.00  0.00    -0.333 C  
HETATM    9  C   UNL     1     -11.854  13.376  68.643  1.00  0.00    -0.397 C  
HETATM   10  C   UNL     1     -11.408  11.726  66.780  1.00  0.00    -0.385 C  
HETATM   11  C   UNL     1     -11.689  12.119  68.202  1.00  0.00    -0.402 C  
BRANCH   4  12
HETATM   12  O   UNL     1     -13.239  12.729  72.139  1.00  0.00    -0.475 OA 
HETATM   13  C   UNL     1     -14.231  13.745  72.211  1.00  0.00    -0.467 C  
ENDBRANCH   4  12
BRANCH   9  14
HETATM   14  C   UNL     1     -11.888  14.589  67.765  1.00  0.00    -0.390 C  
BRANCH  14  15
HETATM   15  C   UNL     1     -10.499  15.176  67.502  1.00  0.00    -0.258 C  
BRANCH  15  16
HETATM   16  C   UNL     1     -10.524  16.704  67.493  1.00  0.00    -0.317 C  
BRANCH  16  17
HETATM   17  C   UNL     1     -10.224  17.258  66.105  1.00  0.00    -0.338 C  
BRANCH  17  18
HETATM   18  C   UNL     1     -10.647  18.708  65.964  1.00  0.00    -0.410 C  
BRANCH  18  19
HETATM   19  C   UNL     1     -10.771  19.326  67.351  1.00  0.00    -0.594 C  
BRANCH  19  20
HETATM   20  C   UNL     1      -9.684  20.361  67.570  1.00  0.00    -0.571 C  
BRANCH  20  21
HETATM   21  C   UNL     1      -8.518  19.756  68.338  1.00  0.00    -0.295 C  
BRANCH  21  22
HETATM   22  C   UNL     1      -7.289  19.682  67.444  1.00  0.00    -0.271 C  
BRANCH  22  23
HETATM   23  C   UNL     1      -6.779  18.251  67.340  1.00  0.00    -0.204 C  
BRANCH  23  24
HETATM   24  C   UNL     1      -7.213  17.439  68.552  1.00  0.00    -0.230 C  
BRANCH  24  25
HETATM   25  C   UNL     1      -6.938  15.958  68.347  1.00  0.00    -0.116 C  
HETATM   26  O   UNL     1      -6.994  15.650  66.962  1.00  0.00    -0.214 OA 
HETATM   27  H   UNL     1      -6.822  14.724  66.833  1.00  0.00     0.000 HD 
ENDBRANCH  24  25
ENDBRANCH  23  24
ENDBRANCH  22  23
ENDBRANCH  21  22
ENDBRANCH  20  21
ENDBRANCH  19  20
ENDBRANCH  18  19
ENDBRANCH  17  18
ENDBRANCH  16  17
ENDBRANCH  15  16
ENDBRANCH  14  15
ENDBRANCH   9  14
ENDBRANCH   2   3
TORSDOF 14
ENDMDL
MODEL       61
REMARK 921   NORMALIZED FREE ENERGY PREDICTED BY IDOCK:   -4.65 KCAL/MOL
REMARK 922        TOTAL FREE ENERGY PREDICTED BY IDOCK:  -10.27 KCAL/MOL
REMARK 923 INTER-LIGAND FREE ENERGY PREDICTED BY IDOCK:   -8.59 KCAL/MOL
REMARK 924 INTRA-LIGAND FREE ENERGY PREDICTED BY IDOCK:   -1.69 KCAL/MOL
REMARK 927      BINDING AFFINITY PREDICTED BY RF-SCORE:    0.00 PKD
ROOT
HETATM    1  C   UNL     1      -8.807  10.018  64.115  1.00  0.00    -0.221 C  
HETATM    2  O   UNL     1     -10.050  10.470  64.636  1.00  0.00    -0.328 OA 
ENDROOT
BRANCH   2   3
HETATM    3  C   UNL     1     -10.073  11.756  65.173  1.00  0.00    -0.259 C  
HETATM    4  C   UNL     1     -10.660  12.735  64.462  1.00  0.00    -0.360 C  
HETATM    5  C   UNL     1     -10.668  14.122  65.016  1.00  0.00    -0.416 C  
HETATM    6  O   UNL     1      -9.138  11.217  67.320  1.00  0.00    -0.148 OA 
HETATM    7  O   UNL     1     -11.468  14.982  64.664  1.00  0.00    -0.404 OA 
HETATM    8  C   UNL     1      -9.417  12.072  66.487  1.00  0.00    -0.228 C  
HETATM    9  C   UNL     1      -9.612  14.458  66.012  1.00  0.00    -0.292 C  
HETATM   10  C   UNL     1      -8.029  13.694  67.830  1.00  0.00    -0.161 C  
HETATM   11  C   UNL     1      -9.040  13.485  66.738  1.00  0.00    -0.223 C  
BRANCH   4  12
HETATM   12  O   UNL     1     -11.247  12.409  63.239  1.00  0.00    -0.441 OA 
HETATM   13  C   UNL     1     -12.628  12.068  63.221  1.00  0.00    -0.385 C  
ENDBRANCH   4  12
BRANCH   9  14
HETATM   14  C   UNL     1      -9.255  15.910  66.102  1.00  0.00    -0.384 C  
BRANCH  14  15
HETATM   15  C   UNL     1     -10.310  16.741  66.836  1.00  0.00    -0.294 C  
BRANCH  15  16
HETATM   16  C   UNL     1      -9.956  16.929  68.311  1.00  0.00    -0.282 C  
BRANCH  16  17
HETATM   17  C   UNL     1     -11.131  16.578  69.216  1.00  0.00    -0.260 C  
BRANCH  17  18
HETATM   18  C   UNL     1     -11.554  15.128  69.068  1.00  0.00    -0.350 C  
BRANCH  18  19
HETATM   19  C   UNL     1     -12.163  14.653  70.381  1.00  0.00    -0.391 C  
BRANCH  19  20
HETATM   20  C   UNL     1     -11.913  13.168  70.574  1.00  0.00    -0.303 C  
BRANCH  20  21
HETATM   21  C   UNL     1     -11.872  12.454  69.232  1.00  0.00    -0.361 C  
BRANCH  21  22
HETATM   22  C   UNL     1     -11.889  10.948  69.443  1.00  0.00    -0.400 C  
BRANCH  22  23
HETATM   23  C   UNL     1     -12.059  10.609  70.918  1.00  0.00    -0.489 C  
BRANCH  23  24
HETATM   24  C   UNL     1     -11.941   9.108  71.139  1.00  0.00    -0.374 C  
BRANCH  24  25
HETATM   25  C   UNL     1     -10.992   8.796  72.285  1.00  0.00    -0.266 C  
HETATM   26  O   UNL     1     -11.669   8.026  73.269  1.00  0.00    -0.569 OA 
HETATM   27  H   UNL     1     -11.076   7.831  73.985  1.00  0.00     0.000 HD 
ENDBRANCH  24  25
ENDBRANCH  23  24
ENDBRANCH  22  23
ENDBRANCH  21  22
ENDBRANCH  20  21
ENDBRANCH  19  20
ENDBRANCH  18  19
ENDBRANCH  17  18
ENDBRANCH  16  17
ENDBRANCH  15  16
ENDBRANCH  14  15
ENDBRANCH   9  14
ENDBRANCH   2   3
TORSDOF 14
ENDMDL
MODEL       62
REMARK 921   NORMALIZED FREE ENERGY PREDICTED BY IDOCK:   -4.64 KCAL/MOL
REMARK 922        TOTAL FREE ENERGY PREDICTED BY IDOCK:  -10.26 KCAL/MOL
REMARK 923 INTER-LIGAND FREE ENERGY PREDICTED BY IDOCK:   -8.90 KCAL/MOL
REMARK 924 INTRA-LIGAND FREE ENERGY PREDICTED BY IDOCK:   -1.37 KCAL/MOL
REMARK 927      BINDING AFFINITY PREDICTED BY RF-SCORE:    0.00 PKD
ROOT
HETATM    1  C   UNL     1     -11.624   7.776  70.981  1.00  0.00    -0.283 C  
HETATM    2  O   UNL     1     -10.915   8.978  71.252  1.00  0.00    -0.261 OA 
ENDROOT
BRANCH   2   3
HETATM    3  C   UNL     1     -11.453  10.152  70.729  1.00  0.00    -0.357 C  
HETATM    4  C   UNL     1     -10.929  10.644  69.592  1.00  0.00    -0.278 C  
HETATM    5  C   UNL     1     -11.482  11.916  69.036  1.00  0.00    -0.297 C  
HETATM    6  O   UNL     1     -13.278  10.378  72.276  1.00  0.00    -0.400 OA 
HETATM    7  O   UNL     1     -11.358  12.245  67.862  1.00  0.00    -0.256 OA 
HETATM    8  C   UNL     1     -12.556  10.894  71.430  1.00  0.00    -0.403 C  
HETATM    9  C   UNL     1     -12.173  12.827  69.991  1.00  0.00    -0.279 C  
HETATM   10  C   UNL     1     -13.510  13.125  72.117  1.00  0.00    -0.653 C  
HETATM   11  C   UNL     1     -12.716  12.335  71.116  1.00  0.00    -0.340 C  
BRANCH   4  12
HETATM   12  O   UNL     1      -9.898   9.938  68.974  1.00  0.00    -0.173 OA 
HETATM   13  C   UNL     1      -8.565  10.408  69.135  1.00  0.00    -0.164 C  
ENDBRANCH   4  12
BRANCH   9  14
HETATM   14  C   UNL     1     -12.184  14.274  69.603  1.00  0.00    -0.371 C  
BRANCH  14  15
HETATM   15  C   UNL     1     -10.789  14.903  69.603  1.00  0.00    -0.269 C  
BRANCH  15  16
HETATM   16  C   UNL     1     -10.672  16.020  68.567  1.00  0.00    -0.287 C  
BRANCH  16  17
HETATM   17  C   UNL     1     -10.833  15.485  67.149  1.00  0.00    -0.316 C  
BRANCH  17  18
HETATM   18  C   UNL     1     -10.055  16.303  66.136  1.00  0.00    -0.362 C  
BRANCH  18  19
HETATM   19  C   UNL     1      -8.568  16.023  66.310  1.00  0.00    -0.363 C  
BRANCH  19  20
HETATM   20  C   UNL     1      -7.773  17.315  66.253  1.00  0.00    -0.353 C  
BRANCH  20  21
HETATM   21  C   UNL     1      -7.234  17.670  67.631  1.00  0.00    -0.188 C  
BRANCH  21  22
HETATM   22  C   UNL     1      -7.618  19.098  67.987  1.00  0.00    -0.311 C  
BRANCH  22  23
HETATM   23  C   UNL     1      -8.292  19.788  66.808  1.00  0.00    -0.354 C  
BRANCH  23  24
HETATM   24  C   UNL     1      -9.512  20.572  67.273  1.00  0.00    -0.559 C  
BRANCH  24  25
HETATM   25  C   UNL     1     -10.485  19.677  68.023  1.00  0.00    -0.407 C  
HETATM   26  O   UNL     1     -10.444  19.984  69.409  1.00  0.00    -0.614 OA 
HETATM   27  H   UNL     1     -11.053  19.425  69.878  1.00  0.00     0.000 HD 
ENDBRANCH  24  25
ENDBRANCH  23  24
ENDBRANCH  22  23
ENDBRANCH  21  22
ENDBRANCH  20  21
ENDBRANCH  19  20
ENDBRANCH  18  19
ENDBRANCH  17  18
ENDBRANCH  16  17
ENDBRANCH  15  16
ENDBRANCH  14  15
ENDBRANCH   9  14
ENDBRANCH   2   3
TORSDOF 14
ENDMDL
MODEL       63
REMARK 921   NORMALIZED FREE ENERGY PREDICTED BY IDOCK:   -4.63 KCAL/MOL
REMARK 922        TOTAL FREE ENERGY PREDICTED BY IDOCK:  -10.23 KCAL/MOL
REMARK 923 INTER-LIGAND FREE ENERGY PREDICTED BY IDOCK:   -8.80 KCAL/MOL
REMARK 924 INTRA-LIGAND FREE ENERGY PREDICTED BY IDOCK:   -1.43 KCAL/MOL
REMARK 927      BINDING AFFINITY PREDICTED BY RF-SCORE:    0.00 PKD
ROOT
HETATM    1  C   UNL     1     -13.539  15.506  72.304  1.00  0.00    -0.519 C  
HETATM    2  O   UNL     1     -13.774  14.860  71.060  1.00  0.00    -0.382 OA 
ENDROOT
BRANCH   2   3
HETATM    3  C   UNL     1     -12.791  13.976  70.619  1.00  0.00    -0.253 C  
HETATM    4  C   UNL     1     -11.921  14.402  69.686  1.00  0.00    -0.336 C  
HETATM    5  C   UNL     1     -10.879  13.454  69.188  1.00  0.00    -0.114 C  
HETATM    6  O   UNL     1     -13.260  12.192  72.159  1.00  0.00    -0.499 OA 
HETATM    7  O   UNL     1      -9.839  13.820  68.651  1.00  0.00    -0.220 OA 
HETATM    8  C   UNL     1     -12.722  12.562  71.121  1.00  0.00    -0.245 C  
HETATM    9  C   UNL     1     -11.167  11.998  69.327  1.00  0.00    -0.291 C  
HETATM   10  C   UNL     1     -12.332  10.131  70.572  1.00  0.00    -0.330 C  
HETATM   11  C   UNL     1     -12.019  11.570  70.271  1.00  0.00    -0.455 C  
BRANCH   4  12
HETATM   12  O   UNL     1     -12.022  15.716  69.232  1.00  0.00    -0.365 OA 
HETATM   13  C   UNL     1     -11.098  16.677  69.729  1.00  0.00    -0.132 C  
ENDBRANCH   4  12
BRANCH   9  14
HETATM   14  C   UNL     1     -10.466  11.110  68.346  1.00  0.00    -0.211 C  
BRANCH  14  15
HETATM   15  C   UNL     1     -11.283  10.858  67.076  1.00  0.00    -0.211 C  
BRANCH  15  16
HETATM   16  C   UNL     1     -10.880  11.807  65.947  1.00  0.00    -0.339 C  
BRANCH  16  17
HETATM   17  C   UNL     1     -12.101  12.353  65.217  1.00  0.00    -0.451 C  
BRANCH  17  18
HETATM   18  C   UNL     1     -11.845  13.725  64.622  1.00  0.00    -0.427 C  
BRANCH  18  19
HETATM   19  C   UNL     1     -11.721  14.740  65.751  1.00  0.00    -0.252 C  
BRANCH  19  20
HETATM   20  C   UNL     1     -10.430  15.528  65.617  1.00  0.00    -0.393 C  
BRANCH  20  21
HETATM   21  C   UNL     1     -10.720  16.957  65.185  1.00  0.00    -0.118 C  
BRANCH  21  22
HETATM   22  C   UNL     1     -10.482  17.910  66.347  1.00  0.00    -0.318 C  
BRANCH  22  23
HETATM   23  C   UNL     1     -10.488  19.357  65.872  1.00  0.00    -0.561 C  
BRANCH  23  24
HETATM   24  C   UNL     1      -9.857  20.266  66.917  1.00  0.00    -0.597 C  
BRANCH  24  25
HETATM   25  C   UNL     1      -8.366  19.998  67.048  1.00  0.00    -0.323 C  
HETATM   26  O   UNL     1      -7.747  20.115  65.775  1.00  0.00    -0.461 OA 
HETATM   27  H   UNL     1      -6.815  19.948  65.856  1.00  0.00     0.000 HD 
ENDBRANCH  24  25
ENDBRANCH  23  24
ENDBRANCH  22  23
ENDBRANCH  21  22
ENDBRANCH  20  21
ENDBRANCH  19  20
ENDBRANCH  18  19
ENDBRANCH  17  18
ENDBRANCH  16  17
ENDBRANCH  15  16
ENDBRANCH  14  15
ENDBRANCH   9  14
ENDBRANCH   2   3
TORSDOF 14
ENDMDL
MODEL       64
REMARK 921   NORMALIZED FREE ENERGY PREDICTED BY IDOCK:   -4.63 KCAL/MOL
REMARK 922        TOTAL FREE ENERGY PREDICTED BY IDOCK:  -10.23 KCAL/MOL
REMARK 923 INTER-LIGAND FREE ENERGY PREDICTED BY IDOCK:   -8.23 KCAL/MOL
REMARK 924 INTRA-LIGAND FREE ENERGY PREDICTED BY IDOCK:   -2.00 KCAL/MOL
REMARK 927      BINDING AFFINITY PREDICTED BY RF-SCORE:    0.00 PKD
ROOT
HETATM    1  C   UNL     1      -8.747  10.532  64.870  1.00  0.00    -0.181 C  
HETATM    2  O   UNL     1     -10.167  10.487  64.810  1.00  0.00    -0.341 OA 
ENDROOT
BRANCH   2   3
HETATM    3  C   UNL     1     -10.857  11.228  65.768  1.00  0.00    -0.194 C  
HETATM    4  C   UNL     1     -11.280  12.461  65.439  1.00  0.00    -0.318 C  
HETATM    5  C   UNL     1     -11.999  13.273  66.466  1.00  0.00    -0.391 C  
HETATM    6  O   UNL     1     -11.011   9.510  67.442  1.00  0.00    -0.232 OA 
HETATM    7  O   UNL     1     -12.737  14.212  66.185  1.00  0.00    -0.442 OA 
HETATM    8  C   UNL     1     -11.086  10.700  67.156  1.00  0.00    -0.196 C  
HETATM    9  C   UNL     1     -11.752  12.929  67.895  1.00  0.00    -0.405 C  
HETATM   10  C   UNL     1     -11.148  11.191  69.629  1.00  0.00    -0.297 C  
HETATM   11  C   UNL     1     -11.350  11.692  68.227  1.00  0.00    -0.348 C  
BRANCH   4  12
HETATM   12  O   UNL     1     -11.039  12.925  64.146  1.00  0.00    -0.355 OA 
HETATM   13  C   UNL     1     -12.123  12.959  63.226  1.00  0.00    -0.440 C  
ENDBRANCH   4  12
BRANCH   9  14
HETATM   14  C   UNL     1     -11.964  14.046  68.869  1.00  0.00    -0.387 C  
BRANCH  14  15
HETATM   15  C   UNL     1     -10.654  14.651  69.380  1.00  0.00    -0.209 C  
BRANCH  15  16
HETATM   16  C   UNL     1     -10.341  15.982  68.698  1.00  0.00    -0.241 C  
BRANCH  16  17
HETATM   17  C   UNL     1      -9.084  15.887  67.841  1.00  0.00    -0.190 C  
BRANCH  17  18
HETATM   18  C   UNL     1      -9.240  16.603  66.513  1.00  0.00    -0.297 C  
BRANCH  18  19
HETATM   19  C   UNL     1     -10.638  17.205  66.436  1.00  0.00    -0.172 C  
BRANCH  19  20
HETATM   20  C   UNL     1     -10.615  18.501  65.647  1.00  0.00    -0.143 C  
BRANCH  20  21
HETATM   21  C   UNL     1      -9.997  19.618  66.474  1.00  0.00    -0.545 C  
BRANCH  21  22
HETATM   22  C   UNL     1     -10.570  19.599  67.883  1.00  0.00    -0.492 C  
BRANCH  22  23
HETATM   23  C   UNL     1      -9.456  19.570  68.921  1.00  0.00    -0.426 C  
BRANCH  23  24
HETATM   24  C   UNL     1      -8.093  19.649  68.246  1.00  0.00    -0.357 C  
BRANCH  24  25
HETATM   25  C   UNL     1      -7.041  18.898  69.045  1.00  0.00    -0.306 C  
HETATM   26  O   UNL     1      -6.494  19.754  70.038  1.00  0.00    -0.328 OA 
HETATM   27  H   UNL     1      -5.837  19.284  70.538  1.00  0.00     0.000 HD 
ENDBRANCH  24  25
ENDBRANCH  23  24
ENDBRANCH  22  23
ENDBRANCH  21  22
ENDBRANCH  20  21
ENDBRANCH  19  20
ENDBRANCH  18  19
ENDBRANCH  17  18
ENDBRANCH  16  17
ENDBRANCH  15  16
ENDBRANCH  14  15
ENDBRANCH   9  14
ENDBRANCH   2   3
TORSDOF 14
ENDMDL
MODEL       65
REMARK 921   NORMALIZED FREE ENERGY PREDICTED BY IDOCK:   -4.61 KCAL/MOL
REMARK 922        TOTAL FREE ENERGY PREDICTED BY IDOCK:  -10.20 KCAL/MOL
REMARK 923 INTER-LIGAND FREE ENERGY PREDICTED BY IDOCK:   -8.81 KCAL/MOL
REMARK 924 INTRA-LIGAND FREE ENERGY PREDICTED BY IDOCK:   -1.39 KCAL/MOL
REMARK 927      BINDING AFFINITY PREDICTED BY RF-SCORE:    0.00 PKD
ROOT
HETATM    1  C   UNL     1      -8.338   6.013  70.986  1.00  0.00    -0.124 C  
HETATM    2  O   UNL     1      -9.535   6.300  70.276  1.00  0.00    -0.159 OA 
ENDROOT
BRANCH   2   3
HETATM    3  C   UNL     1     -10.240   7.435  70.671  1.00  0.00    -0.199 C  
HETATM    4  C   UNL     1     -11.338   7.272  71.432  1.00  0.00    -0.255 C  
HETATM    5  C   UNL     1     -12.116   8.481  71.841  1.00  0.00    -0.349 C  
HETATM    6  O   UNL     1      -8.710   9.073  69.806  1.00  0.00    -0.133 OA 
HETATM    7  O   UNL     1     -12.875   8.497  72.804  1.00  0.00    -0.273 OA 
HETATM    8  C   UNL     1      -9.831   8.811  70.228  1.00  0.00    -0.175 C  
HETATM    9  C   UNL     1     -11.974   9.696  70.990  1.00  0.00    -0.427 C  
HETATM   10  C   UNL     1     -10.563  11.084  69.416  1.00  0.00    -0.212 C  
HETATM   11  C   UNL     1     -10.869   9.871  70.248  1.00  0.00    -0.367 C  
BRANCH   4  12
HETATM   12  O   UNL     1     -11.697   5.981  71.815  1.00  0.00    -0.277 OA 
HETATM   13  C   UNL     1     -11.295   5.519  73.098  1.00  0.00    -0.225 C  
ENDBRANCH   4  12
BRANCH   9  14
HETATM   14  C   UNL     1     -13.133  10.643  71.027  1.00  0.00    -0.376 C  
BRANCH  14  15
HETATM   15  C   UNL     1     -12.898  11.841  71.950  1.00  0.00    -0.338 C  
BRANCH  15  16
HETATM   16  C   UNL     1     -13.085  13.168  71.214  1.00  0.00    -0.275 C  
BRANCH  16  17
HETATM   17  C   UNL     1     -13.376  14.307  72.183  1.00  0.00    -0.506 C  
BRANCH  17  18
HETATM   18  C   UNL     1     -12.605  15.566  71.834  1.00  0.00    -0.478 C  
BRANCH  18  19
HETATM   19  C   UNL     1     -11.335  15.179  71.086  1.00  0.00    -0.363 C  
BRANCH  19  20
HETATM   20  C   UNL     1     -11.025  16.198  70.005  1.00  0.00    -0.364 C  
BRANCH  20  21
HETATM   21  C   UNL     1     -11.730  15.830  68.708  1.00  0.00    -0.387 C  
BRANCH  21  22
HETATM   22  C   UNL     1     -11.374  14.406  68.308  1.00  0.00    -0.311 C  
BRANCH  22  23
HETATM   23  C   UNL     1     -12.054  14.023  67.000  1.00  0.00    -0.455 C  
BRANCH  23  24
HETATM   24  C   UNL     1     -11.208  14.457  65.811  1.00  0.00    -0.326 C  
BRANCH  24  25
HETATM   25  C   UNL     1     -11.705  13.822  64.523  1.00  0.00    -0.407 C  
HETATM   26  O   UNL     1     -12.482  14.763  63.795  1.00  0.00    -1.045 OA 
HETATM   27  H   UNL     1     -12.793  14.366  62.990  1.00  0.00     0.000 HD 
ENDBRANCH  24  25
ENDBRANCH  23  24
ENDBRANCH  22  23
ENDBRANCH  21  22
ENDBRANCH  20  21
ENDBRANCH  19  20
ENDBRANCH  18  19
ENDBRANCH  17  18
ENDBRANCH  16  17
ENDBRANCH  15  16
ENDBRANCH  14  15
ENDBRANCH   9  14
ENDBRANCH   2   3
TORSDOF 14
ENDMDL
MODEL       66
REMARK 921   NORMALIZED FREE ENERGY PREDICTED BY IDOCK:   -4.61 KCAL/MOL
REMARK 922        TOTAL FREE ENERGY PREDICTED BY IDOCK:  -10.19 KCAL/MOL
REMARK 923 INTER-LIGAND FREE ENERGY PREDICTED BY IDOCK:   -8.83 KCAL/MOL
REMARK 924 INTRA-LIGAND FREE ENERGY PREDICTED BY IDOCK:   -1.37 KCAL/MOL
REMARK 927      BINDING AFFINITY PREDICTED BY RF-SCORE:    0.00 PKD
ROOT
HETATM    1  C   UNL     1      -9.797  19.058  68.881  1.00  0.00    -0.404 C  
HETATM    2  O   UNL     1      -8.973  17.937  68.590  1.00  0.00    -0.291 OA 
ENDROOT
BRANCH   2   3
HETATM    3  C   UNL     1      -9.582  16.864  67.942  1.00  0.00    -0.244 C  
HETATM    4  C   UNL     1      -9.681  16.901  66.601  1.00  0.00    -0.271 C  
HETATM    5  C   UNL     1     -10.354  15.768  65.897  1.00  0.00    -0.354 C  
HETATM    6  O   UNL     1      -9.860  15.451  69.865  1.00  0.00    -0.270 OA 
HETATM    7  O   UNL     1     -10.174  15.511  64.712  1.00  0.00    -0.343 OA 
HETATM    8  C   UNL     1     -10.166  15.710  68.706  1.00  0.00    -0.215 C  
HETATM    9  C   UNL     1     -11.319  14.956  66.692  1.00  0.00    -0.326 C  
HETATM   10  C   UNL     1     -12.056  14.057  68.937  1.00  0.00    -0.351 C  
HETATM   11  C   UNL     1     -11.208  14.900  68.028  1.00  0.00    -0.318 C  
BRANCH   4  12
HETATM   12  O   UNL     1      -9.140  17.993  65.923  1.00  0.00    -0.513 OA 
HETATM   13  C   UNL     1      -7.725  18.085  65.809  1.00  0.00     0.020 C  
ENDBRANCH   4  12
BRANCH   9  14
HETATM   14  C   UNL     1     -12.381  14.262  65.896  1.00  0.00    -0.420 C  
BRANCH  14  15
HETATM   15  C   UNL     1     -12.167  12.750  65.803  1.00  0.00    -0.469 C  
BRANCH  15  16
HETATM   16  C   UNL     1     -11.396  12.363  64.541  1.00  0.00    -0.381 C  
BRANCH  16  17
HETATM   17  C   UNL     1     -10.221  11.449  64.863  1.00  0.00    -0.330 C  
BRANCH  17  18
HETATM   18  C   UNL     1      -9.703  11.658  66.274  1.00  0.00    -0.241 C  
BRANCH  18  19
HETATM   19  C   UNL     1      -9.442  10.300  66.913  1.00  0.00    -0.200 C  
BRANCH  19  20
HETATM   20  C   UNL     1     -10.695   9.787  67.599  1.00  0.00    -0.334 C  
BRANCH  20  21
HETATM   21  C   UNL     1     -11.238  10.829  68.565  1.00  0.00    -0.340 C  
BRANCH  21  22
HETATM   22  C   UNL     1     -11.503  10.193  69.922  1.00  0.00    -0.317 C  
BRANCH  22  23
HETATM   23  C   UNL     1     -12.891  10.560  70.431  1.00  0.00    -0.274 C  
BRANCH  23  24
HETATM   24  C   UNL     1     -12.918  10.566  71.953  1.00  0.00    -0.553 C  
BRANCH  24  25
HETATM   25  C   UNL     1     -13.586   9.313  72.495  1.00  0.00    -0.413 C  
HETATM   26  O   UNL     1     -12.596   8.415  72.977  1.00  0.00    -0.676 OA 
HETATM   27  H   UNL     1     -13.013   7.632  73.317  1.00  0.00     0.000 HD 
ENDBRANCH  24  25
ENDBRANCH  23  24
ENDBRANCH  22  23
ENDBRANCH  21  22
ENDBRANCH  20  21
ENDBRANCH  19  20
ENDBRANCH  18  19
ENDBRANCH  17  18
ENDBRANCH  16  17
ENDBRANCH  15  16
ENDBRANCH  14  15
ENDBRANCH   9  14
ENDBRANCH   2   3
TORSDOF 14
ENDMDL
MODEL       67
REMARK 921   NORMALIZED FREE ENERGY PREDICTED BY IDOCK:   -4.60 KCAL/MOL
REMARK 922        TOTAL FREE ENERGY PREDICTED BY IDOCK:  -10.19 KCAL/MOL
REMARK 923 INTER-LIGAND FREE ENERGY PREDICTED BY IDOCK:   -8.66 KCAL/MOL
REMARK 924 INTRA-LIGAND FREE ENERGY PREDICTED BY IDOCK:   -1.52 KCAL/MOL
REMARK 927      BINDING AFFINITY PREDICTED BY RF-SCORE:    0.00 PKD
ROOT
HETATM    1  C   UNL     1     -13.922  13.561  72.303  1.00  0.00    -0.539 C  
HETATM    2  O   UNL     1     -12.564  13.382  71.923  1.00  0.00    -0.206 OA 
ENDROOT
BRANCH   2   3
HETATM    3  C   UNL     1     -12.280  13.460  70.560  1.00  0.00    -0.352 C  
HETATM    4  C   UNL     1     -12.097  12.314  69.880  1.00  0.00    -0.249 C  
HETATM    5  C   UNL     1     -11.768  12.387  68.424  1.00  0.00    -0.336 C  
HETATM    6  O   UNL     1     -12.563  15.833  70.316  1.00  0.00    -0.384 OA 
HETATM    7  O   UNL     1     -11.949  11.456  67.647  1.00  0.00    -0.630 OA 
HETATM    8  C   UNL     1     -12.126  14.781  69.862  1.00  0.00    -0.332 C  
HETATM    9  C   UNL     1     -11.149  13.651  67.933  1.00  0.00    -0.283 C  
HETATM   10  C   UNL     1     -10.856  16.151  68.169  1.00  0.00    -0.329 C  
HETATM   11  C   UNL     1     -11.348  14.799  68.599  1.00  0.00    -0.305 C  
BRANCH   4  12
HETATM   12  O   UNL     1     -12.234  11.105  70.561  1.00  0.00    -0.328 OA 
HETATM   13  C   UNL     1     -11.128  10.211  70.579  1.00  0.00    -0.327 C  
ENDBRANCH   4  12
BRANCH   9  14
HETATM   14  C   UNL     1     -10.309  13.517  66.700  1.00  0.00    -0.271 C  
BRANCH  14  15
HETATM   15  C   UNL     1      -8.871  13.088  67.000  1.00  0.00    -0.213 C  
BRANCH  15  16
HETATM   16  C   UNL     1      -8.621  11.632  66.606  1.00  0.00    -0.179 C  
BRANCH  16  17
HETATM   17  C   UNL     1      -9.427  11.242  65.373  1.00  0.00    -0.251 C  
BRANCH  17  18
HETATM   18  C   UNL     1      -9.735   9.757  65.337  1.00  0.00    -0.383 C  
BRANCH  18  19
HETATM   19  C   UNL     1      -9.440   9.156  66.705  1.00  0.00    -0.230 C  
BRANCH  19  20
HETATM   20  C   UNL     1     -10.417   8.036  67.014  1.00  0.00    -0.410 C  
BRANCH  20  21
HETATM   21  C   UNL     1      -9.746   6.681  66.842  1.00  0.00    -0.209 C  
BRANCH  21  22
HETATM   22  C   UNL     1     -10.176   5.742  67.959  1.00  0.00    -0.231 C  
BRANCH  22  23
HETATM   23  C   UNL     1     -11.141   6.437  68.910  1.00  0.00    -0.420 C  
BRANCH  23  24
HETATM   24  C   UNL     1     -10.936   5.944  70.336  1.00  0.00    -0.376 C  
BRANCH  24  25
HETATM   25  C   UNL     1     -11.887   6.637  71.298  1.00  0.00    -0.350 C  
HETATM   26  O   UNL     1     -12.941   7.250  70.569  1.00  0.00    -0.540 OA 
HETATM   27  H   UNL     1     -13.535   7.683  71.171  1.00  0.00     0.000 HD 
ENDBRANCH  24  25
ENDBRANCH  23  24
ENDBRANCH  22  23
ENDBRANCH  21  22
ENDBRANCH  20  21
ENDBRANCH  19  20
ENDBRANCH  18  19
ENDBRANCH  17  18
ENDBRANCH  16  17
ENDBRANCH  15  16
ENDBRANCH  14  15
ENDBRANCH   9  14
ENDBRANCH   2   3
TORSDOF 14
ENDMDL
MODEL       68
REMARK 921   NORMALIZED FREE ENERGY PREDICTED BY IDOCK:   -4.59 KCAL/MOL
REMARK 922        TOTAL FREE ENERGY PREDICTED BY IDOCK:  -10.18 KCAL/MOL
REMARK 923 INTER-LIGAND FREE ENERGY PREDICTED BY IDOCK:   -8.48 KCAL/MOL
REMARK 924 INTRA-LIGAND FREE ENERGY PREDICTED BY IDOCK:   -1.70 KCAL/MOL
REMARK 927      BINDING AFFINITY PREDICTED BY RF-SCORE:    0.00 PKD
ROOT
HETATM    1  C   UNL     1     -13.544  13.115  72.564  1.00  0.00    -0.491 C  
HETATM    2  O   UNL     1     -13.661  13.648  71.251  1.00  0.00    -0.206 OA 
ENDROOT
BRANCH   2   3
HETATM    3  C   UNL     1     -12.546  13.522  70.424  1.00  0.00    -0.197 C  
HETATM    4  C   UNL     1     -11.858  14.633  70.106  1.00  0.00    -0.307 C  
HETATM    5  C   UNL     1     -10.676  14.514  69.200  1.00  0.00    -0.252 C  
HETATM    6  O   UNL     1     -12.506  11.122  70.313  1.00  0.00    -0.303 OA 
HETATM    7  O   UNL     1      -9.782  15.351  69.147  1.00  0.00    -0.220 OA 
HETATM    8  C   UNL     1     -12.137  12.196  69.849  1.00  0.00    -0.253 C  
HETATM    9  C   UNL     1     -10.634  13.329  68.296  1.00  0.00    -0.262 C  
HETATM   10  C   UNL     1     -11.276  10.925  67.849  1.00  0.00    -0.387 C  
HETATM   11  C   UNL     1     -11.302  12.212  68.623  1.00  0.00    -0.330 C  
BRANCH   4  12
HETATM   12  O   UNL     1     -12.273  15.850  70.646  1.00  0.00    -0.393 OA 
HETATM   13  C   UNL     1     -11.745  16.246  71.906  1.00  0.00    -0.438 C  
ENDBRANCH   4  12
BRANCH   9  14
HETATM   14  C   UNL     1      -9.833  13.507  67.044  1.00  0.00    -0.251 C  
BRANCH  14  15
HETATM   15  C   UNL     1     -10.652  14.081  65.886  1.00  0.00    -0.302 C  
BRANCH  15  16
HETATM   16  C   UNL     1      -9.931  15.244  65.204  1.00  0.00    -0.260 C  
BRANCH  16  17
HETATM   17  C   UNL     1      -9.317  16.194  66.226  1.00  0.00    -0.351 C  
BRANCH  17  18
HETATM   18  C   UNL     1      -7.801  16.140  66.219  1.00  0.00    -0.053 C  
BRANCH  18  19
HETATM   19  C   UNL     1      -7.256  17.460  66.750  1.00  0.00    -0.254 C  
BRANCH  19  20
HETATM   20  C   UNL     1      -6.731  18.315  65.611  1.00  0.00    -0.291 C  
BRANCH  20  21
HETATM   21  C   UNL     1      -7.274  19.732  65.714  1.00  0.00    -0.336 C  
BRANCH  21  22
HETATM   22  C   UNL     1      -8.329  19.806  66.807  1.00  0.00    -0.354 C  
BRANCH  22  23
HETATM   23  C   UNL     1      -9.721  19.962  66.207  1.00  0.00    -0.551 C  
BRANCH  23  24
HETATM   24  C   UNL     1     -10.783  19.489  67.190  1.00  0.00    -0.599 C  
BRANCH  24  25
HETATM   25  C   UNL     1     -10.254  19.495  68.615  1.00  0.00    -0.384 C  
HETATM   26  O   UNL     1     -10.365  18.193  69.170  1.00  0.00    -0.451 OA 
HETATM   27  H   UNL     1     -10.034  18.196  70.061  1.00  0.00     0.000 HD 
ENDBRANCH  24  25
ENDBRANCH  23  24
ENDBRANCH  22  23
ENDBRANCH  21  22
ENDBRANCH  20  21
ENDBRANCH  19  20
ENDBRANCH  18  19
ENDBRANCH  17  18
ENDBRANCH  16  17
ENDBRANCH  15  16
ENDBRANCH  14  15
ENDBRANCH   9  14
ENDBRANCH   2   3
TORSDOF 14
ENDMDL
MODEL       69
REMARK 921   NORMALIZED FREE ENERGY PREDICTED BY IDOCK:   -4.59 KCAL/MOL
REMARK 922        TOTAL FREE ENERGY PREDICTED BY IDOCK:  -10.17 KCAL/MOL
REMARK 923 INTER-LIGAND FREE ENERGY PREDICTED BY IDOCK:   -8.89 KCAL/MOL
REMARK 924 INTRA-LIGAND FREE ENERGY PREDICTED BY IDOCK:   -1.28 KCAL/MOL
REMARK 927      BINDING AFFINITY PREDICTED BY RF-SCORE:    0.00 PKD
ROOT
HETATM    1  C   UNL     1     -13.109  13.091  64.825  1.00  0.00     0.056 C  
HETATM    2  O   UNL     1     -11.976  13.620  64.150  1.00  0.00    -0.422 OA 
ENDROOT
BRANCH   2   3
HETATM    3  C   UNL     1     -11.046  14.305  64.930  1.00  0.00    -0.390 C  
HETATM    4  C   UNL     1     -10.258  13.594  65.756  1.00  0.00    -0.308 C  
HETATM    5  C   UNL     1      -9.275  14.320  66.616  1.00  0.00    -0.255 C  
HETATM    6  O   UNL     1     -11.395  16.488  63.990  1.00  0.00    -1.064 OA 
HETATM    7  O   UNL     1      -8.284  13.786  67.102  1.00  0.00    -0.173 OA 
HETATM    8  C   UNL     1     -10.947  15.804  64.903  1.00  0.00    -0.427 C  
HETATM    9  C   UNL     1      -9.566  15.751  66.914  1.00  0.00    -0.243 C  
HETATM   10  C   UNL     1     -10.635  17.934  66.217  1.00  0.00    -0.241 C  
HETATM   11  C   UNL     1     -10.334  16.468  66.080  1.00  0.00    -0.358 C  
BRANCH   4  12
HETATM   12  O   UNL     1     -10.385  12.205  65.766  1.00  0.00    -0.243 OA 
HETATM   13  C   UNL     1      -9.564  11.444  64.889  1.00  0.00    -0.215 C  
ENDBRANCH   4  12
BRANCH   9  14
HETATM   14  C   UNL     1      -8.965  16.276  68.182  1.00  0.00    -0.187 C  
BRANCH  14  15
HETATM   15  C   UNL     1      -9.606  15.682  69.438  1.00  0.00    -0.287 C  
BRANCH  15  16
HETATM   16  C   UNL     1     -10.977  16.296  69.718  1.00  0.00    -0.354 C  
BRANCH  16  17
HETATM   17  C   UNL     1     -12.091  15.269  69.555  1.00  0.00    -0.320 C  
BRANCH  17  18
HETATM   18  C   UNL     1     -12.404  14.552  70.855  1.00  0.00    -0.415 C  
BRANCH  18  19
HETATM   19  C   UNL     1     -12.525  13.058  70.581  1.00  0.00    -0.347 C  
BRANCH  19  20
HETATM   20  C   UNL     1     -11.691  12.670  69.374  1.00  0.00    -0.387 C  
BRANCH  20  21
HETATM   21  C   UNL     1     -11.721  11.164  69.167  1.00  0.00    -0.408 C  
BRANCH  21  22
HETATM   22  C   UNL     1     -10.788  10.484  70.158  1.00  0.00    -0.291 C  
BRANCH  22  23
HETATM   23  C   UNL     1     -11.086   8.993  70.247  1.00  0.00    -0.263 C  
BRANCH  23  24
HETATM   24  C   UNL     1     -11.745   8.658  71.578  1.00  0.00    -0.369 C  
BRANCH  24  25
HETATM   25  C   UNL     1     -13.098   9.339  71.707  1.00  0.00    -0.400 C  
HETATM   26  O   UNL     1     -14.124   8.444  71.302  1.00  0.00    -0.581 OA 
HETATM   27  H   UNL     1     -14.969   8.869  71.382  1.00  0.00     0.000 HD 
ENDBRANCH  24  25
ENDBRANCH  23  24
ENDBRANCH  22  23
ENDBRANCH  21  22
ENDBRANCH  20  21
ENDBRANCH  19  20
ENDBRANCH  18  19
ENDBRANCH  17  18
ENDBRANCH  16  17
ENDBRANCH  15  16
ENDBRANCH  14  15
ENDBRANCH   9  14
ENDBRANCH   2   3
TORSDOF 14
ENDMDL
MODEL       70
REMARK 921   NORMALIZED FREE ENERGY PREDICTED BY IDOCK:   -4.59 KCAL/MOL
REMARK 922        TOTAL FREE ENERGY PREDICTED BY IDOCK:  -10.17 KCAL/MOL
REMARK 923 INTER-LIGAND FREE ENERGY PREDICTED BY IDOCK:   -9.12 KCAL/MOL
REMARK 924 INTRA-LIGAND FREE ENERGY PREDICTED BY IDOCK:   -1.05 KCAL/MOL
REMARK 927      BINDING AFFINITY PREDICTED BY RF-SCORE:    0.00 PKD
ROOT
HETATM    1  C   UNL     1     -10.944   5.955  72.821  1.00  0.00    -0.265 C  
HETATM    2  O   UNL     1     -11.094   7.274  73.328  1.00  0.00    -0.331 OA 
ENDROOT
BRANCH   2   3
HETATM    3  C   UNL     1     -11.103   8.307  72.392  1.00  0.00    -0.377 C  
HETATM    4  C   UNL     1     -12.291   8.768  71.961  1.00  0.00    -0.377 C  
HETATM    5  C   UNL     1     -12.312   9.858  70.940  1.00  0.00    -0.310 C  
HETATM    6  O   UNL     1      -8.738   8.728  72.367  1.00  0.00    -0.392 OA 
HETATM    7  O   UNL     1     -13.277  10.593  70.761  1.00  0.00    -0.293 OA 
HETATM    8  C   UNL     1      -9.829   8.868  71.826  1.00  0.00    -0.315 C  
HETATM    9  C   UNL     1     -11.102  10.004  70.081  1.00  0.00    -0.371 C  
HETATM   10  C   UNL     1      -8.606   9.723  69.794  1.00  0.00    -0.215 C  
HETATM   11  C   UNL     1      -9.912   9.563  70.518  1.00  0.00    -0.335 C  
BRANCH   4  12
HETATM   12  O   UNL     1     -13.454   8.216  72.497  1.00  0.00    -0.107 OA 
HETATM   13  C   UNL     1     -14.288   7.439  71.646  1.00  0.00    -0.461 C  
ENDBRANCH   4  12
BRANCH   9  14
HETATM   14  C   UNL     1     -11.337  10.637  68.745  1.00  0.00    -0.339 C  
BRANCH  14  15
HETATM   15  C   UNL     1     -11.256  12.165  68.784  1.00  0.00    -0.314 C  
BRANCH  15  16
HETATM   16  C   UNL     1     -11.809  12.794  67.506  1.00  0.00    -0.402 C  
BRANCH  16  17
HETATM   17  C   UNL     1     -11.630  11.870  66.307  1.00  0.00    -0.317 C  
BRANCH  17  18
HETATM   18  C   UNL     1     -11.794  12.603  64.989  1.00  0.00    -0.439 C  
BRANCH  18  19
HETATM   19  C   UNL     1     -12.652  13.842  65.214  1.00  0.00    -0.510 C  
BRANCH  19  20
HETATM   20  C   UNL     1     -11.985  15.066  64.613  1.00  0.00    -0.363 C  
BRANCH  20  21
HETATM   21  C   UNL     1     -10.600  15.266  65.209  1.00  0.00    -0.438 C  
BRANCH  21  22
HETATM   22  C   UNL     1     -10.422  16.715  65.636  1.00  0.00    -0.313 C  
BRANCH  22  23
HETATM   23  C   UNL     1      -9.501  16.815  66.845  1.00  0.00    -0.253 C  
BRANCH  23  24
HETATM   24  C   UNL     1      -9.130  18.266  67.117  1.00  0.00    -0.264 C  
BRANCH  24  25
HETATM   25  C   UNL     1     -10.311  19.190  66.865  1.00  0.00    -0.416 C  
HETATM   26  O   UNL     1      -9.896  20.285  66.060  1.00  0.00    -0.601 OA 
HETATM   27  H   UNL     1     -10.634  20.862  65.902  1.00  0.00     0.000 HD 
ENDBRANCH  24  25
ENDBRANCH  23  24
ENDBRANCH  22  23
ENDBRANCH  21  22
ENDBRANCH  20  21
ENDBRANCH  19  20
ENDBRANCH  18  19
ENDBRANCH  17  18
ENDBRANCH  16  17
ENDBRANCH  15  16
ENDBRANCH  14  15
ENDBRANCH   9  14
ENDBRANCH   2   3
TORSDOF 14
ENDMDL
MODEL       71
REMARK 921   NORMALIZED FREE ENERGY PREDICTED BY IDOCK:   -4.59 KCAL/MOL
REMARK 922        TOTAL FREE ENERGY PREDICTED BY IDOCK:  -10.16 KCAL/MOL
REMARK 923 INTER-LIGAND FREE ENERGY PREDICTED BY IDOCK:   -8.77 KCAL/MOL
REMARK 924 INTRA-LIGAND FREE ENERGY PREDICTED BY IDOCK:   -1.39 KCAL/MOL
REMARK 927      BINDING AFFINITY PREDICTED BY RF-SCORE:    0.00 PKD
ROOT
HETATM    1  C   UNL     1      -5.396  20.634  67.053  1.00  0.00    -0.176 C  
HETATM    2  O   UNL     1      -6.043  20.372  68.291  1.00  0.00    -0.255 OA 
ENDROOT
BRANCH   2   3
HETATM    3  C   UNL     1      -7.191  19.583  68.242  1.00  0.00    -0.303 C  
HETATM    4  C   UNL     1      -7.108  18.309  68.666  1.00  0.00    -0.275 C  
HETATM    5  C   UNL     1      -8.326  17.447  68.595  1.00  0.00    -0.264 C  
HETATM    6  O   UNL     1      -8.726  21.303  67.565  1.00  0.00     0.034 OA 
HETATM    7  O   UNL     1      -8.475  16.437  69.274  1.00  0.00    -0.210 OA 
HETATM    8  C   UNL     1      -8.484  20.107  67.684  1.00  0.00    -0.300 C  
HETATM    9  C   UNL     1      -9.373  17.836  67.608  1.00  0.00    -0.250 C  
HETATM   10  C   UNL     1     -10.528  19.651  66.279  1.00  0.00    -0.621 C  
HETATM   11  C   UNL     1      -9.471  19.111  67.200  1.00  0.00    -0.367 C  
BRANCH   4  12
HETATM   12  O   UNL     1      -5.890  17.851  69.166  1.00  0.00    -0.195 OA 
HETATM   13  C   UNL     1      -5.551  18.162  70.512  1.00  0.00    -0.191 C  
ENDBRANCH   4  12
BRANCH   9  14
HETATM   14  C   UNL     1     -10.246  16.718  67.126  1.00  0.00    -0.295 C  
BRANCH  14  15
HETATM   15  C   UNL     1      -9.592  15.881  66.024  1.00  0.00    -0.385 C  
BRANCH  15  16
HETATM   16  C   UNL     1     -10.618  15.389  65.004  1.00  0.00    -0.445 C  
BRANCH  16  17
HETATM   17  C   UNL     1     -10.505  13.885  64.781  1.00  0.00    -0.451 C  
BRANCH  17  18
HETATM   18  C   UNL     1     -11.853  13.193  64.858  1.00  0.00    -0.399 C  
BRANCH  18  19
HETATM   19  C   UNL     1     -12.278  13.094  66.317  1.00  0.00    -0.423 C  
BRANCH  19  20
HETATM   20  C   UNL     1     -11.190  12.433  67.144  1.00  0.00    -0.353 C  
BRANCH  20  21
HETATM   21  C   UNL     1     -11.646  12.260  68.585  1.00  0.00    -0.372 C  
BRANCH  21  22
HETATM   22  C   UNL     1     -11.515  13.578  69.333  1.00  0.00    -0.340 C  
BRANCH  22  23
HETATM   23  C   UNL     1     -12.453  13.616  70.533  1.00  0.00    -0.394 C  
BRANCH  23  24
HETATM   24  C   UNL     1     -12.634  15.045  71.025  1.00  0.00    -0.416 C  
BRANCH  24  25
HETATM   25  C   UNL     1     -13.996  15.233  71.674  1.00  0.00    -0.529 C  
HETATM   26  O   UNL     1     -14.219  14.200  72.624  1.00  0.00    -0.598 OA 
HETATM   27  H   UNL     1     -15.070  14.318  73.030  1.00  0.00     0.000 HD 
ENDBRANCH  24  25
ENDBRANCH  23  24
ENDBRANCH  22  23
ENDBRANCH  21  22
ENDBRANCH  20  21
ENDBRANCH  19  20
ENDBRANCH  18  19
ENDBRANCH  17  18
ENDBRANCH  16  17
ENDBRANCH  15  16
ENDBRANCH  14  15
ENDBRANCH   9  14
ENDBRANCH   2   3
TORSDOF 14
ENDMDL
MODEL       72
REMARK 921   NORMALIZED FREE ENERGY PREDICTED BY IDOCK:   -4.57 KCAL/MOL
REMARK 922        TOTAL FREE ENERGY PREDICTED BY IDOCK:  -10.14 KCAL/MOL
REMARK 923 INTER-LIGAND FREE ENERGY PREDICTED BY IDOCK:   -7.96 KCAL/MOL
REMARK 924 INTRA-LIGAND FREE ENERGY PREDICTED BY IDOCK:   -2.18 KCAL/MOL
REMARK 927      BINDING AFFINITY PREDICTED BY RF-SCORE:    0.00 PKD
ROOT
HETATM    1  C   UNL     1      -9.673  10.657  63.070  1.00  0.00    -0.323 C  
HETATM    2  O   UNL     1      -8.835  10.933  64.184  1.00  0.00    -0.147 OA 
ENDROOT
BRANCH   2   3
HETATM    3  C   UNL     1      -9.472  11.220  65.390  1.00  0.00    -0.225 C  
HETATM    4  C   UNL     1      -9.368  10.332  66.395  1.00  0.00    -0.165 C  
HETATM    5  C   UNL     1     -10.067  10.618  67.684  1.00  0.00    -0.177 C  
HETATM    6  O   UNL     1     -10.205  13.440  64.837  1.00  0.00    -0.348 OA 
HETATM    7  O   UNL     1      -9.749  10.102  68.750  1.00  0.00    -0.159 OA 
HETATM    8  C   UNL     1     -10.302  12.460  65.567  1.00  0.00    -0.271 C  
HETATM    9  C   UNL     1     -11.232  11.546  67.630  1.00  0.00    -0.343 C  
HETATM   10  C   UNL     1     -12.398  13.493  66.514  1.00  0.00    -0.382 C  
HETATM   11  C   UNL     1     -11.326  12.448  66.640  1.00  0.00    -0.394 C  
BRANCH   4  12
HETATM   12  O   UNL     1      -8.600   9.185  66.193  1.00  0.00    -0.127 OA 
HETATM   13  C   UNL     1      -9.273   7.945  66.009  1.00  0.00    -0.104 C  
ENDBRANCH   4  12
BRANCH   9  14
HETATM   14  C   UNL     1     -12.244  11.368  68.719  1.00  0.00    -0.101 C  
BRANCH  14  15
HETATM   15  C   UNL     1     -11.891  12.136  69.994  1.00  0.00    -0.383 C  
BRANCH  15  16
HETATM   16  C   UNL     1     -12.316  11.374  71.249  1.00  0.00    -0.344 C  
BRANCH  16  17
HETATM   17  C   UNL     1     -13.301  12.182  72.085  1.00  0.00    -0.438 C  
BRANCH  17  18
HETATM   18  C   UNL     1     -13.615  13.527  71.459  1.00  0.00    -0.254 C  
BRANCH  18  19
HETATM   19  C   UNL     1     -13.399  14.620  72.498  1.00  0.00    -0.542 C  
BRANCH  19  20
HETATM   20  C   UNL     1     -11.969  15.126  72.448  1.00  0.00    -0.488 C  
BRANCH  20  21
HETATM   21  C   UNL     1     -11.820  16.198  71.378  1.00  0.00    -0.490 C  
BRANCH  21  22
HETATM   22  C   UNL     1     -10.855  15.727  70.301  1.00  0.00    -0.363 C  
BRANCH  22  23
HETATM   23  C   UNL     1     -11.343  16.138  68.918  1.00  0.00    -0.350 C  
BRANCH  23  24
HETATM   24  C   UNL     1     -10.223  16.008  67.895  1.00  0.00    -0.258 C  
BRANCH  24  25
HETATM   25  C   UNL     1     -10.451  16.935  66.712  1.00  0.00    -0.260 C  
HETATM   26  O   UNL     1      -9.795  16.415  65.565  1.00  0.00    -0.522 OA 
HETATM   27  H   UNL     1      -9.937  16.994  64.825  1.00  0.00     0.000 HD 
ENDBRANCH  24  25
ENDBRANCH  23  24
ENDBRANCH  22  23
ENDBRANCH  21  22
ENDBRANCH  20  21
ENDBRANCH  19  20
ENDBRANCH  18  19
ENDBRANCH  17  18
ENDBRANCH  16  17
ENDBRANCH  15  16
ENDBRANCH  14  15
ENDBRANCH   9  14
ENDBRANCH   2   3
TORSDOF 14
ENDMDL
MODEL       73
REMARK 921   NORMALIZED FREE ENERGY PREDICTED BY IDOCK:   -4.56 KCAL/MOL
REMARK 922        TOTAL FREE ENERGY PREDICTED BY IDOCK:  -10.11 KCAL/MOL
REMARK 923 INTER-LIGAND FREE ENERGY PREDICTED BY IDOCK:   -8.64 KCAL/MOL
REMARK 924 INTRA-LIGAND FREE ENERGY PREDICTED BY IDOCK:   -1.46 KCAL/MOL
REMARK 927      BINDING AFFINITY PREDICTED BY RF-SCORE:    0.00 PKD
ROOT
HETATM    1  C   UNL     1      -5.596  19.983  67.388  1.00  0.00    -0.171 C  
HETATM    2  O   UNL     1      -6.444  19.852  68.522  1.00  0.00    -0.262 OA 
ENDROOT
BRANCH   2   3
HETATM    3  C   UNL     1      -7.595  19.082  68.357  1.00  0.00    -0.308 C  
HETATM    4  C   UNL     1      -7.599  17.828  68.841  1.00  0.00    -0.223 C  
HETATM    5  C   UNL     1      -8.818  16.986  68.648  1.00  0.00    -0.267 C  
HETATM    6  O   UNL     1      -8.987  20.799  67.414  1.00  0.00    -0.311 OA 
HETATM    7  O   UNL     1      -9.078  16.010  69.343  1.00  0.00    -0.251 OA 
HETATM    8  C   UNL     1      -8.792  19.605  67.614  1.00  0.00    -0.320 C  
HETATM    9  C   UNL     1      -9.719  17.349  67.518  1.00  0.00    -0.266 C  
HETATM   10  C   UNL     1     -10.648  19.125  65.975  1.00  0.00    -0.524 C  
HETATM   11  C   UNL     1      -9.732  18.607  67.048  1.00  0.00    -0.328 C  
BRANCH   4  12
HETATM   12  O   UNL     1      -6.466  17.370  69.514  1.00  0.00    -0.249 OA 
HETATM   13  C   UNL     1      -5.591  16.477  68.835  1.00  0.00    -0.130 C  
ENDBRANCH   4  12
BRANCH   9  14
HETATM   14  C   UNL     1     -10.549  16.228  66.973  1.00  0.00    -0.284 C  
BRANCH  14  15
HETATM   15  C   UNL     1      -9.877  15.498  65.808  1.00  0.00    -0.392 C  
BRANCH  15  16
HETATM   16  C   UNL     1     -10.883  14.683  64.996  1.00  0.00    -0.431 C  
BRANCH  16  17
HETATM   17  C   UNL     1     -11.739  13.799  65.896  1.00  0.00    -0.370 C  
BRANCH  17  18
HETATM   18  C   UNL     1     -11.064  12.477  66.210  1.00  0.00    -0.336 C  
BRANCH  18  19
HETATM   19  C   UNL     1     -11.590  11.955  67.540  1.00  0.00    -0.374 C  
BRANCH  19  20
HETATM   20  C   UNL     1     -11.368  12.979  68.638  1.00  0.00    -0.329 C  
BRANCH  20  21
HETATM   21  C   UNL     1     -11.971  12.495  69.949  1.00  0.00    -0.371 C  
BRANCH  21  22
HETATM   22  C   UNL     1     -12.323  11.019  69.845  1.00  0.00    -0.356 C  
BRANCH  22  23
HETATM   23  C   UNL     1     -12.140  10.322  71.187  1.00  0.00    -0.494 C  
BRANCH  23  24
HETATM   24  C   UNL     1     -11.382   9.014  71.012  1.00  0.00    -0.362 C  
BRANCH  24  25
HETATM   25  C   UNL     1     -12.250   7.823  71.385  1.00  0.00    -0.319 C  
HETATM   26  O   UNL     1     -12.436   6.992  70.249  1.00  0.00    -0.617 OA 
HETATM   27  H   UNL     1     -12.978   6.248  70.482  1.00  0.00     0.000 HD 
ENDBRANCH  24  25
ENDBRANCH  23  24
ENDBRANCH  22  23
ENDBRANCH  21  22
ENDBRANCH  20  21
ENDBRANCH  19  20
ENDBRANCH  18  19
ENDBRANCH  17  18
ENDBRANCH  16  17
ENDBRANCH  15  16
ENDBRANCH  14  15
ENDBRANCH   9  14
ENDBRANCH   2   3
TORSDOF 14
ENDMDL
MODEL       74
REMARK 921   NORMALIZED FREE ENERGY PREDICTED BY IDOCK:   -4.55 KCAL/MOL
REMARK 922        TOTAL FREE ENERGY PREDICTED BY IDOCK:  -10.10 KCAL/MOL
REMARK 923 INTER-LIGAND FREE ENERGY PREDICTED BY IDOCK:   -8.48 KCAL/MOL
REMARK 924 INTRA-LIGAND FREE ENERGY PREDICTED BY IDOCK:   -1.61 KCAL/MOL
REMARK 927      BINDING AFFINITY PREDICTED BY RF-SCORE:    0.00 PKD
ROOT
HETATM    1  C   UNL     1      -9.730   9.004  67.878  1.00  0.00    -0.155 C  
HETATM    2  O   UNL     1      -9.851  10.133  68.733  1.00  0.00    -0.162 OA 
ENDROOT
BRANCH   2   3
HETATM    3  C   UNL     1      -9.711  11.386  68.139  1.00  0.00    -0.192 C  
HETATM    4  C   UNL     1      -8.520  12.005  68.228  1.00  0.00    -0.167 C  
HETATM    5  C   UNL     1      -8.366  13.359  67.616  1.00  0.00    -0.179 C  
HETATM    6  O   UNL     1     -11.862  11.471  67.073  1.00  0.00    -0.568 OA 
HETATM    7  O   UNL     1      -7.280  13.838  67.308  1.00  0.00    -0.136 OA 
HETATM    8  C   UNL     1     -10.863  12.068  67.458  1.00  0.00    -0.241 C  
HETATM    9  C   UNL     1      -9.608  14.161  67.425  1.00  0.00    -0.229 C  
HETATM   10  C   UNL     1     -12.106  14.221  67.036  1.00  0.00    -0.424 C  
HETATM   11  C   UNL     1     -10.794  13.543  67.314  1.00  0.00    -0.285 C  
BRANCH   4  12
HETATM   12  O   UNL     1      -7.476  11.350  68.879  1.00  0.00    -0.111 OA 
HETATM   13  C   UNL     1      -6.422  10.807  68.092  1.00  0.00    -0.058 C  
ENDBRANCH   4  12
BRANCH   9  14
HETATM   14  C   UNL     1      -9.414  15.645  67.392  1.00  0.00    -0.217 C  
BRANCH  14  15
HETATM   15  C   UNL     1      -9.232  16.256  68.783  1.00  0.00    -0.240 C  
BRANCH  15  16
HETATM   16  C   UNL     1     -10.572  16.624  69.419  1.00  0.00    -0.333 C  
BRANCH  16  17
HETATM   17  C   UNL     1     -10.949  15.650  70.529  1.00  0.00    -0.371 C  
BRANCH  17  18
HETATM   18  C   UNL     1     -11.682  16.335  71.667  1.00  0.00    -0.490 C  
BRANCH  18  19
HETATM   19  C   UNL     1     -12.232  15.274  72.612  1.00  0.00    -0.502 C  
BRANCH  19  20
HETATM   20  C   UNL     1     -13.732  15.132  72.436  1.00  0.00    -0.600 C  
BRANCH  20  21
HETATM   21  C   UNL     1     -14.121  13.665  72.335  1.00  0.00    -0.586 C  
BRANCH  21  22
HETATM   22  C   UNL     1     -12.952  12.854  71.796  1.00  0.00    -0.416 C  
BRANCH  22  23
HETATM   23  C   UNL     1     -13.212  11.360  71.948  1.00  0.00    -0.485 C  
BRANCH  23  24
HETATM   24  C   UNL     1     -12.390  10.569  70.941  1.00  0.00    -0.490 C  
BRANCH  24  25
HETATM   25  C   UNL     1     -11.661   9.417  71.612  1.00  0.00    -0.396 C  
HETATM   26  O   UNL     1     -12.556   8.717  72.464  1.00  0.00    -0.449 OA 
HETATM   27  H   UNL     1     -12.100   7.996  72.884  1.00  0.00     0.000 HD 
ENDBRANCH  24  25
ENDBRANCH  23  24
ENDBRANCH  22  23
ENDBRANCH  21  22
ENDBRANCH  20  21
ENDBRANCH  19  20
ENDBRANCH  18  19
ENDBRANCH  17  18
ENDBRANCH  16  17
ENDBRANCH  15  16
ENDBRANCH  14  15
ENDBRANCH   9  14
ENDBRANCH   2   3
TORSDOF 14
ENDMDL
MODEL       75
REMARK 921   NORMALIZED FREE ENERGY PREDICTED BY IDOCK:   -4.53 KCAL/MOL
REMARK 922        TOTAL FREE ENERGY PREDICTED BY IDOCK:  -10.06 KCAL/MOL
REMARK 923 INTER-LIGAND FREE ENERGY PREDICTED BY IDOCK:   -9.29 KCAL/MOL
REMARK 924 INTRA-LIGAND FREE ENERGY PREDICTED BY IDOCK:   -0.76 KCAL/MOL
REMARK 927      BINDING AFFINITY PREDICTED BY RF-SCORE:    0.00 PKD
ROOT
HETATM    1  C   UNL     1      -8.035  17.478  65.835  1.00  0.00    -0.036 C  
HETATM    2  O   UNL     1      -9.414  17.808  65.747  1.00  0.00    -0.518 OA 
ENDROOT
BRANCH   2   3
HETATM    3  C   UNL     1     -10.321  16.807  66.091  1.00  0.00    -0.330 C  
HETATM    4  C   UNL     1     -10.434  16.466  67.388  1.00  0.00    -0.309 C  
HETATM    5  C   UNL     1     -11.384  15.377  67.765  1.00  0.00    -0.306 C  
HETATM    6  O   UNL     1     -11.307  16.515  63.920  1.00  0.00    -1.057 OA 
HETATM    7  O   UNL     1     -11.839  15.245  68.896  1.00  0.00    -0.338 OA 
HETATM    8  C   UNL     1     -11.123  16.079  65.050  1.00  0.00    -0.336 C  
HETATM    9  C   UNL     1     -11.742  14.394  66.704  1.00  0.00    -0.410 C  
HETATM   10  C   UNL     1     -12.058  13.879  64.248  1.00  0.00    -0.477 C  
HETATM   11  C   UNL     1     -11.651  14.740  65.410  1.00  0.00    -0.316 C  
BRANCH   4  12
HETATM   12  O   UNL     1      -9.665  17.153  68.326  1.00  0.00    -0.259 OA 
HETATM   13  C   UNL     1     -10.157  18.389  68.830  1.00  0.00    -0.363 C  
ENDBRANCH   4  12
BRANCH   9  14
HETATM   14  C   UNL     1     -12.170  13.046  67.197  1.00  0.00    -0.200 C  
BRANCH  14  15
HETATM   15  C   UNL     1     -11.003  12.070  67.358  1.00  0.00    -0.311 C  
BRANCH  15  16
HETATM   16  C   UNL     1     -10.633  11.868  68.827  1.00  0.00    -0.234 C  
BRANCH  16  17
HETATM   17  C   UNL     1     -11.857  11.971  69.729  1.00  0.00    -0.401 C  
BRANCH  17  18
HETATM   18  C   UNL     1     -12.400  10.608  70.116  1.00  0.00    -0.370 C  
BRANCH  18  19
HETATM   19  C   UNL     1     -12.999  10.692  71.514  1.00  0.00    -0.566 C  
BRANCH  19  20
HETATM   20  C   UNL     1     -13.070   9.313  72.145  1.00  0.00    -0.520 C  
BRANCH  20  21
HETATM   21  C   UNL     1     -11.863   8.479  71.741  1.00  0.00    -0.395 C  
BRANCH  21  22
HETATM   22  C   UNL     1     -12.234   7.004  71.722  1.00  0.00    -0.387 C  
BRANCH  22  23
HETATM   23  C   UNL     1     -11.221   6.181  72.508  1.00  0.00    -0.327 C  
BRANCH  23  24
HETATM   24  C   UNL     1     -10.207   5.543  71.568  1.00  0.00    -0.270 C  
BRANCH  24  25
HETATM   25  C   UNL     1      -8.829   6.160  71.747  1.00  0.00    -0.138 C  
HETATM   26  O   UNL     1      -8.413   6.016  73.097  1.00  0.00    -0.119 OA 
HETATM   27  H   UNL     1      -7.552   6.402  73.209  1.00  0.00     0.000 HD 
ENDBRANCH  24  25
ENDBRANCH  23  24
ENDBRANCH  22  23
ENDBRANCH  21  22
ENDBRANCH  20  21
ENDBRANCH  19  20
ENDBRANCH  18  19
ENDBRANCH  17  18
ENDBRANCH  16  17
ENDBRANCH  15  16
ENDBRANCH  14  15
ENDBRANCH   9  14
ENDBRANCH   2   3
TORSDOF 14
ENDMDL
MODEL       76
REMARK 921   NORMALIZED FREE ENERGY PREDICTED BY IDOCK:   -4.52 KCAL/MOL
REMARK 922        TOTAL FREE ENERGY PREDICTED BY IDOCK:  -10.04 KCAL/MOL
REMARK 923 INTER-LIGAND FREE ENERGY PREDICTED BY IDOCK:   -7.45 KCAL/MOL
REMARK 924 INTRA-LIGAND FREE ENERGY PREDICTED BY IDOCK:   -2.59 KCAL/MOL
REMARK 927      BINDING AFFINITY PREDICTED BY RF-SCORE:    0.00 PKD
ROOT
HETATM    1  C   UNL     1      -9.049   8.146  73.115  1.00  0.00    -0.265 C  
HETATM    2  O   UNL     1      -9.914   7.466  72.215  1.00  0.00    -0.163 OA 
ENDROOT
BRANCH   2   3
HETATM    3  C   UNL     1     -10.563   8.247  71.261  1.00  0.00    -0.219 C  
HETATM    4  C   UNL     1     -10.100   8.231  69.999  1.00  0.00    -0.196 C  
HETATM    5  C   UNL     1     -10.774   9.084  68.974  1.00  0.00    -0.141 C  
HETATM    6  O   UNL     1     -12.383   8.985  72.646  1.00  0.00    -0.272 OA 
HETATM    7  O   UNL     1     -10.695   8.874  67.768  1.00  0.00    -0.223 OA 
HETATM    8  C   UNL     1     -11.721   9.133  71.625  1.00  0.00    -0.378 C  
HETATM    9  C   UNL     1     -11.535  10.265  69.471  1.00  0.00    -0.273 C  
HETATM   10  C   UNL     1     -12.868  11.358  71.320  1.00  0.00    -0.481 C  
HETATM   11  C   UNL     1     -12.017  10.274  70.723  1.00  0.00    -0.456 C  
BRANCH   4  12
HETATM   12  O   UNL     1      -9.015   7.408  69.698  1.00  0.00    -0.141 OA 
HETATM   13  C   UNL     1      -9.275   6.091  69.227  1.00  0.00    -0.127 C  
ENDBRANCH   4  12
BRANCH   9  14
HETATM   14  C   UNL     1     -11.682  11.390  68.493  1.00  0.00    -0.386 C  
BRANCH  14  15
HETATM   15  C   UNL     1     -10.416  12.239  68.363  1.00  0.00    -0.244 C  
BRANCH  15  16
HETATM   16  C   UNL     1     -10.629  13.434  67.434  1.00  0.00    -0.254 C  
BRANCH  16  17
HETATM   17  C   UNL     1     -11.958  13.334  66.694  1.00  0.00    -0.446 C  
BRANCH  17  18
HETATM   18  C   UNL     1     -11.922  14.046  65.355  1.00  0.00    -0.386 C  
BRANCH  18  19
HETATM   19  C   UNL     1     -10.772  13.486  64.527  1.00  0.00    -0.431 C  
BRANCH  19  20
HETATM   20  C   UNL     1     -11.283  12.455  63.537  1.00  0.00    -0.540 C  
BRANCH  20  21
HETATM   21  C   UNL     1     -10.353  11.252  63.491  1.00  0.00    -0.463 C  
BRANCH  21  22
HETATM   22  C   UNL     1     -10.209  10.653  64.882  1.00  0.00    -0.395 C  
BRANCH  22  23
HETATM   23  C   UNL     1      -8.906   9.873  65.004  1.00  0.00    -0.220 C  
BRANCH  23  24
HETATM   24  C   UNL     1      -7.912  10.626  65.878  1.00  0.00    -0.157 C  
BRANCH  24  25
HETATM   25  C   UNL     1      -7.602   9.851  67.149  1.00  0.00    -0.092 C  
HETATM   26  O   UNL     1      -7.954   8.486  66.973  1.00  0.00    -0.098 OA 
HETATM   27  H   UNL     1      -7.760   8.001  67.767  1.00  0.00     0.000 HD 
ENDBRANCH  24  25
ENDBRANCH  23  24
ENDBRANCH  22  23
ENDBRANCH  21  22
ENDBRANCH  20  21
ENDBRANCH  19  20
ENDBRANCH  18  19
ENDBRANCH  17  18
ENDBRANCH  16  17
ENDBRANCH  15  16
ENDBRANCH  14  15
ENDBRANCH   9  14
ENDBRANCH   2   3
TORSDOF 14
ENDMDL
MODEL       77
REMARK 921   NORMALIZED FREE ENERGY PREDICTED BY IDOCK:   -4.51 KCAL/MOL
REMARK 922        TOTAL FREE ENERGY PREDICTED BY IDOCK:  -10.02 KCAL/MOL
REMARK 923 INTER-LIGAND FREE ENERGY PREDICTED BY IDOCK:   -7.69 KCAL/MOL
REMARK 924 INTRA-LIGAND FREE ENERGY PREDICTED BY IDOCK:   -2.33 KCAL/MOL
REMARK 927      BINDING AFFINITY PREDICTED BY RF-SCORE:    0.00 PKD
ROOT
HETATM    1  C   UNL     1     -12.021  13.110  63.315  1.00  0.00    -0.376 C  
HETATM    2  O   UNL     1     -10.920  13.222  64.206  1.00  0.00    -0.378 OA 
ENDROOT
BRANCH   2   3
HETATM    3  C   UNL     1     -10.988  12.475  65.381  1.00  0.00    -0.294 C  
HETATM    4  C   UNL     1     -11.444  13.075  66.495  1.00  0.00    -0.340 C  
HETATM    5  C   UNL     1     -11.498  12.291  67.765  1.00  0.00    -0.329 C  
HETATM    6  O   UNL     1     -10.385  10.349  64.436  1.00  0.00    -0.304 OA 
HETATM    7  O   UNL     1     -12.218  12.592  68.711  1.00  0.00    -0.178 OA 
HETATM    8  C   UNL     1     -10.521  11.048  65.435  1.00  0.00    -0.241 C  
HETATM    9  C   UNL     1     -10.588  11.116  67.873  1.00  0.00    -0.235 C  
HETATM   10  C   UNL     1      -9.302   9.262  66.731  1.00  0.00    -0.202 C  
HETATM   11  C   UNL     1     -10.150  10.501  66.763  1.00  0.00    -0.270 C  
BRANCH   4  12
HETATM   12  O   UNL     1     -11.857  14.405  66.413  1.00  0.00    -0.384 OA 
HETATM   13  C   UNL     1     -11.062  15.400  67.045  1.00  0.00    -0.273 C  
ENDBRANCH   4  12
BRANCH   9  14
HETATM   14  C   UNL     1     -10.212  10.722  69.268  1.00  0.00    -0.217 C  
BRANCH  14  15
HETATM   15  C   UNL     1     -11.192   9.726  69.893  1.00  0.00    -0.271 C  
BRANCH  15  16
HETATM   16  C   UNL     1     -11.711  10.215  71.245  1.00  0.00    -0.426 C  
BRANCH  16  17
HETATM   17  C   UNL     1     -12.576   9.160  71.924  1.00  0.00    -0.463 C  
BRANCH  17  18
HETATM   18  C   UNL     1     -11.754   8.002  72.457  1.00  0.00    -0.446 C  
BRANCH  18  19
HETATM   19  C   UNL     1     -12.216   6.716  71.785  1.00  0.00    -0.400 C  
BRANCH  19  20
HETATM   20  C   UNL     1     -11.029   5.949  71.233  1.00  0.00    -0.325 C  
BRANCH  20  21
HETATM   21  C   UNL     1     -11.007   6.021  69.714  1.00  0.00    -0.471 C  
BRANCH  21  22
HETATM   22  C   UNL     1      -9.633   6.465  69.234  1.00  0.00    -0.145 C  
BRANCH  22  23
HETATM   23  C   UNL     1      -8.788   6.966  70.398  1.00  0.00    -0.152 C  
BRANCH  23  24
HETATM   24  C   UNL     1      -7.747   7.964  69.912  1.00  0.00    -0.098 C  
BRANCH  24  25
HETATM   25  C   UNL     1      -7.396   8.965  71.001  1.00  0.00    -0.106 C  
HETATM   26  O   UNL     1      -8.413   8.968  71.992  1.00  0.00    -0.368 OA 
HETATM   27  H   UNL     1      -8.194   9.593  72.673  1.00  0.00     0.000 HD 
ENDBRANCH  24  25
ENDBRANCH  23  24
ENDBRANCH  22  23
ENDBRANCH  21  22
ENDBRANCH  20  21
ENDBRANCH  19  20
ENDBRANCH  18  19
ENDBRANCH  17  18
ENDBRANCH  16  17
ENDBRANCH  15  16
ENDBRANCH  14  15
ENDBRANCH   9  14
ENDBRANCH   2   3
TORSDOF 14
ENDMDL
MODEL       78
REMARK 921   NORMALIZED FREE ENERGY PREDICTED BY IDOCK:   -4.50 KCAL/MOL
REMARK 922        TOTAL FREE ENERGY PREDICTED BY IDOCK:  -10.01 KCAL/MOL
REMARK 923 INTER-LIGAND FREE ENERGY PREDICTED BY IDOCK:   -8.49 KCAL/MOL
REMARK 924 INTRA-LIGAND FREE ENERGY PREDICTED BY IDOCK:   -1.53 KCAL/MOL
REMARK 927      BINDING AFFINITY PREDICTED BY RF-SCORE:    0.00 PKD
ROOT
HETATM    1  C   UNL     1     -10.865  15.542  64.967  1.00  0.00    -0.450 C  
HETATM    2  O   UNL     1     -11.970  14.648  65.008  1.00  0.00    -0.379 OA 
ENDROOT
BRANCH   2   3
HETATM    3  C   UNL     1     -11.700  13.337  65.394  1.00  0.00    -0.343 C  
HETATM    4  C   UNL     1     -11.896  12.997  66.681  1.00  0.00    -0.393 C  
HETATM    5  C   UNL     1     -11.586  11.601  67.112  1.00  0.00    -0.212 C  
HETATM    6  O   UNL     1     -11.231  12.455  63.209  1.00  0.00    -0.441 OA 
HETATM    7  O   UNL     1     -12.062  11.086  68.118  1.00  0.00    -0.610 OA 
HETATM    8  C   UNL     1     -11.153  12.327  64.426  1.00  0.00    -0.330 C  
HETATM    9  C   UNL     1     -10.611  10.837  66.282  1.00  0.00    -0.257 C  
HETATM   10  C   UNL     1      -9.547  10.424  64.025  1.00  0.00    -0.376 C  
HETATM   11  C   UNL     1     -10.431  11.161  64.992  1.00  0.00    -0.357 C  
BRANCH   4  12
HETATM   12  O   UNL     1     -12.392  13.963  67.557  1.00  0.00    -0.292 OA 
HETATM   13  C   UNL     1     -11.647  14.256  68.733  1.00  0.00    -0.322 C  
ENDBRANCH   4  12
BRANCH   9  14
HETATM   14  C   UNL     1      -9.877   9.745  66.997  1.00  0.00    -0.245 C  
BRANCH  14  15
HETATM   15  C   UNL     1      -8.441  10.128  67.359  1.00  0.00    -0.122 C  
BRANCH  15  16
HETATM   16  C   UNL     1      -8.393  11.079  68.555  1.00  0.00    -0.149 C  
BRANCH  16  17
HETATM   17  C   UNL     1      -7.471  12.263  68.288  1.00  0.00    -0.119 C  
BRANCH  17  18
HETATM   18  C   UNL     1      -8.122  13.306  67.399  1.00  0.00    -0.179 C  
BRANCH  18  19
HETATM   19  C   UNL     1      -8.252  14.609  68.176  1.00  0.00    -0.142 C  
BRANCH  19  20
HETATM   20  C   UNL     1      -7.935  15.794  67.282  1.00  0.00    -0.216 C  
BRANCH  20  21
HETATM   21  C   UNL     1      -8.108  17.099  68.045  1.00  0.00    -0.210 C  
BRANCH  21  22
HETATM   22  C   UNL     1      -9.558  17.556  67.971  1.00  0.00    -0.282 C  
BRANCH  22  23
HETATM   23  C   UNL     1      -9.777  18.802  68.820  1.00  0.00    -0.432 C  
BRANCH  23  24
HETATM   24  C   UNL     1     -10.353  19.930  67.975  1.00  0.00    -0.547 C  
BRANCH  24  25
HETATM   25  C   UNL     1     -10.533  19.496  66.530  1.00  0.00    -0.493 C  
HETATM   26  O   UNL     1      -9.949  20.459  65.665  1.00  0.00    -0.588 OA 
HETATM   27  H   UNL     1     -10.061  20.187  64.761  1.00  0.00     0.000 HD 
ENDBRANCH  24  25
ENDBRANCH  23  24
ENDBRANCH  22  23
ENDBRANCH  21  22
ENDBRANCH  20  21
ENDBRANCH  19  20
ENDBRANCH  18  19
ENDBRANCH  17  18
ENDBRANCH  16  17
ENDBRANCH  15  16
ENDBRANCH  14  15
ENDBRANCH   9  14
ENDBRANCH   2   3
TORSDOF 14
ENDMDL
MODEL       79
REMARK 921   NORMALIZED FREE ENERGY PREDICTED BY IDOCK:   -4.48 KCAL/MOL
REMARK 922        TOTAL FREE ENERGY PREDICTED BY IDOCK:   -9.97 KCAL/MOL
REMARK 923 INTER-LIGAND FREE ENERGY PREDICTED BY IDOCK:   -8.38 KCAL/MOL
REMARK 924 INTRA-LIGAND FREE ENERGY PREDICTED BY IDOCK:   -1.59 KCAL/MOL
REMARK 927      BINDING AFFINITY PREDICTED BY RF-SCORE:    0.00 PKD
ROOT
HETATM    1  C   UNL     1      -9.808   7.422  71.966  1.00  0.00    -0.162 C  
HETATM    2  O   UNL     1     -10.960   7.774  71.212  1.00  0.00    -0.231 OA 
ENDROOT
BRANCH   2   3
HETATM    3  C   UNL     1     -11.088   9.115  70.855  1.00  0.00    -0.291 C  
HETATM    4  C   UNL     1     -12.135   9.807  71.339  1.00  0.00    -0.400 C  
HETATM    5  C   UNL     1     -12.296  11.239  70.944  1.00  0.00    -0.388 C  
HETATM    6  O   UNL     1      -9.006   9.327  69.676  1.00  0.00    -0.140 OA 
HETATM    7  O   UNL     1     -12.957  12.044  71.590  1.00  0.00    -0.408 OA 
HETATM    8  C   UNL     1     -10.122   9.776  69.914  1.00  0.00    -0.251 C  
HETATM    9  C   UNL     1     -11.646  11.667  69.673  1.00  0.00    -0.401 C  
HETATM   10  C   UNL     1      -9.789  11.363  67.983  1.00  0.00    -0.191 C  
HETATM   11  C   UNL     1     -10.587  10.991  69.200  1.00  0.00    -0.253 C  
BRANCH   4  12
HETATM   12  O   UNL     1     -13.021   9.160  72.200  1.00  0.00    -0.372 OA 
HETATM   13  C   UNL     1     -14.242   8.662  71.665  1.00  0.00    -0.387 C  
ENDBRANCH   4  12
BRANCH   9  14
HETATM   14  C   UNL     1     -12.270  12.850  69.000  1.00  0.00    -0.055 C  
BRANCH  14  15
HETATM   15  C   UNL     1     -11.848  14.183  69.623  1.00  0.00    -0.379 C  
BRANCH  15  16
HETATM   16  C   UNL     1     -10.752  14.868  68.806  1.00  0.00    -0.252 C  
BRANCH  16  17
HETATM   17  C   UNL     1     -11.136  14.972  67.335  1.00  0.00    -0.324 C  
BRANCH  17  18
HETATM   18  C   UNL     1      -9.926  14.906  66.422  1.00  0.00    -0.290 C  
BRANCH  18  19
HETATM   19  C   UNL     1     -10.394  14.966  64.974  1.00  0.00    -0.401 C  
BRANCH  19  20
HETATM   20  C   UNL     1     -11.902  14.804  64.896  1.00  0.00    -0.377 C  
BRANCH  20  21
HETATM   21  C   UNL     1     -12.266  13.641  63.985  1.00  0.00    -0.443 C  
BRANCH  21  22
HETATM   22  C   UNL     1     -11.868  12.326  64.637  1.00  0.00    -0.435 C  
BRANCH  22  23
HETATM   23  C   UNL     1     -11.235  11.386  63.619  1.00  0.00    -0.366 C  
BRANCH  23  24
HETATM   24  C   UNL     1      -9.747  11.676  63.476  1.00  0.00    -0.342 C  
BRANCH  24  25
HETATM   25  C   UNL     1      -9.096  10.724  62.486  1.00  0.00    -0.312 C  
HETATM   26  O   UNL     1      -9.581   9.407  62.700  1.00  0.00    -0.531 OA 
HETATM   27  H   UNL     1      -9.174   8.812  62.082  1.00  0.00     0.000 HD 
ENDBRANCH  24  25
ENDBRANCH  23  24
ENDBRANCH  22  23
ENDBRANCH  21  22
ENDBRANCH  20  21
ENDBRANCH  19  20
ENDBRANCH  18  19
ENDBRANCH  17  18
ENDBRANCH  16  17
ENDBRANCH  15  16
ENDBRANCH  14  15
ENDBRANCH   9  14
ENDBRANCH   2   3
TORSDOF 14
ENDMDL
MODEL       80
REMARK 921   NORMALIZED FREE ENERGY PREDICTED BY IDOCK:   -4.48 KCAL/MOL
REMARK 922        TOTAL FREE ENERGY PREDICTED BY IDOCK:   -9.97 KCAL/MOL
REMARK 923 INTER-LIGAND FREE ENERGY PREDICTED BY IDOCK:   -8.47 KCAL/MOL
REMARK 924 INTRA-LIGAND FREE ENERGY PREDICTED BY IDOCK:   -1.50 KCAL/MOL
REMARK 927      BINDING AFFINITY PREDICTED BY RF-SCORE:    0.00 PKD
ROOT
HETATM    1  C   UNL     1      -8.324   6.414  66.630  1.00  0.00    -0.113 C  
HETATM    2  O   UNL     1      -9.728   6.610  66.521  1.00  0.00    -0.168 OA 
ENDROOT
BRANCH   2   3
HETATM    3  C   UNL     1     -10.314   7.462  67.455  1.00  0.00    -0.270 C  
HETATM    4  C   UNL     1     -10.491   8.753  67.119  1.00  0.00    -0.283 C  
HETATM    5  C   UNL     1     -11.096   9.681  68.122  1.00  0.00    -0.050 C  
HETATM    6  O   UNL     1     -10.854   5.799  69.102  1.00  0.00    -0.304 OA 
HETATM    7  O   UNL     1     -11.637  10.738  67.817  1.00  0.00    -0.521 OA 
HETATM    8  C   UNL     1     -10.699   6.983  68.826  1.00  0.00    -0.194 C  
HETATM    9  C   UNL     1     -10.981   9.295  69.556  1.00  0.00    -0.169 C  
HETATM   10  C   UNL     1     -10.783   7.472  71.298  1.00  0.00    -0.242 C  
HETATM   11  C   UNL     1     -10.827   8.005  69.894  1.00  0.00    -0.217 C  
BRANCH   4  12
HETATM   12  O   UNL     1     -10.110   9.167  65.843  1.00  0.00    -0.273 OA 
HETATM   13  C   UNL     1      -8.968  10.004  65.717  1.00  0.00    -0.157 C  
ENDBRANCH   4  12
BRANCH   9  14
HETATM   14  C   UNL     1     -11.031  10.430  70.531  1.00  0.00    -0.270 C  
BRANCH  14  15
HETATM   15  C   UNL     1     -12.448  10.740  71.017  1.00  0.00    -0.522 C  
BRANCH  15  16
HETATM   16  C   UNL     1     -12.784  12.224  70.874  1.00  0.00    -0.277 C  
BRANCH  16  17
HETATM   17  C   UNL     1     -13.372  12.790  72.161  1.00  0.00    -0.593 C  
BRANCH  17  18
HETATM   18  C   UNL     1     -13.982  14.163  71.956  1.00  0.00    -0.604 C  
BRANCH  18  19
HETATM   19  C   UNL     1     -13.388  15.127  72.975  1.00  0.00    -0.586 C  
BRANCH  19  20
HETATM   20  C   UNL     1     -11.911  15.343  72.703  1.00  0.00    -0.567 C  
BRANCH  20  21
HETATM   21  C   UNL     1     -11.716  16.166  71.439  1.00  0.00    -0.506 C  
BRANCH  21  22
HETATM   22  C   UNL     1     -10.972  15.347  70.395  1.00  0.00    -0.347 C  
BRANCH  22  23
HETATM   23  C   UNL     1     -11.725  15.343  69.071  1.00  0.00    -0.380 C  
BRANCH  23  24
HETATM   24  C   UNL     1     -10.891  14.681  67.983  1.00  0.00    -0.260 C  
BRANCH  24  25
HETATM   25  C   UNL     1     -10.719  15.603  66.787  1.00  0.00    -0.300 C  
HETATM   26  O   UNL     1     -10.595  14.829  65.602  1.00  0.00    -0.301 OA 
HETATM   27  H   UNL     1     -10.488  15.405  64.854  1.00  0.00     0.000 HD 
ENDBRANCH  24  25
ENDBRANCH  23  24
ENDBRANCH  22  23
ENDBRANCH  21  22
ENDBRANCH  20  21
ENDBRANCH  19  20
ENDBRANCH  18  19
ENDBRANCH  17  18
ENDBRANCH  16  17
ENDBRANCH  15  16
ENDBRANCH  14  15
ENDBRANCH   9  14
ENDBRANCH   2   3
TORSDOF 14
ENDMDL
MODEL       81
REMARK 921   NORMALIZED FREE ENERGY PREDICTED BY IDOCK:   -4.48 KCAL/MOL
REMARK 922        TOTAL FREE ENERGY PREDICTED BY IDOCK:   -9.97 KCAL/MOL
REMARK 923 INTER-LIGAND FREE ENERGY PREDICTED BY IDOCK:   -8.42 KCAL/MOL
REMARK 924 INTRA-LIGAND FREE ENERGY PREDICTED BY IDOCK:   -1.55 KCAL/MOL
REMARK 927      BINDING AFFINITY PREDICTED BY RF-SCORE:    0.00 PKD
ROOT
HETATM    1  C   UNL     1      -8.790  16.333  66.399  1.00  0.00    -0.311 C  
HETATM    2  O   UNL     1     -10.205  16.413  66.510  1.00  0.00    -0.283 OA 
ENDROOT
BRANCH   2   3
HETATM    3  C   UNL     1     -10.868  15.252  66.906  1.00  0.00    -0.317 C  
HETATM    4  C   UNL     1     -11.251  15.142  68.191  1.00  0.00    -0.320 C  
HETATM    5  C   UNL     1     -11.940  13.892  68.632  1.00  0.00    -0.366 C  
HETATM    6  O   UNL     1     -11.076  14.251  64.732  1.00  0.00    -0.368 OA 
HETATM    7  O   UNL     1     -12.647  13.832  69.632  1.00  0.00    -0.217 OA 
HETATM    8  C   UNL     1     -11.112  14.119  65.950  1.00  0.00    -0.306 C  
HETATM    9  C   UNL     1     -11.701  12.666  67.820  1.00  0.00    -0.412 C  
HETATM   10  C   UNL     1     -11.152  11.625  65.582  1.00  0.00    -0.308 C  
HETATM   11  C   UNL     1     -11.341  12.774  66.532  1.00  0.00    -0.369 C  
BRANCH   4  12
HETATM   12  O   UNL     1     -10.997  16.207  69.055  1.00  0.00    -0.271 OA 
HETATM   13  C   UNL     1     -10.719  15.919  70.420  1.00  0.00    -0.253 C  
ENDBRANCH   4  12
BRANCH   9  14
HETATM   14  C   UNL     1     -11.874  11.370  68.550  1.00  0.00    -0.364 C  
BRANCH  14  15
HETATM   15  C   UNL     1     -10.544  10.735  68.963  1.00  0.00    -0.250 C  
BRANCH  15  16
HETATM   16  C   UNL     1     -10.365   9.347  68.348  1.00  0.00    -0.238 C  
BRANCH  16  17
HETATM   17  C   UNL     1      -8.893   8.964  68.257  1.00  0.00    -0.134 C  
BRANCH  17  18
HETATM   18  C   UNL     1      -8.646   7.532  68.693  1.00  0.00    -0.129 C  
BRANCH  18  19
HETATM   19  C   UNL     1      -7.950   7.539  70.048  1.00  0.00    -0.112 C  
BRANCH  19  20
HETATM   20  C   UNL     1      -8.967   7.434  71.169  1.00  0.00    -0.143 C  
BRANCH  20  21
HETATM   21  C   UNL     1     -10.031   6.401  70.828  1.00  0.00    -0.212 C  
BRANCH  21  22
HETATM   22  C   UNL     1     -11.416   6.999  71.018  1.00  0.00    -0.343 C  
BRANCH  22  23
HETATM   23  C   UNL     1     -11.449   7.917  72.233  1.00  0.00    -0.403 C  
BRANCH  23  24
HETATM   24  C   UNL     1     -12.232   9.185  71.924  1.00  0.00    -0.449 C  
BRANCH  24  25
HETATM   25  C   UNL     1     -13.723   8.902  71.836  1.00  0.00    -0.439 C  
HETATM   26  O   UNL     1     -14.321   9.097  73.110  1.00  0.00    -1.102 OA 
HETATM   27  H   UNL     1     -15.253   8.920  73.055  1.00  0.00     0.000 HD 
ENDBRANCH  24  25
ENDBRANCH  23  24
ENDBRANCH  22  23
ENDBRANCH  21  22
ENDBRANCH  20  21
ENDBRANCH  19  20
ENDBRANCH  18  19
ENDBRANCH  17  18
ENDBRANCH  16  17
ENDBRANCH  15  16
ENDBRANCH  14  15
ENDBRANCH   9  14
ENDBRANCH   2   3
TORSDOF 14
ENDMDL
MODEL       82
REMARK 921   NORMALIZED FREE ENERGY PREDICTED BY IDOCK:   -4.47 KCAL/MOL
REMARK 922        TOTAL FREE ENERGY PREDICTED BY IDOCK:   -9.95 KCAL/MOL
REMARK 923 INTER-LIGAND FREE ENERGY PREDICTED BY IDOCK:   -7.57 KCAL/MOL
REMARK 924 INTRA-LIGAND FREE ENERGY PREDICTED BY IDOCK:   -2.38 KCAL/MOL
REMARK 927      BINDING AFFINITY PREDICTED BY RF-SCORE:    0.00 PKD
ROOT
HETATM    1  C   UNL     1      -9.900  15.133  66.063  1.00  0.00    -0.320 C  
HETATM    2  O   UNL     1      -9.743  14.845  67.446  1.00  0.00    -0.214 OA 
ENDROOT
BRANCH   2   3
HETATM    3  C   UNL     1      -9.917  13.517  67.833  1.00  0.00    -0.245 C  
HETATM    4  C   UNL     1     -11.104  13.154  68.352  1.00  0.00    -0.268 C  
HETATM    5  C   UNL     1     -11.293  11.739  68.792  1.00  0.00    -0.267 C  
HETATM    6  O   UNL     1      -7.824  12.673  67.009  1.00  0.00    -0.136 OA 
HETATM    7  O   UNL     1     -12.395  11.216  68.917  1.00  0.00    -0.512 OA 
HETATM    8  C   UNL     1      -8.804  12.514  67.729  1.00  0.00    -0.178 C  
HETATM    9  C   UNL     1     -10.065  10.966  69.131  1.00  0.00    -0.198 C  
HETATM   10  C   UNL     1      -7.591  10.573  68.787  1.00  0.00    -0.101 C  
HETATM   11  C   UNL     1      -8.884  11.314  68.597  1.00  0.00    -0.141 C  
BRANCH   4  12
HETATM   12  O   UNL     1     -12.111  14.113  68.447  1.00  0.00    -0.344 OA 
HETATM   13  C   UNL     1     -12.281  14.796  69.683  1.00  0.00    -0.270 C  
ENDBRANCH   4  12
BRANCH   9  14
HETATM   14  C   UNL     1     -10.264   9.835  70.093  1.00  0.00    -0.328 C  
BRANCH  14  15
HETATM   15  C   UNL     1     -10.641   8.522  69.403  1.00  0.00    -0.203 C  
BRANCH  15  16
HETATM   16  C   UNL     1      -9.478   7.531  69.400  1.00  0.00    -0.155 C  
BRANCH  16  17
HETATM   17  C   UNL     1      -8.931   7.318  67.993  1.00  0.00    -0.131 C  
BRANCH  17  18
HETATM   18  C   UNL     1      -9.870   7.850  66.927  1.00  0.00    -0.309 C  
BRANCH  18  19
HETATM   19  C   UNL     1      -9.097   8.022  65.626  1.00  0.00    -0.049 C  
BRANCH  19  20
HETATM   20  C   UNL     1      -8.470   9.402  65.559  1.00  0.00    -0.153 C  
BRANCH  20  21
HETATM   21  C   UNL     1      -8.917  10.131  64.301  1.00  0.00    -0.267 C  
BRANCH  21  22
HETATM   22  C   UNL     1     -10.271  10.785  64.533  1.00  0.00    -0.428 C  
BRANCH  22  23
HETATM   23  C   UNL     1     -10.410  12.053  63.701  1.00  0.00    -0.482 C  
BRANCH  23  24
HETATM   24  C   UNL     1     -11.871  12.468  63.597  1.00  0.00    -0.610 C  
BRANCH  24  25
HETATM   25  C   UNL     1     -12.498  12.616  64.974  1.00  0.00    -0.487 C  
HETATM   26  O   UNL     1     -13.058  13.914  65.107  1.00  0.00    -0.773 OA 
HETATM   27  H   UNL     1     -13.450  14.007  65.967  1.00  0.00     0.000 HD 
ENDBRANCH  24  25
ENDBRANCH  23  24
ENDBRANCH  22  23
ENDBRANCH  21  22
ENDBRANCH  20  21
ENDBRANCH  19  20
ENDBRANCH  18  19
ENDBRANCH  17  18
ENDBRANCH  16  17
ENDBRANCH  15  16
ENDBRANCH  14  15
ENDBRANCH   9  14
ENDBRANCH   2   3
TORSDOF 14
ENDMDL
MODEL       83
REMARK 921   NORMALIZED FREE ENERGY PREDICTED BY IDOCK:   -4.47 KCAL/MOL
REMARK 922        TOTAL FREE ENERGY PREDICTED BY IDOCK:   -9.94 KCAL/MOL
REMARK 923 INTER-LIGAND FREE ENERGY PREDICTED BY IDOCK:   -8.18 KCAL/MOL
REMARK 924 INTRA-LIGAND FREE ENERGY PREDICTED BY IDOCK:   -1.76 KCAL/MOL
REMARK 927      BINDING AFFINITY PREDICTED BY RF-SCORE:    0.00 PKD
ROOT
HETATM    1  C   UNL     1      -5.501  16.958  67.979  1.00  0.00    -0.121 C  
HETATM    2  O   UNL     1      -6.004  16.662  66.683  1.00  0.00    -0.306 OA 
ENDROOT
BRANCH   2   3
HETATM    3  C   UNL     1      -7.275  16.096  66.619  1.00  0.00    -0.063 C  
HETATM    4  C   UNL     1      -8.280  16.836  66.118  1.00  0.00    -0.264 C  
HETATM    5  C   UNL     1      -9.653  16.248  66.068  1.00  0.00    -0.337 C  
HETATM    6  O   UNL     1      -6.668  13.881  67.325  1.00  0.00    -0.237 OA 
HETATM    7  O   UNL     1     -10.532  16.656  65.317  1.00  0.00    -0.612 OA 
HETATM    8  C   UNL     1      -7.549  14.714  67.141  1.00  0.00    -0.044 C  
HETATM    9  C   UNL     1      -9.949  15.141  67.021  1.00  0.00    -0.242 C  
HETATM   10  C   UNL     1      -9.116  13.193  68.402  1.00  0.00    -0.134 C  
HETATM   11  C   UNL     1      -8.949  14.387  67.505  1.00  0.00    -0.192 C  
BRANCH   4  12
HETATM   12  O   UNL     1      -7.994  18.120  65.655  1.00  0.00    -0.502 OA 
HETATM   13  C   UNL     1      -8.426  19.231  66.431  1.00  0.00    -0.333 C  
ENDBRANCH   4  12
BRANCH   9  14
HETATM   14  C   UNL     1     -11.392  14.975  67.382  1.00  0.00    -0.338 C  
BRANCH  14  15
HETATM   15  C   UNL     1     -11.999  13.678  66.844  1.00  0.00    -0.454 C  
BRANCH  15  16
HETATM   16  C   UNL     1     -12.477  13.832  65.401  1.00  0.00    -0.532 C  
BRANCH  16  17
HETATM   17  C   UNL     1     -12.633  12.479  64.717  1.00  0.00    -0.493 C  
BRANCH  17  18
HETATM   18  C   UNL     1     -11.952  12.440  63.362  1.00  0.00    -0.595 C  
BRANCH  18  19
HETATM   19  C   UNL     1     -10.451  12.275  63.567  1.00  0.00    -0.459 C  
BRANCH  19  20
HETATM   20  C   UNL     1     -10.131  10.869  64.042  1.00  0.00    -0.419 C  
BRANCH  20  21
HETATM   21  C   UNL     1      -9.286  10.913  65.306  1.00  0.00    -0.236 C  
BRANCH  21  22
HETATM   22  C   UNL     1     -10.119  10.483  66.504  1.00  0.00    -0.280 C  
BRANCH  22  23
HETATM   23  C   UNL     1      -9.667   9.122  67.018  1.00  0.00    -0.245 C  
BRANCH  23  24
HETATM   24  C   UNL     1     -10.773   8.463  67.830  1.00  0.00    -0.165 C  
BRANCH  24  25
HETATM   25  C   UNL     1     -10.758   6.954  67.653  1.00  0.00    -0.274 C  
HETATM   26  O   UNL     1     -11.022   6.324  68.898  1.00  0.00    -0.306 OA 
HETATM   27  H   UNL     1     -11.013   5.381  68.788  1.00  0.00     0.000 HD 
ENDBRANCH  24  25
ENDBRANCH  23  24
ENDBRANCH  22  23
ENDBRANCH  21  22
ENDBRANCH  20  21
ENDBRANCH  19  20
ENDBRANCH  18  19
ENDBRANCH  17  18
ENDBRANCH  16  17
ENDBRANCH  15  16
ENDBRANCH  14  15
ENDBRANCH   9  14
ENDBRANCH   2   3
TORSDOF 14
ENDMDL
MODEL       84
REMARK 921   NORMALIZED FREE ENERGY PREDICTED BY IDOCK:   -4.46 KCAL/MOL
REMARK 922        TOTAL FREE ENERGY PREDICTED BY IDOCK:   -9.93 KCAL/MOL
REMARK 923 INTER-LIGAND FREE ENERGY PREDICTED BY IDOCK:   -8.85 KCAL/MOL
REMARK 924 INTRA-LIGAND FREE ENERGY PREDICTED BY IDOCK:   -1.08 KCAL/MOL
REMARK 927      BINDING AFFINITY PREDICTED BY RF-SCORE:    0.00 PKD
ROOT
HETATM    1  C   UNL     1     -10.572   7.811  72.967  1.00  0.00    -0.379 C  
HETATM    2  O   UNL     1     -11.519   7.675  71.917  1.00  0.00    -0.255 OA 
ENDROOT
BRANCH   2   3
HETATM    3  C   UNL     1     -11.599   8.728  71.007  1.00  0.00    -0.288 C  
HETATM    4  C   UNL     1     -10.897   8.637  69.863  1.00  0.00    -0.208 C  
HETATM    5  C   UNL     1     -10.955   9.770  68.891  1.00  0.00    -0.150 C  
HETATM    6  O   UNL     1     -13.287  10.002  72.146  1.00  0.00    -0.444 OA 
HETATM    7  O   UNL     1     -10.682   9.650  67.702  1.00  0.00    -0.267 OA 
HETATM    8  C   UNL     1     -12.401   9.964  71.299  1.00  0.00    -0.381 C  
HETATM    9  C   UNL     1     -11.322  11.109  69.434  1.00  0.00    -0.352 C  
HETATM   10  C   UNL     1     -12.548  12.478  71.171  1.00  0.00    -0.349 C  
HETATM   11  C   UNL     1     -12.041  11.201  70.564  1.00  0.00    -0.474 C  
BRANCH   4  12
HETATM   12  O   UNL     1     -10.152   7.482  69.629  1.00  0.00    -0.181 OA 
HETATM   13  C   UNL     1      -8.734   7.563  69.711  1.00  0.00    -0.140 C  
ENDBRANCH   4  12
BRANCH   9  14
HETATM   14  C   UNL     1     -10.817  12.280  68.649  1.00  0.00    -0.268 C  
BRANCH  14  15
HETATM   15  C   UNL     1     -11.797  12.743  67.569  1.00  0.00    -0.402 C  
BRANCH  15  16
HETATM   16  C   UNL     1     -11.917  14.266  67.530  1.00  0.00    -0.411 C  
BRANCH  16  17
HETATM   17  C   UNL     1     -10.664  14.938  68.077  1.00  0.00    -0.253 C  
BRANCH  17  18
HETATM   18  C   UNL     1     -10.553  16.386  67.639  1.00  0.00    -0.313 C  
BRANCH  18  19
HETATM   19  C   UNL     1     -10.428  17.270  68.874  1.00  0.00    -0.327 C  
BRANCH  19  20
HETATM   20  C   UNL     1      -9.955  18.659  68.487  1.00  0.00    -0.430 C  
BRANCH  20  21
HETATM   21  C   UNL     1     -10.816  19.223  67.368  1.00  0.00    -0.554 C  
BRANCH  21  22
HETATM   22  C   UNL     1      -9.933  19.800  66.272  1.00  0.00    -0.581 C  
BRANCH  22  23
HETATM   23  C   UNL     1      -8.510  20.005  66.775  1.00  0.00    -0.380 C  
BRANCH  23  24
HETATM   24  C   UNL     1      -7.554  19.045  66.080  1.00  0.00    -0.273 C  
BRANCH  24  25
HETATM   25  C   UNL     1      -6.560  19.795  65.208  1.00  0.00    -0.287 C  
HETATM   26  O   UNL     1      -6.730  21.194  65.386  1.00  0.00    -0.501 OA 
HETATM   27  H   UNL     1      -6.108  21.663  64.842  1.00  0.00     0.000 HD 
ENDBRANCH  24  25
ENDBRANCH  23  24
ENDBRANCH  22  23
ENDBRANCH  21  22
ENDBRANCH  20  21
ENDBRANCH  19  20
ENDBRANCH  18  19
ENDBRANCH  17  18
ENDBRANCH  16  17
ENDBRANCH  15  16
ENDBRANCH  14  15
ENDBRANCH   9  14
ENDBRANCH   2   3
TORSDOF 14
ENDMDL
MODEL       85
REMARK 921   NORMALIZED FREE ENERGY PREDICTED BY IDOCK:   -4.46 KCAL/MOL
REMARK 922        TOTAL FREE ENERGY PREDICTED BY IDOCK:   -9.92 KCAL/MOL
REMARK 923 INTER-LIGAND FREE ENERGY PREDICTED BY IDOCK:   -8.22 KCAL/MOL
REMARK 924 INTRA-LIGAND FREE ENERGY PREDICTED BY IDOCK:   -1.70 KCAL/MOL
REMARK 927      BINDING AFFINITY PREDICTED BY RF-SCORE:    0.00 PKD
ROOT
HETATM    1  C   UNL     1      -8.118  17.594  65.845  1.00  0.00    -0.010 C  
HETATM    2  O   UNL     1      -9.502  17.913  65.885  1.00  0.00    -0.522 OA 
ENDROOT
BRANCH   2   3
HETATM    3  C   UNL     1     -10.377  16.865  66.165  1.00  0.00    -0.320 C  
HETATM    4  C   UNL     1     -10.509  16.467  67.443  1.00  0.00    -0.310 C  
HETATM    5  C   UNL     1     -11.426  15.328  67.752  1.00  0.00    -0.303 C  
HETATM    6  O   UNL     1     -11.297  16.625  63.959  1.00  0.00    -1.120 OA 
HETATM    7  O   UNL     1     -11.903  15.133  68.864  1.00  0.00    -0.326 OA 
HETATM    8  C   UNL     1     -11.125  16.150  65.075  1.00  0.00    -0.294 C  
HETATM    9  C   UNL     1     -11.719  14.376  66.643  1.00  0.00    -0.410 C  
HETATM   10  C   UNL     1     -11.954  13.950  64.162  1.00  0.00    -0.464 C  
HETATM   11  C   UNL     1     -11.609  14.778  65.367  1.00  0.00    -0.316 C  
BRANCH   4  12
HETATM   12  O   UNL     1      -9.791  17.144  68.429  1.00  0.00    -0.268 OA 
HETATM   13  C   UNL     1      -8.669  16.495  69.014  1.00  0.00    -0.215 C  
ENDBRANCH   4  12
BRANCH   9  14
HETATM   14  C   UNL     1     -12.107  12.995  67.071  1.00  0.00    -0.330 C  
BRANCH  14  15
HETATM   15  C   UNL     1     -10.901  12.093  67.346  1.00  0.00    -0.286 C  
BRANCH  15  16
HETATM   16  C   UNL     1     -10.635  11.946  68.844  1.00  0.00    -0.205 C  
BRANCH  16  17
HETATM   17  C   UNL     1     -11.874  11.456  69.584  1.00  0.00    -0.431 C  
BRANCH  17  18
HETATM   18  C   UNL     1     -11.628  10.145  70.308  1.00  0.00    -0.379 C  
BRANCH  18  19
HETATM   19  C   UNL     1     -10.134   9.850  70.303  1.00  0.00    -0.295 C  
BRANCH  19  20
HETATM   20  C   UNL     1      -9.876   8.422  69.857  1.00  0.00    -0.186 C  
BRANCH  20  21
HETATM   21  C   UNL     1     -10.546   8.153  68.518  1.00  0.00    -0.142 C  
BRANCH  21  22
HETATM   22  C   UNL     1      -9.509   7.703  67.499  1.00  0.00    -0.168 C  
BRANCH  22  23
HETATM   23  C   UNL     1      -8.745   8.896  66.940  1.00  0.00    -0.128 C  
BRANCH  23  24
HETATM   24  C   UNL     1      -9.294   9.290  65.575  1.00  0.00    -0.303 C  
BRANCH  24  25
HETATM   25  C   UNL     1      -8.475  10.413  64.959  1.00  0.00    -0.176 C  
HETATM   26  O   UNL     1      -9.323  11.257  64.193  1.00  0.00    -0.318 OA 
HETATM   27  H   UNL     1      -8.812  11.959  63.808  1.00  0.00     0.000 HD 
ENDBRANCH  24  25
ENDBRANCH  23  24
ENDBRANCH  22  23
ENDBRANCH  21  22
ENDBRANCH  20  21
ENDBRANCH  19  20
ENDBRANCH  18  19
ENDBRANCH  17  18
ENDBRANCH  16  17
ENDBRANCH  15  16
ENDBRANCH  14  15
ENDBRANCH   9  14
ENDBRANCH   2   3
TORSDOF 14
ENDMDL
MODEL       86
REMARK 921   NORMALIZED FREE ENERGY PREDICTED BY IDOCK:   -4.45 KCAL/MOL
REMARK 922        TOTAL FREE ENERGY PREDICTED BY IDOCK:   -9.92 KCAL/MOL
REMARK 923 INTER-LIGAND FREE ENERGY PREDICTED BY IDOCK:   -7.81 KCAL/MOL
REMARK 924 INTRA-LIGAND FREE ENERGY PREDICTED BY IDOCK:   -2.11 KCAL/MOL
REMARK 927      BINDING AFFINITY PREDICTED BY RF-SCORE:    0.00 PKD
ROOT
HETATM    1  C   UNL     1     -11.647  15.252  64.590  1.00  0.00    -0.333 C  
HETATM    2  O   UNL     1     -12.545  14.297  65.140  1.00  0.00    -0.513 OA 
ENDROOT
BRANCH   2   3
HETATM    3  C   UNL     1     -12.012  13.394  66.058  1.00  0.00    -0.415 C  
HETATM    4  C   UNL     1     -11.643  12.178  65.618  1.00  0.00    -0.351 C  
HETATM    5  C   UNL     1     -11.094  11.193  66.598  1.00  0.00    -0.189 C  
HETATM    6  O   UNL     1     -11.915  14.882  67.942  1.00  0.00    -0.317 OA 
HETATM    7  O   UNL     1     -10.398  10.237  66.272  1.00  0.00    -0.230 OA 
HETATM    8  C   UNL     1     -11.893  13.732  67.517  1.00  0.00    -0.387 C  
HETATM    9  C   UNL     1     -11.465  11.384  68.028  1.00  0.00    -0.377 C  
HETATM   10  C   UNL     1     -12.125  12.948  69.903  1.00  0.00    -0.335 C  
HETATM   11  C   UNL     1     -11.812  12.601  68.475  1.00  0.00    -0.342 C  
BRANCH   4  12
HETATM   12  O   UNL     1     -11.779  11.892  64.259  1.00  0.00    -0.343 OA 
HETATM   13  C   UNL     1     -10.621  11.948  63.437  1.00  0.00    -0.430 C  
ENDBRANCH   4  12
BRANCH   9  14
HETATM   14  C   UNL     1     -11.435  10.146  68.869  1.00  0.00    -0.125 C  
BRANCH  14  15
HETATM   15  C   UNL     1     -10.179  10.044  69.739  1.00  0.00    -0.286 C  
BRANCH  15  16
HETATM   16  C   UNL     1     -10.504   9.538  71.144  1.00  0.00    -0.358 C  
BRANCH  16  17
HETATM   17  C   UNL     1      -9.379   8.672  71.699  1.00  0.00    -0.333 C  
BRANCH  17  18
HETATM   18  C   UNL     1      -9.614   7.196  71.443  1.00  0.00    -0.163 C  
BRANCH  18  19
HETATM   19  C   UNL     1     -11.103   6.900  71.576  1.00  0.00    -0.276 C  
BRANCH  19  20
HETATM   20  C   UNL     1     -11.631   6.253  70.308  1.00  0.00    -0.379 C  
BRANCH  20  21
HETATM   21  C   UNL     1     -10.538   6.180  69.252  1.00  0.00    -0.348 C  
BRANCH  21  22
HETATM   22  C   UNL     1     -11.114   6.516  67.885  1.00  0.00    -0.352 C  
BRANCH  22  23
HETATM   23  C   UNL     1     -10.066   7.185  67.004  1.00  0.00    -0.308 C  
BRANCH  23  24
HETATM   24  C   UNL     1      -8.707   7.175  67.690  1.00  0.00    -0.121 C  
BRANCH  24  25
HETATM   25  C   UNL     1      -7.658   6.506  66.817  1.00  0.00    -0.091 C  
HETATM   26  O   UNL     1      -8.219   5.363  66.188  1.00  0.00    -0.108 OA 
HETATM   27  H   UNL     1      -7.563   4.945  65.642  1.00  0.00     0.000 HD 
ENDBRANCH  24  25
ENDBRANCH  23  24
ENDBRANCH  22  23
ENDBRANCH  21  22
ENDBRANCH  20  21
ENDBRANCH  19  20
ENDBRANCH  18  19
ENDBRANCH  17  18
ENDBRANCH  16  17
ENDBRANCH  15  16
ENDBRANCH  14  15
ENDBRANCH   9  14
ENDBRANCH   2   3
TORSDOF 14
ENDMDL
MODEL       87
REMARK 921   NORMALIZED FREE ENERGY PREDICTED BY IDOCK:   -4.43 KCAL/MOL
REMARK 922        TOTAL FREE ENERGY PREDICTED BY IDOCK:   -9.87 KCAL/MOL
REMARK 923 INTER-LIGAND FREE ENERGY PREDICTED BY IDOCK:   -8.58 KCAL/MOL
REMARK 924 INTRA-LIGAND FREE ENERGY PREDICTED BY IDOCK:   -1.29 KCAL/MOL
REMARK 927      BINDING AFFINITY PREDICTED BY RF-SCORE:    0.00 PKD
ROOT
HETATM    1  C   UNL     1     -11.111   6.268  72.253  1.00  0.00    -0.271 C  
HETATM    2  O   UNL     1     -11.064   7.556  72.851  1.00  0.00    -0.337 OA 
ENDROOT
BRANCH   2   3
HETATM    3  C   UNL     1     -11.088   8.649  71.986  1.00  0.00    -0.367 C  
HETATM    4  C   UNL     1     -12.241   9.325  71.843  1.00  0.00    -0.378 C  
HETATM    5  C   UNL     1     -12.285  10.482  70.899  1.00  0.00    -0.388 C  
HETATM    6  O   UNL     1      -8.742   8.691  71.469  1.00  0.00    -0.170 OA 
HETATM    7  O   UNL     1     -13.125  11.373  70.966  1.00  0.00    -0.245 OA 
HETATM    8  C   UNL     1      -9.881   9.045  71.184  1.00  0.00    -0.300 C  
HETATM    9  C   UNL     1     -11.271  10.503  69.807  1.00  0.00    -0.361 C  
HETATM   10  C   UNL     1      -8.973   9.855  68.975  1.00  0.00    -0.160 C  
HETATM   11  C   UNL     1     -10.110   9.847  69.957  1.00  0.00    -0.308 C  
BRANCH   4  12
HETATM   12  O   UNL     1     -13.347   8.922  72.592  1.00  0.00    -0.433 OA 
HETATM   13  C   UNL     1     -14.396   8.228  71.930  1.00  0.00    -0.476 C  
ENDBRANCH   4  12
BRANCH   9  14
HETATM   14  C   UNL     1     -11.664  11.270  68.583  1.00  0.00    -0.391 C  
BRANCH  14  15
HETATM   15  C   UNL     1     -10.866  12.564  68.406  1.00  0.00    -0.266 C  
BRANCH  15  16
HETATM   16  C   UNL     1     -11.783  13.780  68.269  1.00  0.00    -0.394 C  
BRANCH  16  17
HETATM   17  C   UNL     1     -12.074  14.413  69.624  1.00  0.00    -0.381 C  
BRANCH  17  18
HETATM   18  C   UNL     1     -11.729  15.890  69.652  1.00  0.00    -0.322 C  
BRANCH  18  19
HETATM   19  C   UNL     1     -11.035  16.262  68.349  1.00  0.00    -0.351 C  
BRANCH  19  20
HETATM   20  C   UNL     1      -9.527  16.212  68.517  1.00  0.00    -0.216 C  
BRANCH  20  21
HETATM   21  C   UNL     1      -8.833  16.637  67.232  1.00  0.00    -0.206 C  
BRANCH  21  22
HETATM   22  C   UNL     1      -9.492  17.889  66.674  1.00  0.00    -0.303 C  
BRANCH  22  23
HETATM   23  C   UNL     1      -8.540  19.077  66.737  1.00  0.00    -0.313 C  
BRANCH  23  24
HETATM   24  C   UNL     1      -8.755  19.868  68.020  1.00  0.00    -0.322 C  
BRANCH  24  25
HETATM   25  C   UNL     1     -10.229  19.926  68.387  1.00  0.00    -0.433 C  
HETATM   26  O   UNL     1     -10.404  19.498  69.730  1.00  0.00    -0.492 OA 
HETATM   27  H   UNL     1     -11.325  19.535  69.960  1.00  0.00     0.000 HD 
ENDBRANCH  24  25
ENDBRANCH  23  24
ENDBRANCH  22  23
ENDBRANCH  21  22
ENDBRANCH  20  21
ENDBRANCH  19  20
ENDBRANCH  18  19
ENDBRANCH  17  18
ENDBRANCH  16  17
ENDBRANCH  15  16
ENDBRANCH  14  15
ENDBRANCH   9  14
ENDBRANCH   2   3
TORSDOF 14
ENDMDL
MODEL       88
REMARK 921   NORMALIZED FREE ENERGY PREDICTED BY IDOCK:   -4.42 KCAL/MOL
REMARK 922        TOTAL FREE ENERGY PREDICTED BY IDOCK:   -9.86 KCAL/MOL
REMARK 923 INTER-LIGAND FREE ENERGY PREDICTED BY IDOCK:   -7.84 KCAL/MOL
REMARK 924 INTRA-LIGAND FREE ENERGY PREDICTED BY IDOCK:   -2.03 KCAL/MOL
REMARK 927      BINDING AFFINITY PREDICTED BY RF-SCORE:    0.00 PKD
ROOT
HETATM    1  C   UNL     1     -11.329  14.835  69.380  1.00  0.00    -0.285 C  
HETATM    2  O   UNL     1     -12.318  13.879  69.018  1.00  0.00    -0.308 OA 
ENDROOT
BRANCH   2   3
HETATM    3  C   UNL     1     -11.946  12.921  68.076  1.00  0.00    -0.275 C  
HETATM    4  C   UNL     1     -11.519  11.724  68.517  1.00  0.00    -0.296 C  
HETATM    5  C   UNL     1     -11.095  10.698  67.517  1.00  0.00    -0.300 C  
HETATM    6  O   UNL     1     -12.608  14.137  66.112  1.00  0.00    -0.465 OA 
HETATM    7  O   UNL     1     -11.055   9.498  67.762  1.00  0.00    -0.186 OA 
HETATM    8  C   UNL     1     -11.965  13.216  66.603  1.00  0.00    -0.389 C  
HETATM    9  C   UNL     1     -10.663  11.195  66.180  1.00  0.00    -0.285 C  
HETATM   10  C   UNL     1     -10.818  12.957  64.372  1.00  0.00    -0.404 C  
HETATM   11  C   UNL     1     -11.106  12.379  65.729  1.00  0.00    -0.351 C  
BRANCH   4  12
HETATM   12  O   UNL     1     -11.501  11.489  69.892  1.00  0.00    -0.289 OA 
HETATM   13  C   UNL     1     -12.559  10.727  70.461  1.00  0.00    -0.336 C  
ENDBRANCH   4  12
BRANCH   9  14
HETATM   14  C   UNL     1      -9.720  10.300  65.438  1.00  0.00    -0.340 C  
BRANCH  14  15
HETATM   15  C   UNL     1      -8.270  10.788  65.485  1.00  0.00    -0.104 C  
BRANCH  15  16
HETATM   16  C   UNL     1      -7.788  10.992  66.921  1.00  0.00    -0.140 C  
BRANCH  16  17
HETATM   17  C   UNL     1      -7.203  12.385  67.120  1.00  0.00    -0.081 C  
BRANCH  17  18
HETATM   18  C   UNL     1      -7.967  13.183  68.159  1.00  0.00    -0.154 C  
BRANCH  18  19
HETATM   19  C   UNL     1      -7.857  14.665  67.825  1.00  0.00    -0.165 C  
BRANCH  19  20
HETATM   20  C   UNL     1      -8.823  15.033  66.714  1.00  0.00    -0.299 C  
BRANCH  20  21
HETATM   21  C   UNL     1      -8.696  16.507  66.363  1.00  0.00    -0.357 C  
BRANCH  21  22
HETATM   22  C   UNL     1     -10.073  17.099  66.099  1.00  0.00    -0.317 C  
BRANCH  22  23
HETATM   23  C   UNL     1     -10.531  17.951  67.276  1.00  0.00    -0.373 C  
BRANCH  23  24
HETATM   24  C   UNL     1     -10.751  19.393  66.839  1.00  0.00    -0.570 C  
BRANCH  24  25
HETATM   25  C   UNL     1      -9.677  20.308  67.404  1.00  0.00    -0.444 C  
HETATM   26  O   UNL     1      -8.862  19.582  68.313  1.00  0.00    -0.322 OA 
HETATM   27  H   UNL     1      -8.190  20.154  68.666  1.00  0.00     0.000 HD 
ENDBRANCH  24  25
ENDBRANCH  23  24
ENDBRANCH  22  23
ENDBRANCH  21  22
ENDBRANCH  20  21
ENDBRANCH  19  20
ENDBRANCH  18  19
ENDBRANCH  17  18
ENDBRANCH  16  17
ENDBRANCH  15  16
ENDBRANCH  14  15
ENDBRANCH   9  14
ENDBRANCH   2   3
TORSDOF 14
ENDMDL
MODEL       89
REMARK 921   NORMALIZED FREE ENERGY PREDICTED BY IDOCK:   -4.42 KCAL/MOL
REMARK 922        TOTAL FREE ENERGY PREDICTED BY IDOCK:   -9.86 KCAL/MOL
REMARK 923 INTER-LIGAND FREE ENERGY PREDICTED BY IDOCK:   -8.40 KCAL/MOL
REMARK 924 INTRA-LIGAND FREE ENERGY PREDICTED BY IDOCK:   -1.46 KCAL/MOL
REMARK 927      BINDING AFFINITY PREDICTED BY RF-SCORE:    0.00 PKD
ROOT
HETATM    1  C   UNL     1     -12.021  13.166  63.652  1.00  0.00    -0.514 C  
HETATM    2  O   UNL     1     -10.652  12.810  63.796  1.00  0.00    -0.412 OA 
ENDROOT
BRANCH   2   3
HETATM    3  C   UNL     1     -10.367  11.767  64.677  1.00  0.00    -0.290 C  
HETATM    4  C   UNL     1      -9.816  10.645  64.180  1.00  0.00    -0.335 C  
HETATM    5  C   UNL     1      -9.529   9.512  65.111  1.00  0.00    -0.236 C  
HETATM    6  O   UNL     1     -10.919  12.916  66.713  1.00  0.00    -0.264 OA 
HETATM    7  O   UNL     1      -8.715   8.629  64.863  1.00  0.00    -0.169 OA 
HETATM    8  C   UNL     1     -10.707  11.855  66.137  1.00  0.00    -0.278 C  
HETATM    9  C   UNL     1     -10.319   9.457  66.373  1.00  0.00    -0.237 C  
HETATM   10  C   UNL     1     -11.594  10.678  68.184  1.00  0.00    -0.217 C  
HETATM   11  C   UNL     1     -10.851  10.579  66.882  1.00  0.00    -0.252 C  
BRANCH   4  12
HETATM   12  O   UNL     1      -9.526  10.592  62.817  1.00  0.00    -0.291 OA 
HETATM   13  C   UNL     1      -8.194  10.863  62.398  1.00  0.00    -0.213 C  
ENDBRANCH   4  12
BRANCH   9  14
HETATM   14  C   UNL     1     -10.471   8.094  66.976  1.00  0.00    -0.396 C  
BRANCH  14  15
HETATM   15  C   UNL     1      -9.512   7.846  68.143  1.00  0.00    -0.154 C  
BRANCH  15  16
HETATM   16  C   UNL     1      -9.836   6.543  68.873  1.00  0.00    -0.142 C  
BRANCH  16  17
HETATM   17  C   UNL     1     -11.220   6.591  69.511  1.00  0.00    -0.434 C  
BRANCH  17  18
HETATM   18  C   UNL     1     -11.162   6.979  70.977  1.00  0.00    -0.309 C  
BRANCH  18  19
HETATM   19  C   UNL     1     -11.348   8.485  71.099  1.00  0.00    -0.319 C  
BRANCH  19  20
HETATM   20  C   UNL     1     -12.287   8.813  72.246  1.00  0.00    -0.448 C  
BRANCH  20  21
HETATM   21  C   UNL     1     -13.331   9.829  71.808  1.00  0.00    -0.506 C  
BRANCH  21  22
HETATM   22  C   UNL     1     -12.648  11.085  71.288  1.00  0.00    -0.517 C  
BRANCH  22  23
HETATM   23  C   UNL     1     -13.075  12.307  72.091  1.00  0.00    -0.406 C  
BRANCH  23  24
HETATM   24  C   UNL     1     -13.244  13.514  71.179  1.00  0.00    -0.218 C  
BRANCH  24  25
HETATM   25  C   UNL     1     -12.128  13.585  70.149  1.00  0.00    -0.354 C  
HETATM   26  O   UNL     1     -12.631  14.129  68.937  1.00  0.00    -0.485 OA 
HETATM   27  H   UNL     1     -11.933  14.173  68.294  1.00  0.00     0.000 HD 
ENDBRANCH  24  25
ENDBRANCH  23  24
ENDBRANCH  22  23
ENDBRANCH  21  22
ENDBRANCH  20  21
ENDBRANCH  19  20
ENDBRANCH  18  19
ENDBRANCH  17  18
ENDBRANCH  16  17
ENDBRANCH  15  16
ENDBRANCH  14  15
ENDBRANCH   9  14
ENDBRANCH   2   3
TORSDOF 14
ENDMDL
MODEL       90
REMARK 921   NORMALIZED FREE ENERGY PREDICTED BY IDOCK:   -4.41 KCAL/MOL
REMARK 922        TOTAL FREE ENERGY PREDICTED BY IDOCK:   -9.84 KCAL/MOL
REMARK 923 INTER-LIGAND FREE ENERGY PREDICTED BY IDOCK:   -7.46 KCAL/MOL
REMARK 924 INTRA-LIGAND FREE ENERGY PREDICTED BY IDOCK:   -2.38 KCAL/MOL
REMARK 927      BINDING AFFINITY PREDICTED BY RF-SCORE:    0.00 PKD
ROOT
HETATM    1  C   UNL     1      -8.621  10.444  65.267  1.00  0.00    -0.176 C  
HETATM    2  O   UNL     1     -10.031  10.472  65.086  1.00  0.00    -0.267 OA 
ENDROOT
BRANCH   2   3
HETATM    3  C   UNL     1     -10.768  11.193  66.022  1.00  0.00    -0.211 C  
HETATM    4  C   UNL     1     -11.166  12.437  65.701  1.00  0.00    -0.322 C  
HETATM    5  C   UNL     1     -11.936  13.229  66.707  1.00  0.00    -0.382 C  
HETATM    6  O   UNL     1     -11.024   9.436  67.641  1.00  0.00    -0.223 OA 
HETATM    7  O   UNL     1     -12.651  14.179  66.410  1.00  0.00    -0.427 OA 
HETATM    8  C   UNL     1     -11.077  10.634  67.382  1.00  0.00    -0.272 C  
HETATM    9  C   UNL     1     -11.770  12.848  68.138  1.00  0.00    -0.395 C  
HETATM   10  C   UNL     1     -11.273  11.063  69.859  1.00  0.00    -0.327 C  
HETATM   11  C   UNL     1     -11.395  11.601  68.461  1.00  0.00    -0.332 C  
BRANCH   4  12
HETATM   12  O   UNL     1     -10.851  12.931  64.436  1.00  0.00    -0.335 OA 
HETATM   13  C   UNL     1     -11.775  12.717  63.376  1.00  0.00    -0.488 C  
ENDBRANCH   4  12
BRANCH   9  14
HETATM   14  C   UNL     1     -12.029  13.942  69.127  1.00  0.00    -0.404 C  
BRANCH  14  15
HETATM   15  C   UNL     1     -10.751  14.472  69.782  1.00  0.00    -0.075 C  
BRANCH  15  16
HETATM   16  C   UNL     1     -10.742  15.999  69.851  1.00  0.00    -0.334 C  
BRANCH  16  17
HETATM   17  C   UNL     1     -11.294  16.618  68.572  1.00  0.00    -0.152 C  
BRANCH  17  18
HETATM   18  C   UNL     1     -10.207  17.260  67.731  1.00  0.00    -0.332 C  
BRANCH  18  19
HETATM   19  C   UNL     1     -10.166  16.580  66.369  1.00  0.00    -0.324 C  
BRANCH  19  20
HETATM   20  C   UNL     1      -8.796  15.980  66.115  1.00  0.00    -0.366 C  
BRANCH  20  21
HETATM   21  C   UNL     1      -8.590  14.740  66.972  1.00  0.00    -0.260 C  
BRANCH  21  22
HETATM   22  C   UNL     1      -7.213  14.778  67.620  1.00  0.00    -0.208 C  
BRANCH  22  23
HETATM   23  C   UNL     1      -6.694  16.208  67.706  1.00  0.00    -0.169 C  
BRANCH  23  24
HETATM   24  C   UNL     1      -6.723  16.701  69.146  1.00  0.00    -0.217 C  
BRANCH  24  25
HETATM   25  C   UNL     1      -5.606  17.698  69.407  1.00  0.00    -0.208 C  
HETATM   26  O   UNL     1      -5.424  17.857  70.807  1.00  0.00    -0.256 OA 
HETATM   27  H   UNL     1      -4.726  18.480  70.970  1.00  0.00     0.000 HD 
ENDBRANCH  24  25
ENDBRANCH  23  24
ENDBRANCH  22  23
ENDBRANCH  21  22
ENDBRANCH  20  21
ENDBRANCH  19  20
ENDBRANCH  18  19
ENDBRANCH  17  18
ENDBRANCH  16  17
ENDBRANCH  15  16
ENDBRANCH  14  15
ENDBRANCH   9  14
ENDBRANCH   2   3
TORSDOF 14
ENDMDL
MODEL       91
REMARK 921   NORMALIZED FREE ENERGY PREDICTED BY IDOCK:   -4.40 KCAL/MOL
REMARK 922        TOTAL FREE ENERGY PREDICTED BY IDOCK:   -9.82 KCAL/MOL
REMARK 923 INTER-LIGAND FREE ENERGY PREDICTED BY IDOCK:   -8.01 KCAL/MOL
REMARK 924 INTRA-LIGAND FREE ENERGY PREDICTED BY IDOCK:   -1.81 KCAL/MOL
REMARK 927      BINDING AFFINITY PREDICTED BY RF-SCORE:    0.00 PKD
ROOT
HETATM    1  C   UNL     1     -10.430  16.375  67.809  1.00  0.00    -0.300 C  
HETATM    2  O   UNL     1     -11.515  15.980  68.638  1.00  0.00    -0.370 OA 
ENDROOT
BRANCH   2   3
HETATM    3  C   UNL     1     -11.766  14.612  68.730  1.00  0.00    -0.324 C  
HETATM    4  C   UNL     1     -11.951  14.077  69.950  1.00  0.00    -0.336 C  
HETATM    5  C   UNL     1     -12.196  12.608  70.062  1.00  0.00    -0.197 C  
HETATM    6  O   UNL     1     -11.927  14.163  66.375  1.00  0.00    -0.400 OA 
HETATM    7  O   UNL     1     -12.735  12.088  71.034  1.00  0.00    -0.334 OA 
HETATM    8  C   UNL     1     -11.783  13.731  67.513  1.00  0.00    -0.375 C  
HETATM    9  C   UNL     1     -11.710  11.753  68.942  1.00  0.00    -0.384 C  
HETATM   10  C   UNL     1     -11.147  11.517  66.488  1.00  0.00    -0.341 C  
HETATM   11  C   UNL     1     -11.547  12.281  67.718  1.00  0.00    -0.416 C  
BRANCH   4  12
HETATM   12  O   UNL     1     -11.915  14.921  71.060  1.00  0.00    -0.283 OA 
HETATM   13  C   UNL     1     -13.136  15.491  71.515  1.00  0.00    -0.496 C  
ENDBRANCH   4  12
BRANCH   9  14
HETATM   14  C   UNL     1     -11.417  10.330  69.302  1.00  0.00    -0.223 C  
BRANCH  14  15
HETATM   15  C   UNL     1     -10.079  10.158  70.024  1.00  0.00    -0.241 C  
BRANCH  15  16
HETATM   16  C   UNL     1      -8.964   9.754  69.060  1.00  0.00    -0.154 C  
BRANCH  16  17
HETATM   17  C   UNL     1      -9.455   8.742  68.032  1.00  0.00    -0.158 C  
BRANCH  17  18
HETATM   18  C   UNL     1      -8.619   7.476  68.031  1.00  0.00    -0.122 C  
BRANCH  18  19
HETATM   19  C   UNL     1      -9.408   6.360  68.705  1.00  0.00    -0.124 C  
BRANCH  19  20
HETATM   20  C   UNL     1     -10.899   6.616  68.583  1.00  0.00    -0.319 C  
BRANCH  20  21
HETATM   21  C   UNL     1     -11.576   6.480  69.939  1.00  0.00    -0.433 C  
BRANCH  21  22
HETATM   22  C   UNL     1     -10.667   5.729  70.901  1.00  0.00    -0.333 C  
BRANCH  22  23
HETATM   23  C   UNL     1     -11.051   6.018  72.346  1.00  0.00    -0.321 C  
BRANCH  23  24
HETATM   24  C   UNL     1     -11.067   7.518  72.606  1.00  0.00    -0.398 C  
BRANCH  24  25
HETATM   25  C   UNL     1      -9.662   8.050  72.837  1.00  0.00    -0.283 C  
HETATM   26  O   UNL     1      -9.173   7.581  74.084  1.00  0.00    -0.339 OA 
HETATM   27  H   UNL     1      -8.294   7.912  74.229  1.00  0.00     0.000 HD 
ENDBRANCH  24  25
ENDBRANCH  23  24
ENDBRANCH  22  23
ENDBRANCH  21  22
ENDBRANCH  20  21
ENDBRANCH  19  20
ENDBRANCH  18  19
ENDBRANCH  17  18
ENDBRANCH  16  17
ENDBRANCH  15  16
ENDBRANCH  14  15
ENDBRANCH   9  14
ENDBRANCH   2   3
TORSDOF 14
ENDMDL
MODEL       92
REMARK 921   NORMALIZED FREE ENERGY PREDICTED BY IDOCK:   -4.38 KCAL/MOL
REMARK 922        TOTAL FREE ENERGY PREDICTED BY IDOCK:   -9.79 KCAL/MOL
REMARK 923 INTER-LIGAND FREE ENERGY PREDICTED BY IDOCK:   -7.83 KCAL/MOL
REMARK 924 INTRA-LIGAND FREE ENERGY PREDICTED BY IDOCK:   -1.96 KCAL/MOL
REMARK 927      BINDING AFFINITY PREDICTED BY RF-SCORE:    0.00 PKD
ROOT
HETATM    1  C   UNL     1     -10.398  15.025  68.500  1.00  0.00    -0.230 C  
HETATM    2  O   UNL     1      -9.640  14.597  67.376  1.00  0.00    -0.210 OA 
ENDROOT
BRANCH   2   3
HETATM    3  C   UNL     1      -9.609  13.226  67.129  1.00  0.00    -0.240 C  
HETATM    4  C   UNL     1     -10.369  12.740  66.131  1.00  0.00    -0.269 C  
HETATM    5  C   UNL     1     -10.362  11.268  65.873  1.00  0.00    -0.253 C  
HETATM    6  O   UNL     1      -7.866  12.665  68.685  1.00  0.00    -0.118 OA 
HETATM    7  O   UNL     1     -10.695  10.772  64.802  1.00  0.00    -0.270 OA 
HETATM    8  C   UNL     1      -8.794  12.290  67.977  1.00  0.00    -0.182 C  
HETATM    9  C   UNL     1      -9.969  10.384  67.007  1.00  0.00    -0.252 C  
HETATM   10  C   UNL     1      -8.657  10.059  69.144  1.00  0.00    -0.158 C  
HETATM   11  C   UNL     1      -9.193  10.862  67.992  1.00  0.00    -0.156 C  
BRANCH   4  12
HETATM   12  O   UNL     1     -11.123  13.634  65.372  1.00  0.00    -0.292 OA 
HETATM   13  C   UNL     1     -12.516  13.740  65.639  1.00  0.00    -0.503 C  
ENDBRANCH   4  12
BRANCH   9  14
HETATM   14  C   UNL     1     -10.516   8.991  66.952  1.00  0.00    -0.293 C  
BRANCH  14  15
HETATM   15  C   UNL     1      -9.560   8.000  66.285  1.00  0.00    -0.223 C  
BRANCH  15  16
HETATM   16  C   UNL     1      -9.605   6.629  66.959  1.00  0.00    -0.183 C  
BRANCH  16  17
HETATM   17  C   UNL     1      -8.509   6.486  68.008  1.00  0.00    -0.119 C  
BRANCH  17  18
HETATM   18  C   UNL     1      -9.068   6.169  69.382  1.00  0.00    -0.135 C  
BRANCH  18  19
HETATM   19  C   UNL     1     -10.493   5.652  69.230  1.00  0.00    -0.356 C  
BRANCH  19  20
HETATM   20  C   UNL     1     -11.400   6.279  70.274  1.00  0.00    -0.457 C  
BRANCH  20  21
HETATM   21  C   UNL     1     -11.308   7.796  70.217  1.00  0.00    -0.174 C  
BRANCH  21  22
HETATM   22  C   UNL     1     -11.454   8.378  71.616  1.00  0.00    -0.349 C  
BRANCH  22  23
HETATM   23  C   UNL     1     -11.704   9.879  71.555  1.00  0.00    -0.414 C  
BRANCH  23  24
HETATM   24  C   UNL     1     -13.182  10.167  71.333  1.00  0.00    -0.474 C  
BRANCH  24  25
HETATM   25  C   UNL     1     -14.042   8.999  71.788  1.00  0.00    -0.314 C  
HETATM   26  O   UNL     1     -14.087   8.963  73.207  1.00  0.00    -1.211 OA 
HETATM   27  H   UNL     1     -14.625   8.233  73.491  1.00  0.00     0.000 HD 
ENDBRANCH  24  25
ENDBRANCH  23  24
ENDBRANCH  22  23
ENDBRANCH  21  22
ENDBRANCH  20  21
ENDBRANCH  19  20
ENDBRANCH  18  19
ENDBRANCH  17  18
ENDBRANCH  16  17
ENDBRANCH  15  16
ENDBRANCH  14  15
ENDBRANCH   9  14
ENDBRANCH   2   3
TORSDOF 14
ENDMDL
MODEL       93
REMARK 921   NORMALIZED FREE ENERGY PREDICTED BY IDOCK:   -4.38 KCAL/MOL
REMARK 922        TOTAL FREE ENERGY PREDICTED BY IDOCK:   -9.79 KCAL/MOL
REMARK 923 INTER-LIGAND FREE ENERGY PREDICTED BY IDOCK:   -7.43 KCAL/MOL
REMARK 924 INTRA-LIGAND FREE ENERGY PREDICTED BY IDOCK:   -2.36 KCAL/MOL
REMARK 927      BINDING AFFINITY PREDICTED BY RF-SCORE:    0.00 PKD
ROOT
HETATM    1  C   UNL     1     -12.763  12.110  63.506  1.00  0.00    -0.431 C  
HETATM    2  O   UNL     1     -11.567  12.744  63.938  1.00  0.00    -0.384 OA 
ENDROOT
BRANCH   2   3
HETATM    3  C   UNL     1     -10.877  12.132  64.984  1.00  0.00    -0.300 C  
HETATM    4  C   UNL     1      -9.790  11.397  64.688  1.00  0.00    -0.259 C  
HETATM    5  C   UNL     1      -9.058  10.717  65.798  1.00  0.00    -0.186 C  
HETATM    6  O   UNL     1     -12.123  13.105  66.793  1.00  0.00    -0.382 OA 
HETATM    7  O   UNL     1      -7.890  10.354  65.710  1.00  0.00    -0.140 OA 
HETATM    8  C   UNL     1     -11.350  12.236  66.406  1.00  0.00    -0.354 C  
HETATM    9  C   UNL     1      -9.826  10.440  67.045  1.00  0.00    -0.234 C  
HETATM   10  C   UNL     1     -11.707  11.070  68.614  1.00  0.00    -0.367 C  
HETATM   11  C   UNL     1     -10.898  11.187  67.353  1.00  0.00    -0.317 C  
BRANCH   4  12
HETATM   12  O   UNL     1      -9.387  11.311  63.356  1.00  0.00    -0.251 OA 
HETATM   13  C   UNL     1      -9.393  10.035  62.729  1.00  0.00    -0.260 C  
ENDBRANCH   4  12
BRANCH   9  14
HETATM   14  C   UNL     1      -9.323   9.293  67.867  1.00  0.00    -0.143 C  
BRANCH  14  15
HETATM   15  C   UNL     1      -8.543   9.741  69.105  1.00  0.00    -0.153 C  
BRANCH  15  16
HETATM   16  C   UNL     1      -7.084   9.292  69.048  1.00  0.00    -0.067 C  
BRANCH  16  17
HETATM   17  C   UNL     1      -6.154  10.457  68.732  1.00  0.00    -0.040 C  
BRANCH  17  18
HETATM   18  C   UNL     1      -6.814  11.800  68.980  1.00  0.00    -0.106 C  
BRANCH  18  19
HETATM   19  C   UNL     1      -6.309  12.799  67.946  1.00  0.00    -0.118 C  
BRANCH  19  20
HETATM   20  C   UNL     1      -7.469  13.570  67.342  1.00  0.00    -0.136 C  
BRANCH  20  21
HETATM   21  C   UNL     1      -8.367  14.126  68.437  1.00  0.00    -0.161 C  
BRANCH  21  22
HETATM   22  C   UNL     1      -9.102  15.358  67.930  1.00  0.00    -0.178 C  
BRANCH  22  23
HETATM   23  C   UNL     1      -9.240  15.321  66.413  1.00  0.00    -0.342 C  
BRANCH  23  24
HETATM   24  C   UNL     1     -10.456  16.122  65.967  1.00  0.00    -0.349 C  
BRANCH  24  25
HETATM   25  C   UNL     1     -10.940  15.669  64.600  1.00  0.00    -0.325 C  
HETATM   26  O   UNL     1     -11.559  16.756  63.928  1.00  0.00    -1.451 OA 
HETATM   27  H   UNL     1     -11.862  16.473  63.073  1.00  0.00     0.000 HD 
ENDBRANCH  24  25
ENDBRANCH  23  24
ENDBRANCH  22  23
ENDBRANCH  21  22
ENDBRANCH  20  21
ENDBRANCH  19  20
ENDBRANCH  18  19
ENDBRANCH  17  18
ENDBRANCH  16  17
ENDBRANCH  15  16
ENDBRANCH  14  15
ENDBRANCH   9  14
ENDBRANCH   2   3
TORSDOF 14
ENDMDL
MODEL       94
REMARK 921   NORMALIZED FREE ENERGY PREDICTED BY IDOCK:   -4.36 KCAL/MOL
REMARK 922        TOTAL FREE ENERGY PREDICTED BY IDOCK:   -9.75 KCAL/MOL
REMARK 923 INTER-LIGAND FREE ENERGY PREDICTED BY IDOCK:   -7.99 KCAL/MOL
REMARK 924 INTRA-LIGAND FREE ENERGY PREDICTED BY IDOCK:   -1.75 KCAL/MOL
REMARK 927      BINDING AFFINITY PREDICTED BY RF-SCORE:    0.00 PKD
ROOT
HETATM    1  C   UNL     1     -10.346   9.500  66.269  1.00  0.00    -0.156 C  
HETATM    2  O   UNL     1     -11.379  10.375  66.705  1.00  0.00    -0.024 OA 
ENDROOT
BRANCH   2   3
HETATM    3  C   UNL     1     -11.106  11.740  66.651  1.00  0.00    -0.310 C  
HETATM    4  C   UNL     1     -11.742  12.483  65.727  1.00  0.00    -0.426 C  
HETATM    5  C   UNL     1     -11.439  13.943  65.644  1.00  0.00    -0.318 C  
HETATM    6  O   UNL     1      -9.705  11.858  68.599  1.00  0.00    -0.184 OA 
HETATM    7  O   UNL     1     -12.196  14.759  65.129  1.00  0.00    -0.308 OA 
HETATM    8  C   UNL     1     -10.093  12.378  67.559  1.00  0.00    -0.202 C  
HETATM    9  C   UNL     1     -10.124  14.393  66.182  1.00  0.00    -0.323 C  
HETATM   10  C   UNL     1      -8.217  14.044  67.806  1.00  0.00    -0.169 C  
HETATM   11  C   UNL     1      -9.498  13.664  67.120  1.00  0.00    -0.244 C  
BRANCH   4  12
HETATM   12  O   UNL     1     -12.667  11.857  64.891  1.00  0.00    -0.281 OA 
HETATM   13  C   UNL     1     -12.421  11.858  63.490  1.00  0.00    -0.492 C  
ENDBRANCH   4  12
BRANCH   9  14
HETATM   14  C   UNL     1      -9.587  15.658  65.589  1.00  0.00    -0.319 C  
BRANCH  14  15
HETATM   15  C   UNL     1     -10.156  16.916  66.248  1.00  0.00    -0.335 C  
BRANCH  15  16
HETATM   16  C   UNL     1      -9.067  17.954  66.522  1.00  0.00    -0.276 C  
BRANCH  16  17
HETATM   17  C   UNL     1      -8.962  18.272  68.009  1.00  0.00    -0.301 C  
BRANCH  17  18
HETATM   18  C   UNL     1      -9.007  17.021  68.866  1.00  0.00    -0.210 C  
BRANCH  18  19
HETATM   19  C   UNL     1     -10.286  17.032  69.693  1.00  0.00    -0.070 C  
BRANCH  19  20
HETATM   20  C   UNL     1     -10.777  15.616  69.931  1.00  0.00    -0.328 C  
BRANCH  20  21
HETATM   21  C   UNL     1     -12.051  15.626  70.762  1.00  0.00    -0.454 C  
BRANCH  21  22
HETATM   22  C   UNL     1     -11.732  15.285  72.209  1.00  0.00    -0.539 C  
BRANCH  22  23
HETATM   23  C   UNL     1     -12.904  14.571  72.870  1.00  0.00    -0.534 C  
BRANCH  23  24
HETATM   24  C   UNL     1     -13.603  13.657  71.874  1.00  0.00    -0.512 C  
BRANCH  24  25
HETATM   25  C   UNL     1     -12.978  12.271  71.868  1.00  0.00    -0.305 C  
HETATM   26  O   UNL     1     -12.209  12.099  70.687  1.00  0.00    -0.372 OA 
HETATM   27  H   UNL     1     -11.818  11.233  70.684  1.00  0.00     0.000 HD 
ENDBRANCH  24  25
ENDBRANCH  23  24
ENDBRANCH  22  23
ENDBRANCH  21  22
ENDBRANCH  20  21
ENDBRANCH  19  20
ENDBRANCH  18  19
ENDBRANCH  17  18
ENDBRANCH  16  17
ENDBRANCH  15  16
ENDBRANCH  14  15
ENDBRANCH   9  14
ENDBRANCH   2   3
TORSDOF 14
ENDMDL
MODEL       95
REMARK 921   NORMALIZED FREE ENERGY PREDICTED BY IDOCK:   -4.36 KCAL/MOL
REMARK 922        TOTAL FREE ENERGY PREDICTED BY IDOCK:   -9.75 KCAL/MOL
REMARK 923 INTER-LIGAND FREE ENERGY PREDICTED BY IDOCK:   -8.67 KCAL/MOL
REMARK 924 INTRA-LIGAND FREE ENERGY PREDICTED BY IDOCK:   -1.08 KCAL/MOL
REMARK 927      BINDING AFFINITY PREDICTED BY RF-SCORE:    0.00 PKD
ROOT
HETATM    1  C   UNL     1     -10.500   7.101  73.815  1.00  0.00    -0.329 C  
HETATM    2  O   UNL     1     -11.436   6.845  72.777  1.00  0.00    -0.235 OA 
ENDROOT
BRANCH   2   3
HETATM    3  C   UNL     1     -11.441   7.737  71.706  1.00  0.00    -0.266 C  
HETATM    4  C   UNL     1     -10.613   7.500  70.673  1.00  0.00    -0.224 C  
HETATM    5  C   UNL     1     -10.591   8.463  69.531  1.00  0.00    -0.213 C  
HETATM    6  O   UNL     1     -13.280   9.098  72.439  1.00  0.00    -0.426 OA 
HETATM    7  O   UNL     1     -10.185   8.170  68.412  1.00  0.00    -0.199 OA 
HETATM    8  C   UNL     1     -12.304   8.967  71.709  1.00  0.00    -0.367 C  
HETATM    9  C   UNL     1     -11.053   9.852  69.810  1.00  0.00    -0.294 C  
HETATM   10  C   UNL     1     -12.503  11.421  71.163  1.00  0.00    -0.465 C  
HETATM   11  C   UNL     1     -11.897  10.088  70.827  1.00  0.00    -0.435 C  
BRANCH   4  12
HETATM   12  O   UNL     1      -9.815   6.356  70.708  1.00  0.00    -0.182 OA 
HETATM   13  C   UNL     1      -8.403   6.517  70.753  1.00  0.00    -0.130 C  
ENDBRANCH   4  12
BRANCH   9  14
HETATM   14  C   UNL     1     -10.494  10.907  68.905  1.00  0.00    -0.228 C  
BRANCH  14  15
HETATM   15  C   UNL     1     -11.276  11.048  67.597  1.00  0.00    -0.373 C  
BRANCH  15  16
HETATM   16  C   UNL     1     -11.888  12.441  67.450  1.00  0.00    -0.360 C  
BRANCH  16  17
HETATM   17  C   UNL     1     -12.037  12.833  65.985  1.00  0.00    -0.458 C  
BRANCH  17  18
HETATM   18  C   UNL     1     -11.509  14.228  65.709  1.00  0.00    -0.335 C  
BRANCH  18  19
HETATM   19  C   UNL     1     -10.002  14.155  65.502  1.00  0.00    -0.323 C  
BRANCH  19  20
HETATM   20  C   UNL     1      -9.299  15.196  66.355  1.00  0.00    -0.332 C  
BRANCH  20  21
HETATM   21  C   UNL     1      -9.937  15.276  67.733  1.00  0.00    -0.224 C  
BRANCH  21  22
HETATM   22  C   UNL     1     -10.133  16.731  68.132  1.00  0.00    -0.282 C  
BRANCH  22  23
HETATM   23  C   UNL     1     -10.347  17.606  66.903  1.00  0.00    -0.329 C  
BRANCH  23  24
HETATM   24  C   UNL     1     -10.658  19.038  67.314  1.00  0.00    -0.554 C  
BRANCH  24  25
HETATM   25  C   UNL     1     -10.205  20.024  66.249  1.00  0.00    -0.478 C  
HETATM   26  O   UNL     1      -9.325  20.978  66.826  1.00  0.00    -0.624 OA 
HETATM   27  H   UNL     1      -9.041  21.594  66.161  1.00  0.00     0.000 HD 
ENDBRANCH  24  25
ENDBRANCH  23  24
ENDBRANCH  22  23
ENDBRANCH  21  22
ENDBRANCH  20  21
ENDBRANCH  19  20
ENDBRANCH  18  19
ENDBRANCH  17  18
ENDBRANCH  16  17
ENDBRANCH  15  16
ENDBRANCH  14  15
ENDBRANCH   9  14
ENDBRANCH   2   3
TORSDOF 14
ENDMDL
MODEL       96
REMARK 921   NORMALIZED FREE ENERGY PREDICTED BY IDOCK:   -4.36 KCAL/MOL
REMARK 922        TOTAL FREE ENERGY PREDICTED BY IDOCK:   -9.75 KCAL/MOL
REMARK 923 INTER-LIGAND FREE ENERGY PREDICTED BY IDOCK:   -7.70 KCAL/MOL
REMARK 924 INTRA-LIGAND FREE ENERGY PREDICTED BY IDOCK:   -2.04 KCAL/MOL
REMARK 927      BINDING AFFINITY PREDICTED BY RF-SCORE:    0.00 PKD
ROOT
HETATM    1  C   UNL     1     -11.273   6.036  70.877  1.00  0.00    -0.265 C  
HETATM    2  O   UNL     1     -11.543   7.373  70.479  1.00  0.00    -0.283 OA 
ENDROOT
BRANCH   2   3
HETATM    3  C   UNL     1     -10.497   8.069  69.876  1.00  0.00    -0.233 C  
HETATM    4  C   UNL     1      -9.673   8.789  70.660  1.00  0.00    -0.197 C  
HETATM    5  C   UNL     1      -8.563   9.559  70.022  1.00  0.00    -0.215 C  
HETATM    6  O   UNL     1     -10.803   7.228  67.646  1.00  0.00    -0.228 OA 
HETATM    7  O   UNL     1      -7.563   9.923  70.630  1.00  0.00    -0.288 OA 
HETATM    8  C   UNL     1     -10.307   8.072  68.386  1.00  0.00    -0.199 C  
HETATM    9  C   UNL     1      -8.731   9.924  68.587  1.00  0.00    -0.124 C  
HETATM   10  C   UNL     1      -9.727   9.401  66.323  1.00  0.00    -0.330 C  
HETATM   11  C   UNL     1      -9.535   9.194  67.798  1.00  0.00    -0.160 C  
BRANCH   4  12
HETATM   12  O   UNL     1      -9.886   8.775  72.038  1.00  0.00    -0.300 OA 
HETATM   13  C   UNL     1      -8.980   8.044  72.855  1.00  0.00    -0.239 C  
ENDBRANCH   4  12
BRANCH   9  14
HETATM   14  C   UNL     1      -7.971  11.135  68.141  1.00  0.00    -0.125 C  
BRANCH  14  15
HETATM   15  C   UNL     1      -8.775  12.430  68.277  1.00  0.00    -0.175 C  
BRANCH  15  16
HETATM   16  C   UNL     1      -8.039  13.619  67.661  1.00  0.00    -0.179 C  
BRANCH  16  17
HETATM   17  C   UNL     1      -8.679  14.941  68.068  1.00  0.00    -0.165 C  
BRANCH  17  18
HETATM   18  C   UNL     1      -9.106  15.764  66.867  1.00  0.00    -0.259 C  
BRANCH  18  19
HETATM   19  C   UNL     1     -10.610  15.997  66.936  1.00  0.00    -0.300 C  
BRANCH  19  20
HETATM   20  C   UNL     1     -11.328  15.148  65.903  1.00  0.00    -0.225 C  
BRANCH  20  21
HETATM   21  C   UNL     1     -12.157  14.069  66.583  1.00  0.00    -0.487 C  
BRANCH  21  22
HETATM   22  C   UNL     1     -11.637  12.693  66.197  1.00  0.00    -0.445 C  
BRANCH  22  23
HETATM   23  C   UNL     1     -10.717  12.781  64.986  1.00  0.00    -0.321 C  
BRANCH  23  24
HETATM   24  C   UNL     1     -11.125  11.764  63.930  1.00  0.00    -0.482 C  
BRANCH  24  25
HETATM   25  C   UNL     1     -12.392  12.198  63.211  1.00  0.00    -0.436 C  
HETATM   26  O   UNL     1     -12.368  13.603  63.006  1.00  0.00    -1.041 OA 
HETATM   27  H   UNL     1     -13.160  13.874  62.557  1.00  0.00     0.000 HD 
ENDBRANCH  24  25
ENDBRANCH  23  24
ENDBRANCH  22  23
ENDBRANCH  21  22
ENDBRANCH  20  21
ENDBRANCH  19  20
ENDBRANCH  18  19
ENDBRANCH  17  18
ENDBRANCH  16  17
ENDBRANCH  15  16
ENDBRANCH  14  15
ENDBRANCH   9  14
ENDBRANCH   2   3
TORSDOF 14
ENDMDL
MODEL       97
REMARK 921   NORMALIZED FREE ENERGY PREDICTED BY IDOCK:   -4.36 KCAL/MOL
REMARK 922        TOTAL FREE ENERGY PREDICTED BY IDOCK:   -9.74 KCAL/MOL
REMARK 923 INTER-LIGAND FREE ENERGY PREDICTED BY IDOCK:   -8.55 KCAL/MOL
REMARK 924 INTRA-LIGAND FREE ENERGY PREDICTED BY IDOCK:   -1.19 KCAL/MOL
REMARK 927      BINDING AFFINITY PREDICTED BY RF-SCORE:    0.00 PKD
ROOT
HETATM    1  C   UNL     1      -6.175   8.540  68.801  1.00  0.00    -0.045 C  
HETATM    2  O   UNL     1      -7.510   8.135  68.532  1.00  0.00    -0.094 OA 
ENDROOT
BRANCH   2   3
HETATM    3  C   UNL     1      -8.524   8.905  69.099  1.00  0.00    -0.132 C  
HETATM    4  C   UNL     1      -9.085   8.479  70.245  1.00  0.00    -0.154 C  
HETATM    5  C   UNL     1     -10.189   9.284  70.849  1.00  0.00    -0.301 C  
HETATM    6  O   UNL     1      -8.391  10.764  67.583  1.00  0.00    -0.118 OA 
HETATM    7  O   UNL     1     -10.503   9.213  72.032  1.00  0.00    -0.322 OA 
HETATM    8  C   UNL     1      -9.028  10.156  68.436  1.00  0.00    -0.123 C  
HETATM    9  C   UNL     1     -10.956  10.175  69.932  1.00  0.00    -0.344 C  
HETATM   10  C   UNL     1     -11.016  11.584  67.834  1.00  0.00    -0.287 C  
HETATM   11  C   UNL     1     -10.390  10.619  68.799  1.00  0.00    -0.210 C  
BRANCH   4  12
HETATM   12  O   UNL     1      -8.602   7.307  70.827  1.00  0.00    -0.141 OA 
HETATM   13  C   UNL     1      -7.721   7.416  71.938  1.00  0.00    -0.085 C  
ENDBRANCH   4  12
BRANCH   9  14
HETATM   14  C   UNL     1     -12.353  10.492  70.367  1.00  0.00    -0.409 C  
BRANCH  14  15
HETATM   15  C   UNL     1     -12.534  11.954  70.780  1.00  0.00    -0.384 C  
BRANCH  15  16
HETATM   16  C   UNL     1     -13.130  12.076  72.182  1.00  0.00    -0.352 C  
BRANCH  16  17
HETATM   17  C   UNL     1     -13.818  13.422  72.379  1.00  0.00    -0.665 C  
BRANCH  17  18
HETATM   18  C   UNL     1     -12.825  14.564  72.478  1.00  0.00    -0.471 C  
BRANCH  18  19
HETATM   19  C   UNL     1     -13.109  15.565  71.365  1.00  0.00    -0.580 C  
BRANCH  19  20
HETATM   20  C   UNL     1     -11.859  15.812  70.541  1.00  0.00    -0.402 C  
BRANCH  20  21
HETATM   21  C   UNL     1     -11.897  14.997  69.257  1.00  0.00    -0.344 C  
BRANCH  21  22
HETATM   22  C   UNL     1     -11.627  15.898  68.061  1.00  0.00    -0.168 C  
BRANCH  22  23
HETATM   23  C   UNL     1     -10.493  15.343  67.209  1.00  0.00    -0.282 C  
BRANCH  23  24
HETATM   24  C   UNL     1     -10.960  15.118  65.778  1.00  0.00    -0.350 C  
BRANCH  24  25
HETATM   25  C   UNL     1     -10.819  16.385  64.949  1.00  0.00    -0.250 C  
HETATM   26  O   UNL     1     -11.641  16.294  63.795  1.00  0.00    -1.539 OA 
HETATM   27  H   UNL     1     -11.553  17.086  63.277  1.00  0.00     0.000 HD 
ENDBRANCH  24  25
ENDBRANCH  23  24
ENDBRANCH  22  23
ENDBRANCH  21  22
ENDBRANCH  20  21
ENDBRANCH  19  20
ENDBRANCH  18  19
ENDBRANCH  17  18
ENDBRANCH  16  17
ENDBRANCH  15  16
ENDBRANCH  14  15
ENDBRANCH   9  14
ENDBRANCH   2   3
TORSDOF 14
ENDMDL
MODEL       98
REMARK 921   NORMALIZED FREE ENERGY PREDICTED BY IDOCK:   -4.33 KCAL/MOL
REMARK 922        TOTAL FREE ENERGY PREDICTED BY IDOCK:   -9.69 KCAL/MOL
REMARK 923 INTER-LIGAND FREE ENERGY PREDICTED BY IDOCK:   -8.07 KCAL/MOL
REMARK 924 INTRA-LIGAND FREE ENERGY PREDICTED BY IDOCK:   -1.63 KCAL/MOL
REMARK 927      BINDING AFFINITY PREDICTED BY RF-SCORE:    0.00 PKD
ROOT
HETATM    1  C   UNL     1     -11.500   5.305  73.015  1.00  0.00    -0.269 C  
HETATM    2  O   UNL     1     -10.848   6.561  73.152  1.00  0.00    -0.257 OA 
ENDROOT
BRANCH   2   3
HETATM    3  C   UNL     1     -10.868   7.400  72.040  1.00  0.00    -0.227 C  
HETATM    4  C   UNL     1      -9.873   7.294  71.141  1.00  0.00    -0.182 C  
HETATM    5  C   UNL     1      -9.872   8.206  69.957  1.00  0.00    -0.182 C  
HETATM    6  O   UNL     1     -13.013   8.404  72.443  1.00  0.00    -0.322 OA 
HETATM    7  O   UNL     1      -9.264   7.961  68.921  1.00  0.00    -0.144 OA 
HETATM    8  C   UNL     1     -11.937   8.440  71.857  1.00  0.00    -0.338 C  
HETATM    9  C   UNL     1     -10.619   9.489  70.091  1.00  0.00    -0.298 C  
HETATM   10  C   UNL     1     -12.512  10.791  71.148  1.00  0.00    -0.519 C  
HETATM   11  C   UNL     1     -11.626   9.590  70.972  1.00  0.00    -0.419 C  
BRANCH   4  12
HETATM   12  O   UNL     1      -8.889   6.327  71.347  1.00  0.00    -0.138 OA 
HETATM   13  C   UNL     1      -8.928   5.144  70.559  1.00  0.00    -0.134 C  
ENDBRANCH   4  12
BRANCH   9  14
HETATM   14  C   UNL     1     -10.145  10.601  69.208  1.00  0.00    -0.227 C  
BRANCH  14  15
HETATM   15  C   UNL     1     -10.830  10.611  67.839  1.00  0.00    -0.328 C  
BRANCH  15  16
HETATM   16  C   UNL     1      -9.825  10.805  66.705  1.00  0.00    -0.241 C  
BRANCH  16  17
HETATM   17  C   UNL     1     -10.380  10.306  65.376  1.00  0.00    -0.233 C  
BRANCH  17  18
HETATM   18  C   UNL     1      -9.442  10.593  64.219  1.00  0.00    -0.321 C  
BRANCH  18  19
HETATM   19  C   UNL     1     -10.050  11.681  63.344  1.00  0.00    -0.468 C  
BRANCH  19  20
HETATM   20  C   UNL     1     -11.556  11.731  63.529  1.00  0.00    -0.487 C  
BRANCH  20  21
HETATM   21  C   UNL     1     -12.005  13.143  63.871  1.00  0.00    -0.550 C  
BRANCH  21  22
HETATM   22  C   UNL     1     -12.624  13.170  65.260  1.00  0.00    -0.531 C  
BRANCH  22  23
HETATM   23  C   UNL     1     -11.905  14.172  66.155  1.00  0.00    -0.420 C  
BRANCH  23  24
HETATM   24  C   UNL     1     -10.526  14.495  65.596  1.00  0.00    -0.351 C  
BRANCH  24  25
HETATM   25  C   UNL     1      -9.528  14.753  66.713  1.00  0.00    -0.254 C  
HETATM   26  O   UNL     1      -9.952  14.089  67.895  1.00  0.00    -0.227 OA 
HETATM   27  H   UNL     1      -9.328  14.250  68.593  1.00  0.00     0.000 HD 
ENDBRANCH  24  25
ENDBRANCH  23  24
ENDBRANCH  22  23
ENDBRANCH  21  22
ENDBRANCH  20  21
ENDBRANCH  19  20
ENDBRANCH  18  19
ENDBRANCH  17  18
ENDBRANCH  16  17
ENDBRANCH  15  16
ENDBRANCH  14  15
ENDBRANCH   9  14
ENDBRANCH   2   3
TORSDOF 14
ENDMDL
MODEL       99
REMARK 921   NORMALIZED FREE ENERGY PREDICTED BY IDOCK:   -4.33 KCAL/MOL
REMARK 922        TOTAL FREE ENERGY PREDICTED BY IDOCK:   -9.69 KCAL/MOL
REMARK 923 INTER-LIGAND FREE ENERGY PREDICTED BY IDOCK:   -8.15 KCAL/MOL
REMARK 924 INTRA-LIGAND FREE ENERGY PREDICTED BY IDOCK:   -1.53 KCAL/MOL
REMARK 927      BINDING AFFINITY PREDICTED BY RF-SCORE:    0.00 PKD
ROOT
HETATM    1  C   UNL     1     -10.760   7.653  72.921  1.00  0.00    -0.371 C  
HETATM    2  O   UNL     1     -10.427   8.938  72.413  1.00  0.00    -0.264 OA 
ENDROOT
BRANCH   2   3
HETATM    3  C   UNL     1     -10.225   9.034  71.037  1.00  0.00    -0.277 C  
HETATM    4  C   UNL     1     -11.222   9.524  70.278  1.00  0.00    -0.261 C  
HETATM    5  C   UNL     1     -11.025   9.608  68.799  1.00  0.00    -0.117 C  
HETATM    6  O   UNL     1      -7.911   8.391  71.014  1.00  0.00    -0.082 OA 
HETATM    7  O   UNL     1     -11.675  10.355  68.076  1.00  0.00    -0.383 OA 
HETATM    8  C   UNL     1      -8.954   8.559  70.393  1.00  0.00    -0.152 C  
HETATM    9  C   UNL     1     -10.013   8.693  68.198  1.00  0.00    -0.210 C  
HETATM   10  C   UNL     1      -7.877   7.363  68.451  1.00  0.00    -0.122 C  
HETATM   11  C   UNL     1      -9.006   8.221  68.949  1.00  0.00    -0.144 C  
BRANCH   4  12
HETATM   12  O   UNL     1     -12.394   9.943  70.906  1.00  0.00    -0.297 OA 
HETATM   13  C   UNL     1     -12.587  11.337  71.116  1.00  0.00    -0.397 C  
ENDBRANCH   4  12
BRANCH   9  14
HETATM   14  C   UNL     1     -10.232   8.354  66.756  1.00  0.00    -0.376 C  
BRANCH  14  15
HETATM   15  C   UNL     1      -9.326   9.146  65.811  1.00  0.00    -0.309 C  
BRANCH  15  16
HETATM   16  C   UNL     1     -10.044  10.362  65.227  1.00  0.00    -0.370 C  
BRANCH  16  17
HETATM   17  C   UNL     1      -9.480  10.739  63.862  1.00  0.00    -0.312 C  
BRANCH  17  18
HETATM   18  C   UNL     1     -10.036  12.058  63.358  1.00  0.00    -0.384 C  
BRANCH  18  19
HETATM   19  C   UNL     1     -11.553  12.036  63.483  1.00  0.00    -0.553 C  
BRANCH  19  20
HETATM   20  C   UNL     1     -12.056  13.343  64.069  1.00  0.00    -0.506 C  
BRANCH  20  21
HETATM   21  C   UNL     1     -12.517  13.140  65.505  1.00  0.00    -0.516 C  
BRANCH  21  22
HETATM   22  C   UNL     1     -12.074  14.315  66.364  1.00  0.00    -0.442 C  
BRANCH  22  23
HETATM   23  C   UNL     1     -11.884  13.885  67.813  1.00  0.00    -0.415 C  
BRANCH  23  24
HETATM   24  C   UNL     1     -10.435  13.495  68.069  1.00  0.00    -0.245 C  
BRANCH  24  25
HETATM   25  C   UNL     1      -9.479  14.432  67.349  1.00  0.00    -0.207 C  
HETATM   26  O   UNL     1      -8.732  13.703  66.385  1.00  0.00    -0.443 OA 
HETATM   27  H   UNL     1      -8.135  14.289  65.935  1.00  0.00     0.000 HD 
ENDBRANCH  24  25
ENDBRANCH  23  24
ENDBRANCH  22  23
ENDBRANCH  21  22
ENDBRANCH  20  21
ENDBRANCH  19  20
ENDBRANCH  18  19
ENDBRANCH  17  18
ENDBRANCH  16  17
ENDBRANCH  15  16
ENDBRANCH  14  15
ENDBRANCH   9  14
ENDBRANCH   2   3
TORSDOF 14
ENDMDL
MODEL      100
REMARK 921   NORMALIZED FREE ENERGY PREDICTED BY IDOCK:   -4.33 KCAL/MOL
REMARK 922        TOTAL FREE ENERGY PREDICTED BY IDOCK:   -9.69 KCAL/MOL
REMARK 923 INTER-LIGAND FREE ENERGY PREDICTED BY IDOCK:   -7.38 KCAL/MOL
REMARK 924 INTRA-LIGAND FREE ENERGY PREDICTED BY IDOCK:   -2.30 KCAL/MOL
REMARK 927      BINDING AFFINITY PREDICTED BY RF-SCORE:    0.00 PKD
ROOT
HETATM    1  C   UNL     1     -11.100  10.495  67.501  1.00  0.00    -0.290 C  
HETATM    2  O   UNL     1     -10.379  11.089  68.572  1.00  0.00    -0.174 OA 
ENDROOT
BRANCH   2   3
HETATM    3  C   UNL     1     -10.445  10.443  69.805  1.00  0.00    -0.240 C  
HETATM    4  C   UNL     1      -9.405   9.677  70.181  1.00  0.00    -0.251 C  
HETATM    5  C   UNL     1      -9.476   8.960  71.490  1.00  0.00    -0.277 C  
HETATM    6  O   UNL     1     -12.497  11.433  70.568  1.00  0.00    -0.318 OA 
HETATM    7  O   UNL     1      -8.485   8.561  72.092  1.00  0.00    -0.194 OA 
HETATM    8  C   UNL     1     -11.660  10.544  70.683  1.00  0.00    -0.352 C  
HETATM    9  C   UNL     1     -10.835   8.693  72.042  1.00  0.00    -0.430 C  
HETATM   10  C   UNL     1     -13.266   9.363  72.228  1.00  0.00    -0.528 C  
HETATM   11  C   UNL     1     -11.869   9.470  71.684  1.00  0.00    -0.468 C  
BRANCH   4  12
HETATM   12  O   UNL     1      -8.299   9.594  69.336  1.00  0.00    -0.121 OA 
HETATM   13  C   UNL     1      -7.216  10.492  69.549  1.00  0.00    -0.137 C  
ENDBRANCH   4  12
BRANCH   9  14
HETATM   14  C   UNL     1     -10.930   7.521  72.969  1.00  0.00    -0.443 C  
BRANCH  14  15
HETATM   15  C   UNL     1     -11.143   6.194  72.236  1.00  0.00    -0.320 C  
BRANCH  15  16
HETATM   16  C   UNL     1     -11.397   5.044  73.211  1.00  0.00    -0.393 C  
BRANCH  16  17
HETATM   17  C   UNL     1     -10.391   3.916  73.016  1.00  0.00    -0.239 C  
BRANCH  17  18
HETATM   18  C   UNL     1      -8.961   4.387  73.200  1.00  0.00    -0.120 C  
BRANCH  18  19
HETATM   19  C   UNL     1      -8.100   3.803  72.087  1.00  0.00    -0.076 C  
BRANCH  19  20
HETATM   20  C   UNL     1      -8.969   3.124  71.044  1.00  0.00    -0.164 C  
BRANCH  20  21
HETATM   21  C   UNL     1      -8.751   3.754  69.676  1.00  0.00    -0.127 C  
BRANCH  21  22
HETATM   22  C   UNL     1      -9.977   4.561  69.275  1.00  0.00    -0.192 C  
BRANCH  22  23
HETATM   23  C   UNL     1      -9.581   5.961  68.826  1.00  0.00    -0.152 C  
BRANCH  23  24
HETATM   24  C   UNL     1     -10.815   6.778  68.470  1.00  0.00    -0.280 C  
BRANCH  24  25
HETATM   25  C   UNL     1     -10.910   7.004  66.970  1.00  0.00    -0.343 C  
HETATM   26  O   UNL     1     -11.276   5.792  66.327  1.00  0.00    -0.756 OA 
HETATM   27  H   UNL     1     -11.336   5.933  65.390  1.00  0.00     0.000 HD 
ENDBRANCH  24  25
ENDBRANCH  23  24
ENDBRANCH  22  23
ENDBRANCH  21  22
ENDBRANCH  20  21
ENDBRANCH  19  20
ENDBRANCH  18  19
ENDBRANCH  17  18
ENDBRANCH  16  17
ENDBRANCH  15  16
ENDBRANCH  14  15
ENDBRANCH   9  14
ENDBRANCH   2   3
TORSDOF 14
ENDMDL
MODEL      101
REMARK 921   NORMALIZED FREE ENERGY PREDICTED BY IDOCK:   -4.32 KCAL/MOL
REMARK 922        TOTAL FREE ENERGY PREDICTED BY IDOCK:   -9.68 KCAL/MOL
REMARK 923 INTER-LIGAND FREE ENERGY PREDICTED BY IDOCK:   -8.43 KCAL/MOL
REMARK 924 INTRA-LIGAND FREE ENERGY PREDICTED BY IDOCK:   -1.25 KCAL/MOL
REMARK 927      BINDING AFFINITY PREDICTED BY RF-SCORE:    0.00 PKD
ROOT
HETATM    1  C   UNL     1     -10.288   5.388  69.346  1.00  0.00    -0.269 C  
HETATM    2  O   UNL     1      -9.652   6.372  70.150  1.00  0.00    -0.159 OA 
ENDROOT
BRANCH   2   3
HETATM    3  C   UNL     1     -10.013   7.698  69.919  1.00  0.00    -0.190 C  
HETATM    4  C   UNL     1     -10.974   8.242  70.686  1.00  0.00    -0.240 C  
HETATM    5  C   UNL     1     -11.386   9.655  70.430  1.00  0.00    -0.277 C  
HETATM    6  O   UNL     1      -8.330   8.199  68.279  1.00  0.00    -0.124 OA 
HETATM    7  O   UNL     1     -11.948  10.353  71.267  1.00  0.00    -0.358 OA 
HETATM    8  C   UNL     1      -9.393   8.501  68.810  1.00  0.00    -0.143 C  
HETATM    9  C   UNL     1     -11.127  10.198  69.067  1.00  0.00    -0.249 C  
HETATM   10  C   UNL     1      -9.734  10.176  66.957  1.00  0.00    -0.224 C  
HETATM   11  C   UNL     1     -10.154   9.671  68.308  1.00  0.00    -0.203 C  
BRANCH   4  12
HETATM   12  O   UNL     1     -11.538   7.464  71.698  1.00  0.00    -0.255 OA 
HETATM   13  C   UNL     1     -12.870   6.997  71.528  1.00  0.00    -0.372 C  
ENDBRANCH   4  12
BRANCH   9  14
HETATM   14  C   UNL     1     -12.027  11.317  68.642  1.00  0.00    -0.314 C  
BRANCH  14  15
HETATM   15  C   UNL     1     -11.493  12.696  69.035  1.00  0.00    -0.354 C  
BRANCH  15  16
HETATM   16  C   UNL     1     -11.361  13.618  67.823  1.00  0.00    -0.336 C  
BRANCH  16  17
HETATM   17  C   UNL     1     -11.977  12.993  66.577  1.00  0.00    -0.457 C  
BRANCH  17  18
HETATM   18  C   UNL     1     -12.439  14.038  65.580  1.00  0.00    -0.533 C  
BRANCH  18  19
HETATM   19  C   UNL     1     -11.261  14.443  64.703  1.00  0.00    -0.366 C  
BRANCH  19  20
HETATM   20  C   UNL     1     -10.812  15.854  65.035  1.00  0.00    -0.444 C  
BRANCH  20  21
HETATM   21  C   UNL     1      -9.475  15.832  65.760  1.00  0.00    -0.334 C  
BRANCH  21  22
HETATM   22  C   UNL     1      -9.207  17.186  66.398  1.00  0.00    -0.285 C  
BRANCH  22  23
HETATM   23  C   UNL     1     -10.336  18.162  66.094  1.00  0.00    -0.394 C  
BRANCH  23  24
HETATM   24  C   UNL     1     -10.541  19.122  67.257  1.00  0.00    -0.573 C  
BRANCH  24  25
HETATM   25  C   UNL     1      -9.436  20.165  67.309  1.00  0.00    -0.401 C  
HETATM   26  O   UNL     1      -9.014  20.479  65.990  1.00  0.00    -0.575 OA 
HETATM   27  H   UNL     1      -8.323  21.131  66.022  1.00  0.00     0.000 HD 
ENDBRANCH  24  25
ENDBRANCH  23  24
ENDBRANCH  22  23
ENDBRANCH  21  22
ENDBRANCH  20  21
ENDBRANCH  19  20
ENDBRANCH  18  19
ENDBRANCH  17  18
ENDBRANCH  16  17
ENDBRANCH  15  16
ENDBRANCH  14  15
ENDBRANCH   9  14
ENDBRANCH   2   3
TORSDOF 14
ENDMDL
MODEL      102
REMARK 921   NORMALIZED FREE ENERGY PREDICTED BY IDOCK:   -4.32 KCAL/MOL
REMARK 922        TOTAL FREE ENERGY PREDICTED BY IDOCK:   -9.68 KCAL/MOL
REMARK 923 INTER-LIGAND FREE ENERGY PREDICTED BY IDOCK:   -7.91 KCAL/MOL
REMARK 924 INTRA-LIGAND FREE ENERGY PREDICTED BY IDOCK:   -1.77 KCAL/MOL
REMARK 927      BINDING AFFINITY PREDICTED BY RF-SCORE:    0.00 PKD
ROOT
HETATM    1  C   UNL     1     -11.008  16.184  70.166  1.00  0.00    -0.358 C  
HETATM    2  O   UNL     1     -10.093  16.326  69.088  1.00  0.00    -0.236 OA 
ENDROOT
BRANCH   2   3
HETATM    3  C   UNL     1     -10.390  15.628  67.919  1.00  0.00    -0.259 C  
HETATM    4  C   UNL     1     -10.561  16.328  66.783  1.00  0.00    -0.257 C  
HETATM    5  C   UNL     1     -10.904  15.591  65.529  1.00  0.00    -0.361 C  
HETATM    6  O   UNL     1     -10.146  13.409  68.808  1.00  0.00    -0.192 OA 
HETATM    7  O   UNL     1     -10.714  16.050  64.408  1.00  0.00    -0.451 OA 
HETATM    8  C   UNL     1     -10.570  14.136  67.917  1.00  0.00    -0.243 C  
HETATM    9  C   UNL     1     -11.547  14.256  65.684  1.00  0.00    -0.346 C  
HETATM   10  C   UNL     1     -11.877  12.159  67.057  1.00  0.00    -0.288 C  
HETATM   11  C   UNL     1     -11.359  13.547  66.808  1.00  0.00    -0.351 C  
BRANCH   4  12
HETATM   12  O   UNL     1     -10.399  17.712  66.823  1.00  0.00    -0.332 OA 
HETATM   13  C   UNL     1      -9.097  18.247  66.619  1.00  0.00    -0.288 C  
ENDBRANCH   4  12
BRANCH   9  14
HETATM   14  C   UNL     1     -12.395  13.816  64.531  1.00  0.00    -0.399 C  
BRANCH  14  15
HETATM   15  C   UNL     1     -11.981  12.454  63.969  1.00  0.00    -0.546 C  
BRANCH  15  16
HETATM   16  C   UNL     1     -10.524  12.451  63.507  1.00  0.00    -0.430 C  
BRANCH  16  17
HETATM   17  C   UNL     1      -9.980  11.033  63.387  1.00  0.00    -0.428 C  
BRANCH  17  18
HETATM   18  C   UNL     1     -10.026  10.288  64.708  1.00  0.00    -0.392 C  
BRANCH  18  19
HETATM   19  C   UNL     1      -8.704   9.562  64.914  1.00  0.00    -0.218 C  
BRANCH  19  20
HETATM   20  C   UNL     1      -7.721  10.448  65.657  1.00  0.00    -0.150 C  
BRANCH  20  21
HETATM   21  C   UNL     1      -8.339  10.963  66.949  1.00  0.00    -0.133 C  
BRANCH  21  22
HETATM   22  C   UNL     1      -8.223   9.907  68.038  1.00  0.00    -0.113 C  
BRANCH  22  23
HETATM   23  C   UNL     1      -9.283  10.118  69.111  1.00  0.00    -0.204 C  
BRANCH  23  24
HETATM   24  C   UNL     1     -10.389   9.079  68.982  1.00  0.00    -0.233 C  
BRANCH  24  25
HETATM   25  C   UNL     1     -10.014   8.002  67.977  1.00  0.00    -0.179 C  
HETATM   26  O   UNL     1     -11.191   7.480  67.376  1.00  0.00    -0.522 OA 
HETATM   27  H   UNL     1     -10.957   6.807  66.747  1.00  0.00     0.000 HD 
ENDBRANCH  24  25
ENDBRANCH  23  24
ENDBRANCH  22  23
ENDBRANCH  21  22
ENDBRANCH  20  21
ENDBRANCH  19  20
ENDBRANCH  18  19
ENDBRANCH  17  18
ENDBRANCH  16  17
ENDBRANCH  15  16
ENDBRANCH  14  15
ENDBRANCH   9  14
ENDBRANCH   2   3
TORSDOF 14
ENDMDL
MODEL      103
REMARK 921   NORMALIZED FREE ENERGY PREDICTED BY IDOCK:   -4.31 KCAL/MOL
REMARK 922        TOTAL FREE ENERGY PREDICTED BY IDOCK:   -9.66 KCAL/MOL
REMARK 923 INTER-LIGAND FREE ENERGY PREDICTED BY IDOCK:   -8.22 KCAL/MOL
REMARK 924 INTRA-LIGAND FREE ENERGY PREDICTED BY IDOCK:   -1.44 KCAL/MOL
REMARK 927      BINDING AFFINITY PREDICTED BY RF-SCORE:    0.00 PKD
ROOT
HETATM    1  C   UNL     1      -8.081  10.136  63.461  1.00  0.00    -0.162 C  
HETATM    2  O   UNL     1      -9.274   9.661  64.070  1.00  0.00    -0.250 OA 
ENDROOT
BRANCH   2   3
HETATM    3  C   UNL     1      -9.662  10.283  65.256  1.00  0.00    -0.291 C  
HETATM    4  C   UNL     1     -10.712  11.123  65.223  1.00  0.00    -0.203 C  
HETATM    5  C   UNL     1     -11.121  11.815  66.482  1.00  0.00    -0.310 C  
HETATM    6  O   UNL     1      -8.155   9.125  66.726  1.00  0.00    -0.109 OA 
HETATM    7  O   UNL     1     -12.240  12.282  66.660  1.00  0.00    -0.574 OA 
HETATM    8  C   UNL     1      -8.907  10.075  66.538  1.00  0.00    -0.139 C  
HETATM    9  C   UNL     1     -10.080  11.967  67.538  1.00  0.00    -0.206 C  
HETATM   10  C   UNL     1      -7.975  11.105  68.643  1.00  0.00    -0.145 C  
HETATM   11  C   UNL     1      -9.043  11.116  67.586  1.00  0.00    -0.147 C  
BRANCH   4  12
HETATM   12  O   UNL     1     -11.382  11.304  64.013  1.00  0.00    -0.297 OA 
HETATM   13  C   UNL     1     -11.300  12.573  63.377  1.00  0.00    -0.422 C  
ENDBRANCH   4  12
BRANCH   9  14
HETATM   14  C   UNL     1     -10.283  13.115  68.478  1.00  0.00    -0.218 C  
BRANCH  14  15
HETATM   15  C   UNL     1     -10.103  14.478  67.805  1.00  0.00    -0.225 C  
BRANCH  15  16
HETATM   16  C   UNL     1     -10.841  15.583  68.560  1.00  0.00    -0.272 C  
BRANCH  16  17
HETATM   17  C   UNL     1     -10.382  15.669  70.011  1.00  0.00    -0.309 C  
BRANCH  17  18
HETATM   18  C   UNL     1     -11.538  15.914  70.963  1.00  0.00    -0.465 C  
BRANCH  18  19
HETATM   19  C   UNL     1     -12.744  15.110  70.496  1.00  0.00    -0.416 C  
BRANCH  19  20
HETATM   20  C   UNL     1     -13.088  14.032  71.508  1.00  0.00    -0.436 C  
BRANCH  20  21
HETATM   21  C   UNL     1     -12.329  12.750  71.200  1.00  0.00    -0.247 C  
BRANCH  21  22
HETATM   22  C   UNL     1     -12.966  11.579  71.934  1.00  0.00    -0.453 C  
BRANCH  22  23
HETATM   23  C   UNL     1     -12.708  10.271  71.197  1.00  0.00    -0.502 C  
BRANCH  23  24
HETATM   24  C   UNL     1     -13.382   9.111  71.915  1.00  0.00    -0.490 C  
BRANCH  24  25
HETATM   25  C   UNL     1     -12.530   7.854  71.847  1.00  0.00    -0.321 C  
HETATM   26  O   UNL     1     -11.757   7.737  73.032  1.00  0.00    -0.613 OA 
HETATM   27  H   UNL     1     -11.224   6.951  72.990  1.00  0.00     0.000 HD 
ENDBRANCH  24  25
ENDBRANCH  23  24
ENDBRANCH  22  23
ENDBRANCH  21  22
ENDBRANCH  20  21
ENDBRANCH  19  20
ENDBRANCH  18  19
ENDBRANCH  17  18
ENDBRANCH  16  17
ENDBRANCH  15  16
ENDBRANCH  14  15
ENDBRANCH   9  14
ENDBRANCH   2   3
TORSDOF 14
ENDMDL
MODEL      104
REMARK 921   NORMALIZED FREE ENERGY PREDICTED BY IDOCK:   -4.31 KCAL/MOL
REMARK 922        TOTAL FREE ENERGY PREDICTED BY IDOCK:   -9.66 KCAL/MOL
REMARK 923 INTER-LIGAND FREE ENERGY PREDICTED BY IDOCK:   -8.68 KCAL/MOL
REMARK 924 INTRA-LIGAND FREE ENERGY PREDICTED BY IDOCK:   -0.98 KCAL/MOL
REMARK 927      BINDING AFFINITY PREDICTED BY RF-SCORE:    0.00 PKD
ROOT
HETATM    1  C   UNL     1      -8.811   4.188  70.438  1.00  0.00    -0.085 C  
HETATM    2  O   UNL     1     -10.040   4.424  69.765  1.00  0.00    -0.214 OA 
ENDROOT
BRANCH   2   3
HETATM    3  C   UNL     1     -10.413   5.756  69.593  1.00  0.00    -0.293 C  
HETATM    4  C   UNL     1     -10.138   6.349  68.418  1.00  0.00    -0.157 C  
HETATM    5  C   UNL     1     -10.511   7.784  68.232  1.00  0.00    -0.168 C  
HETATM    6  O   UNL     1     -11.610   6.016  71.660  1.00  0.00    -0.277 OA 
HETATM    7  O   UNL     1     -10.656   8.303  67.130  1.00  0.00    -0.317 OA 
HETATM    8  C   UNL     1     -11.061   6.541  70.698  1.00  0.00    -0.309 C  
HETATM    9  C   UNL     1     -10.663   8.609  69.464  1.00  0.00    -0.189 C  
HETATM   10  C   UNL     1     -11.223   8.738  71.926  1.00  0.00    -0.438 C  
HETATM   11  C   UNL     1     -10.960   8.020  70.633  1.00  0.00    -0.250 C  
BRANCH   4  12
HETATM   12  O   UNL     1      -9.524   5.595  67.418  1.00  0.00    -0.112 OA 
HETATM   13  C   UNL     1     -10.343   5.013  66.411  1.00  0.00    -0.294 C  
ENDBRANCH   4  12
BRANCH   9  14
HETATM   14  C   UNL     1     -10.444  10.079  69.282  1.00  0.00    -0.245 C  
BRANCH  14  15
HETATM   15  C   UNL     1     -11.739  10.850  69.020  1.00  0.00    -0.391 C  
BRANCH  15  16
HETATM   16  C   UNL     1     -11.537  12.359  69.156  1.00  0.00    -0.369 C  
BRANCH  16  17
HETATM   17  C   UNL     1     -12.386  12.935  70.284  1.00  0.00    -0.294 C  
BRANCH  17  18
HETATM   18  C   UNL     1     -12.011  14.369  70.606  1.00  0.00    -0.393 C  
BRANCH  18  19
HETATM   19  C   UNL     1     -11.014  14.867  69.568  1.00  0.00    -0.289 C  
BRANCH  19  20
HETATM   20  C   UNL     1     -11.707  15.751  68.547  1.00  0.00    -0.328 C  
BRANCH  20  21
HETATM   21  C   UNL     1     -10.744  16.798  68.008  1.00  0.00    -0.355 C  
BRANCH  21  22
HETATM   22  C   UNL     1      -9.554  16.119  67.348  1.00  0.00    -0.229 C  
BRANCH  22  23
HETATM   23  C   UNL     1      -9.633  16.240  65.831  1.00  0.00    -0.336 C  
BRANCH  23  24
HETATM   24  C   UNL     1     -10.241  14.982  65.226  1.00  0.00    -0.409 C  
BRANCH  24  25
HETATM   25  C   UNL     1     -11.607  15.269  64.624  1.00  0.00    -0.333 C  
HETATM   26  O   UNL     1     -11.538  16.436  63.818  1.00  0.00    -1.605 OA 
HETATM   27  H   UNL     1     -12.392  16.616  63.441  1.00  0.00     0.000 HD 
ENDBRANCH  24  25
ENDBRANCH  23  24
ENDBRANCH  22  23
ENDBRANCH  21  22
ENDBRANCH  20  21
ENDBRANCH  19  20
ENDBRANCH  18  19
ENDBRANCH  17  18
ENDBRANCH  16  17
ENDBRANCH  15  16
ENDBRANCH  14  15
ENDBRANCH   9  14
ENDBRANCH   2   3
TORSDOF 14
ENDMDL
MODEL      105
REMARK 921   NORMALIZED FREE ENERGY PREDICTED BY IDOCK:   -4.29 KCAL/MOL
REMARK 922        TOTAL FREE ENERGY PREDICTED BY IDOCK:   -9.62 KCAL/MOL
REMARK 923 INTER-LIGAND FREE ENERGY PREDICTED BY IDOCK:   -7.51 KCAL/MOL
REMARK 924 INTRA-LIGAND FREE ENERGY PREDICTED BY IDOCK:   -2.11 KCAL/MOL
REMARK 927      BINDING AFFINITY PREDICTED BY RF-SCORE:    0.00 PKD
ROOT
HETATM    1  C   UNL     1     -11.250   7.125  72.771  1.00  0.00    -0.275 C  
HETATM    2  O   UNL     1     -10.384   8.210  72.462  1.00  0.00    -0.282 OA 
ENDROOT
BRANCH   2   3
HETATM    3  C   UNL     1     -10.522   8.780  71.198  1.00  0.00    -0.245 C  
HETATM    4  C   UNL     1      -9.720   8.345  70.210  1.00  0.00    -0.172 C  
HETATM    5  C   UNL     1      -9.843   8.967  68.857  1.00  0.00    -0.177 C  
HETATM    6  O   UNL     1     -12.452  10.131  71.672  1.00  0.00    -0.383 OA 
HETATM    7  O   UNL     1      -9.458   8.420  67.829  1.00  0.00    -0.145 OA 
HETATM    8  C   UNL     1     -11.500   9.891  70.938  1.00  0.00    -0.376 C  
HETATM    9  C   UNL     1     -10.425  10.337  68.793  1.00  0.00    -0.222 C  
HETATM   10  C   UNL     1     -11.961  12.085  69.783  1.00  0.00    -0.370 C  
HETATM   11  C   UNL     1     -11.243  10.765  69.767  1.00  0.00    -0.365 C  
BRANCH   4  12
HETATM   12  O   UNL     1      -8.815   7.322  70.489  1.00  0.00    -0.150 OA 
HETATM   13  C   UNL     1      -9.129   6.003  70.058  1.00  0.00    -0.146 C  
ENDBRANCH   4  12
BRANCH   9  14
HETATM   14  C   UNL     1     -10.012  11.154  67.608  1.00  0.00    -0.195 C  
BRANCH  14  15
HETATM   15  C   UNL     1     -11.019  11.091  66.457  1.00  0.00    -0.228 C  
BRANCH  15  16
HETATM   16  C   UNL     1     -10.363  11.409  65.114  1.00  0.00    -0.344 C  
BRANCH  16  17
HETATM   17  C   UNL     1     -11.221  12.359  64.287  1.00  0.00    -0.408 C  
BRANCH  17  18
HETATM   18  C   UNL     1     -12.579  12.600  64.917  1.00  0.00    -0.525 C  
BRANCH  18  19
HETATM   19  C   UNL     1     -12.617  14.011  65.490  1.00  0.00    -0.543 C  
BRANCH  19  20
HETATM   20  C   UNL     1     -11.552  14.876  64.841  1.00  0.00    -0.395 C  
BRANCH  20  21
HETATM   21  C   UNL     1     -10.715  15.576  65.902  1.00  0.00    -0.346 C  
BRANCH  21  22
HETATM   22  C   UNL     1     -11.164  15.141  67.289  1.00  0.00    -0.324 C  
BRANCH  22  23
HETATM   23  C   UNL     1      -9.981  14.643  68.110  1.00  0.00    -0.224 C  
BRANCH  23  24
HETATM   24  C   UNL     1      -8.724  14.583  67.254  1.00  0.00    -0.225 C  
BRANCH  24  25
HETATM   25  C   UNL     1      -7.472  14.701  68.109  1.00  0.00    -0.123 C  
HETATM   26  O   UNL     1      -7.608  13.890  69.267  1.00  0.00    -0.321 OA 
HETATM   27  H   UNL     1      -6.826  13.963  69.802  1.00  0.00     0.000 HD 
ENDBRANCH  24  25
ENDBRANCH  23  24
ENDBRANCH  22  23
ENDBRANCH  21  22
ENDBRANCH  20  21
ENDBRANCH  19  20
ENDBRANCH  18  19
ENDBRANCH  17  18
ENDBRANCH  16  17
ENDBRANCH  15  16
ENDBRANCH  14  15
ENDBRANCH   9  14
ENDBRANCH   2   3
TORSDOF 14
ENDMDL
MODEL      106
REMARK 921   NORMALIZED FREE ENERGY PREDICTED BY IDOCK:   -4.29 KCAL/MOL
REMARK 922        TOTAL FREE ENERGY PREDICTED BY IDOCK:   -9.62 KCAL/MOL
REMARK 923 INTER-LIGAND FREE ENERGY PREDICTED BY IDOCK:   -7.04 KCAL/MOL
REMARK 924 INTRA-LIGAND FREE ENERGY PREDICTED BY IDOCK:   -2.58 KCAL/MOL
REMARK 927      BINDING AFFINITY PREDICTED BY RF-SCORE:    0.00 PKD
ROOT
HETATM    1  C   UNL     1     -10.177  15.360  69.528  1.00  0.00    -0.270 C  
HETATM    2  O   UNL     1     -11.574  15.113  69.441  1.00  0.00    -0.285 OA 
ENDROOT
BRANCH   2   3
HETATM    3  C   UNL     1     -11.997  13.813  69.714  1.00  0.00    -0.344 C  
HETATM    4  C   UNL     1     -12.431  13.530  70.956  1.00  0.00    -0.369 C  
HETATM    5  C   UNL     1     -12.863  12.134  71.266  1.00  0.00    -0.250 C  
HETATM    6  O   UNL     1     -11.841  12.955  67.475  1.00  0.00    -0.360 OA 
HETATM    7  O   UNL     1     -13.604  11.853  72.202  1.00  0.00    -0.377 OA 
HETATM    8  C   UNL     1     -11.929  12.728  68.677  1.00  0.00    -0.233 C  
HETATM    9  C   UNL     1     -12.314  11.049  70.406  1.00  0.00    -0.442 C  
HETATM   10  C   UNL     1     -11.408  10.315  68.162  1.00  0.00    -0.233 C  
HETATM   11  C   UNL     1     -11.901  11.325  69.159  1.00  0.00    -0.423 C  
BRANCH   4  12
HETATM   12  O   UNL     1     -12.468  14.558  71.898  1.00  0.00    -0.330 OA 
HETATM   13  C   UNL     1     -13.713  15.196  72.154  1.00  0.00    -0.477 C  
ENDBRANCH   4  12
BRANCH   9  14
HETATM   14  C   UNL     1     -12.252   9.695  71.043  1.00  0.00    -0.409 C  
BRANCH  14  15
HETATM   15  C   UNL     1     -10.862   9.352  71.583  1.00  0.00    -0.348 C  
BRANCH  15  16
HETATM   16  C   UNL     1     -10.620   7.843  71.603  1.00  0.00    -0.267 C  
BRANCH  16  17
HETATM   17  C   UNL     1     -11.477   7.127  70.565  1.00  0.00    -0.334 C  
BRANCH  17  18
HETATM   18  C   UNL     1     -10.704   6.823  69.296  1.00  0.00    -0.288 C  
BRANCH  18  19
HETATM   19  C   UNL     1      -9.225   6.691  69.635  1.00  0.00    -0.145 C  
BRANCH  19  20
HETATM   20  C   UNL     1      -8.390   7.567  68.719  1.00  0.00    -0.129 C  
BRANCH  20  21
HETATM   21  C   UNL     1      -7.571   8.559  69.531  1.00  0.00    -0.089 C  
BRANCH  21  22
HETATM   22  C   UNL     1      -7.886   9.980  69.088  1.00  0.00    -0.112 C  
BRANCH  22  23
HETATM   23  C   UNL     1      -7.946  10.073  67.569  1.00  0.00    -0.106 C  
BRANCH  23  24
HETATM   24  C   UNL     1      -8.084  11.523  67.127  1.00  0.00    -0.159 C  
BRANCH  24  25
HETATM   25  C   UNL     1      -8.216  12.451  68.324  1.00  0.00    -0.170 C  
HETATM   26  O   UNL     1      -7.145  13.385  68.325  1.00  0.00    -0.087 OA 
HETATM   27  H   UNL     1      -7.228  13.965  69.073  1.00  0.00     0.000 HD 
ENDBRANCH  24  25
ENDBRANCH  23  24
ENDBRANCH  22  23
ENDBRANCH  21  22
ENDBRANCH  20  21
ENDBRANCH  19  20
ENDBRANCH  18  19
ENDBRANCH  17  18
ENDBRANCH  16  17
ENDBRANCH  15  16
ENDBRANCH  14  15
ENDBRANCH   9  14
ENDBRANCH   2   3
TORSDOF 14
ENDMDL
MODEL      107
REMARK 921   NORMALIZED FREE ENERGY PREDICTED BY IDOCK:   -4.29 KCAL/MOL
REMARK 922        TOTAL FREE ENERGY PREDICTED BY IDOCK:   -9.62 KCAL/MOL
REMARK 923 INTER-LIGAND FREE ENERGY PREDICTED BY IDOCK:   -8.07 KCAL/MOL
REMARK 924 INTRA-LIGAND FREE ENERGY PREDICTED BY IDOCK:   -1.55 KCAL/MOL
REMARK 927      BINDING AFFINITY PREDICTED BY RF-SCORE:    0.00 PKD
ROOT
HETATM    1  C   UNL     1      -6.338  13.739  70.532  1.00  0.00     0.028 C  
HETATM    2  O   UNL     1      -5.652  14.329  69.436  1.00  0.00    -0.086 OA 
ENDROOT
BRANCH   2   3
HETATM    3  C   UNL     1      -6.275  15.413  68.819  1.00  0.00    -0.098 C  
HETATM    4  C   UNL     1      -6.917  15.204  67.656  1.00  0.00    -0.182 C  
HETATM    5  C   UNL     1      -7.567  16.364  66.974  1.00  0.00    -0.205 C  
HETATM    6  O   UNL     1      -5.907  17.021  70.566  1.00  0.00    -0.130 OA 
HETATM    7  O   UNL     1      -8.466  16.241  66.150  1.00  0.00    -0.325 OA 
HETATM    8  C   UNL     1      -6.197  16.798  69.396  1.00  0.00    -0.219 C  
HETATM    9  C   UNL     1      -7.043  17.721  67.301  1.00  0.00    -0.201 C  
HETATM   10  C   UNL     1      -5.922  19.267  68.959  1.00  0.00    -0.257 C  
HETATM   11  C   UNL     1      -6.421  17.936  68.470  1.00  0.00    -0.211 C  
BRANCH   4  12
HETATM   12  O   UNL     1      -6.959  13.909  67.142  1.00  0.00    -0.125 OA 
HETATM   13  C   UNL     1      -8.135  13.136  67.348  1.00  0.00    -0.179 C  
ENDBRANCH   4  12
BRANCH   9  14
HETATM   14  C   UNL     1      -7.249  18.759  66.242  1.00  0.00    -0.279 C  
BRANCH  14  15
HETATM   15  C   UNL     1      -8.673  19.319  66.223  1.00  0.00    -0.333 C  
BRANCH  15  16
HETATM   16  C   UNL     1      -8.898  20.331  67.346  1.00  0.00    -0.442 C  
BRANCH  16  17
HETATM   17  C   UNL     1     -10.062  19.921  68.240  1.00  0.00    -0.571 C  
BRANCH  17  18
HETATM   18  C   UNL     1     -10.649  18.581  67.838  1.00  0.00    -0.385 C  
BRANCH  18  19
HETATM   19  C   UNL     1     -10.399  17.575  68.955  1.00  0.00    -0.338 C  
BRANCH  19  20
HETATM   20  C   UNL     1     -11.114  16.269  68.662  1.00  0.00    -0.356 C  
BRANCH  20  21
HETATM   21  C   UNL     1     -11.195  15.412  69.917  1.00  0.00    -0.310 C  
BRANCH  21  22
HETATM   22  C   UNL     1     -12.439  15.773  70.714  1.00  0.00    -0.420 C  
BRANCH  22  23
HETATM   23  C   UNL     1     -13.135  14.520  71.230  1.00  0.00    -0.417 C  
BRANCH  23  24
HETATM   24  C   UNL     1     -13.408  14.637  72.723  1.00  0.00    -0.593 C  
BRANCH  24  25
HETATM   25  C   UNL     1     -13.314  16.081  73.187  1.00  0.00    -0.533 C  
HETATM   26  O   UNL     1     -12.679  16.135  74.456  1.00  0.00    -0.897 OA 
HETATM   27  H   UNL     1     -12.620  17.038  74.746  1.00  0.00     0.000 HD 
ENDBRANCH  24  25
ENDBRANCH  23  24
ENDBRANCH  22  23
ENDBRANCH  21  22
ENDBRANCH  20  21
ENDBRANCH  19  20
ENDBRANCH  18  19
ENDBRANCH  17  18
ENDBRANCH  16  17
ENDBRANCH  15  16
ENDBRANCH  14  15
ENDBRANCH   9  14
ENDBRANCH   2   3
TORSDOF 14
ENDMDL
MODEL      108
REMARK 921   NORMALIZED FREE ENERGY PREDICTED BY IDOCK:   -4.28 KCAL/MOL
REMARK 922        TOTAL FREE ENERGY PREDICTED BY IDOCK:   -9.61 KCAL/MOL
REMARK 923 INTER-LIGAND FREE ENERGY PREDICTED BY IDOCK:   -8.22 KCAL/MOL
REMARK 924 INTRA-LIGAND FREE ENERGY PREDICTED BY IDOCK:   -1.38 KCAL/MOL
REMARK 927      BINDING AFFINITY PREDICTED BY RF-SCORE:    0.00 PKD
ROOT
HETATM    1  C   UNL     1      -8.039  18.583  65.978  1.00  0.00    -0.088 C  
HETATM    2  O   UNL     1      -9.453  18.674  65.859  1.00  0.00    -0.477 OA 
ENDROOT
BRANCH   2   3
HETATM    3  C   UNL     1     -10.191  17.589  66.330  1.00  0.00    -0.354 C  
HETATM    4  C   UNL     1     -10.259  17.393  67.659  1.00  0.00    -0.342 C  
HETATM    5  C   UNL     1     -11.027  16.219  68.175  1.00  0.00    -0.343 C  
HETATM    6  O   UNL     1     -11.097  16.885  64.220  1.00  0.00    -1.135 OA 
HETATM    7  O   UNL     1     -11.466  16.153  69.318  1.00  0.00    -0.334 OA 
HETATM    8  C   UNL     1     -10.856  16.622  65.393  1.00  0.00    -0.173 C  
HETATM    9  C   UNL     1     -11.213  15.071  67.243  1.00  0.00    -0.339 C  
HETATM   10  C   UNL     1     -11.421  14.221  64.870  1.00  0.00    -0.378 C  
HETATM   11  C   UNL     1     -11.167  15.269  65.916  1.00  0.00    -0.237 C  
BRANCH   4  12
HETATM   12  O   UNL     1      -9.619  18.302  68.501  1.00  0.00    -0.314 OA 
HETATM   13  C   UNL     1     -10.280  19.524  68.806  1.00  0.00    -0.349 C  
ENDBRANCH   4  12
BRANCH   9  14
HETATM   14  C   UNL     1     -11.425  13.741  67.898  1.00  0.00    -0.347 C  
BRANCH  14  15
HETATM   15  C   UNL     1     -10.116  13.050  68.286  1.00  0.00    -0.239 C  
BRANCH  15  16
HETATM   16  C   UNL     1     -10.096  11.588  67.842  1.00  0.00    -0.202 C  
BRANCH  16  17
HETATM   17  C   UNL     1      -9.199  11.386  66.626  1.00  0.00    -0.191 C  
BRANCH  17  18
HETATM   18  C   UNL     1      -9.182   9.943  66.160  1.00  0.00    -0.211 C  
BRANCH  18  19
HETATM   19  C   UNL     1     -10.463   9.258  66.619  1.00  0.00    -0.237 C  
BRANCH  19  20
HETATM   20  C   UNL     1     -10.154   7.894  67.208  1.00  0.00    -0.307 C  
BRANCH  20  21
HETATM   21  C   UNL     1      -8.699   7.819  67.646  1.00  0.00    -0.126 C  
BRANCH  21  22
HETATM   22  C   UNL     1      -8.613   7.808  69.165  1.00  0.00    -0.138 C  
BRANCH  22  23
HETATM   23  C   UNL     1      -9.989   8.009  69.787  1.00  0.00    -0.191 C  
BRANCH  23  24
HETATM   24  C   UNL     1      -9.933   9.072  70.876  1.00  0.00    -0.326 C  
BRANCH  24  25
HETATM   25  C   UNL     1     -11.313   9.644  71.156  1.00  0.00    -0.386 C  
HETATM   26  O   UNL     1     -12.121   9.532  69.993  1.00  0.00    -0.462 OA 
HETATM   27  H   UNL     1     -12.984   9.889  70.167  1.00  0.00     0.000 HD 
ENDBRANCH  24  25
ENDBRANCH  23  24
ENDBRANCH  22  23
ENDBRANCH  21  22
ENDBRANCH  20  21
ENDBRANCH  19  20
ENDBRANCH  18  19
ENDBRANCH  17  18
ENDBRANCH  16  17
ENDBRANCH  15  16
ENDBRANCH  14  15
ENDBRANCH   9  14
ENDBRANCH   2   3
TORSDOF 14
ENDMDL
MODEL      109
REMARK 921   NORMALIZED FREE ENERGY PREDICTED BY IDOCK:   -4.26 KCAL/MOL
REMARK 922        TOTAL FREE ENERGY PREDICTED BY IDOCK:   -9.57 KCAL/MOL
REMARK 923 INTER-LIGAND FREE ENERGY PREDICTED BY IDOCK:   -7.22 KCAL/MOL
REMARK 924 INTRA-LIGAND FREE ENERGY PREDICTED BY IDOCK:   -2.35 KCAL/MOL
REMARK 927      BINDING AFFINITY PREDICTED BY RF-SCORE:    0.00 PKD
ROOT
HETATM    1  C   UNL     1     -12.267  14.132  66.604  1.00  0.00    -0.418 C  
HETATM    2  O   UNL     1     -11.196  14.257  67.531  1.00  0.00    -0.285 OA 
ENDROOT
BRANCH   2   3
HETATM    3  C   UNL     1     -10.954  13.163  68.359  1.00  0.00    -0.262 C  
HETATM    4  C   UNL     1     -10.005  12.282  67.994  1.00  0.00    -0.202 C  
HETATM    5  C   UNL     1      -9.755  11.092  68.861  1.00  0.00    -0.172 C  
HETATM    6  O   UNL     1     -12.408  13.805  70.161  1.00  0.00    -0.335 OA 
HETATM    7  O   UNL     1      -8.708  10.454  68.842  1.00  0.00    -0.139 OA 
HETATM    8  C   UNL     1     -11.758  12.926  69.606  1.00  0.00    -0.299 C  
HETATM    9  C   UNL     1     -10.869  10.658  69.752  1.00  0.00    -0.317 C  
HETATM   10  C   UNL     1     -12.927  11.258  71.093  1.00  0.00    -0.369 C  
HETATM   11  C   UNL     1     -11.804  11.541  70.135  1.00  0.00    -0.440 C  
BRANCH   4  12
HETATM   12  O   UNL     1      -9.287  12.524  66.823  1.00  0.00    -0.218 OA 
HETATM   13  C   UNL     1      -9.506  11.672  65.706  1.00  0.00    -0.226 C  
ENDBRANCH   4  12
BRANCH   9  14
HETATM   14  C   UNL     1     -10.854   9.211  70.138  1.00  0.00    -0.269 C  
BRANCH  14  15
HETATM   15  C   UNL     1     -10.183   8.960  71.490  1.00  0.00    -0.398 C  
BRANCH  15  16
HETATM   16  C   UNL     1     -11.096   8.185  72.440  1.00  0.00    -0.437 C  
BRANCH  16  17
HETATM   17  C   UNL     1     -10.296   7.467  73.520  1.00  0.00    -0.405 C  
BRANCH  17  18
HETATM   18  C   UNL     1      -9.371   6.412  72.941  1.00  0.00    -0.140 C  
BRANCH  18  19
HETATM   19  C   UNL     1     -10.209   5.330  72.273  1.00  0.00    -0.250 C  
BRANCH  19  20
HETATM   20  C   UNL     1      -9.751   5.112  70.842  1.00  0.00    -0.252 C  
BRANCH  20  21
HETATM   21  C   UNL     1     -10.854   5.494  69.866  1.00  0.00    -0.298 C  
BRANCH  21  22
HETATM   22  C   UNL     1     -10.250   5.871  68.521  1.00  0.00    -0.240 C  
BRANCH  22  23
HETATM   23  C   UNL     1      -8.809   6.336  68.686  1.00  0.00    -0.119 C  
BRANCH  23  24
HETATM   24  C   UNL     1      -8.452   7.363  67.620  1.00  0.00    -0.120 C  
BRANCH  24  25
HETATM   25  C   UNL     1      -9.663   7.713  66.770  1.00  0.00    -0.222 C  
HETATM   26  O   UNL     1      -9.251   7.962  65.433  1.00  0.00    -0.394 OA 
HETATM   27  H   UNL     1     -10.008   8.180  64.901  1.00  0.00     0.000 HD 
ENDBRANCH  24  25
ENDBRANCH  23  24
ENDBRANCH  22  23
ENDBRANCH  21  22
ENDBRANCH  20  21
ENDBRANCH  19  20
ENDBRANCH  18  19
ENDBRANCH  17  18
ENDBRANCH  16  17
ENDBRANCH  15  16
ENDBRANCH  14  15
ENDBRANCH   9  14
ENDBRANCH   2   3
TORSDOF 14
ENDMDL
MODEL      110
REMARK 921   NORMALIZED FREE ENERGY PREDICTED BY IDOCK:   -4.26 KCAL/MOL
REMARK 922        TOTAL FREE ENERGY PREDICTED BY IDOCK:   -9.57 KCAL/MOL
REMARK 923 INTER-LIGAND FREE ENERGY PREDICTED BY IDOCK:   -7.86 KCAL/MOL
REMARK 924 INTRA-LIGAND FREE ENERGY PREDICTED BY IDOCK:   -1.71 KCAL/MOL
REMARK 927      BINDING AFFINITY PREDICTED BY RF-SCORE:    0.00 PKD
ROOT
HETATM    1  C   UNL     1      -6.830  11.371  66.859  1.00  0.00    -0.142 C  
HETATM    2  O   UNL     1      -7.876  10.792  66.090  1.00  0.00    -0.150 OA 
ENDROOT
BRANCH   2   3
HETATM    3  C   UNL     1      -9.123  10.693  66.705  1.00  0.00    -0.160 C  
HETATM    4  C   UNL     1     -10.031  11.656  66.465  1.00  0.00    -0.203 C  
HETATM    5  C   UNL     1     -11.363  11.573  67.138  1.00  0.00    -0.284 C  
HETATM    6  O   UNL     1      -8.815   8.526  67.695  1.00  0.00    -0.135 OA 
HETATM    7  O   UNL     1     -12.362  12.150  66.723  1.00  0.00    -0.429 OA 
HETATM    8  C   UNL     1      -9.447   9.576  67.656  1.00  0.00    -0.131 C  
HETATM    9  C   UNL     1     -11.436  10.780  68.397  1.00  0.00    -0.358 C  
HETATM   10  C   UNL     1     -10.554   8.878  69.811  1.00  0.00    -0.230 C  
HETATM   11  C   UNL     1     -10.543   9.804  68.628  1.00  0.00    -0.249 C  
BRANCH   4  12
HETATM   12  O   UNL     1      -9.694  12.686  65.587  1.00  0.00    -0.232 OA 
HETATM   13  C   UNL     1     -10.185  12.627  64.254  1.00  0.00    -0.332 C  
ENDBRANCH   4  12
BRANCH   9  14
HETATM   14  C   UNL     1     -12.532  11.172  69.339  1.00  0.00    -0.085 C  
BRANCH  14  15
HETATM   15  C   UNL     1     -12.020  11.907  70.580  1.00  0.00    -0.360 C  
BRANCH  15  16
HETATM   16  C   UNL     1     -12.932  11.684  71.786  1.00  0.00    -0.483 C  
BRANCH  16  17
HETATM   17  C   UNL     1     -13.713  12.946  72.134  1.00  0.00    -0.505 C  
BRANCH  17  18
HETATM   18  C   UNL     1     -12.818  14.039  72.688  1.00  0.00    -0.403 C  
BRANCH  18  19
HETATM   19  C   UNL     1     -13.151  15.352  71.991  1.00  0.00    -0.501 C  
BRANCH  19  20
HETATM   20  C   UNL     1     -11.890  16.167  71.766  1.00  0.00    -0.581 C  
BRANCH  20  21
HETATM   21  C   UNL     1     -11.071  15.579  70.627  1.00  0.00    -0.378 C  
BRANCH  21  22
HETATM   22  C   UNL     1     -11.598  16.085  69.292  1.00  0.00    -0.331 C  
BRANCH  22  23
HETATM   23  C   UNL     1     -10.713  17.198  68.747  1.00  0.00    -0.289 C  
BRANCH  23  24
HETATM   24  C   UNL     1     -10.339  16.923  67.297  1.00  0.00    -0.309 C  
BRANCH  24  25
HETATM   25  C   UNL     1     -10.242  15.430  67.030  1.00  0.00    -0.262 C  
HETATM   26  O   UNL     1     -11.382  14.999  66.300  1.00  0.00    -0.341 OA 
HETATM   27  H   UNL     1     -11.321  14.066  66.133  1.00  0.00     0.000 HD 
ENDBRANCH  24  25
ENDBRANCH  23  24
ENDBRANCH  22  23
ENDBRANCH  21  22
ENDBRANCH  20  21
ENDBRANCH  19  20
ENDBRANCH  18  19
ENDBRANCH  17  18
ENDBRANCH  16  17
ENDBRANCH  15  16
ENDBRANCH  14  15
ENDBRANCH   9  14
ENDBRANCH   2   3
TORSDOF 14
ENDMDL
MODEL      111
REMARK 921   NORMALIZED FREE ENERGY PREDICTED BY IDOCK:   -4.25 KCAL/MOL
REMARK 922        TOTAL FREE ENERGY PREDICTED BY IDOCK:   -9.56 KCAL/MOL
REMARK 923 INTER-LIGAND FREE ENERGY PREDICTED BY IDOCK:   -7.34 KCAL/MOL
REMARK 924 INTRA-LIGAND FREE ENERGY PREDICTED BY IDOCK:   -2.21 KCAL/MOL
REMARK 927      BINDING AFFINITY PREDICTED BY RF-SCORE:    0.00 PKD
ROOT
HETATM    1  C   UNL     1     -10.782   8.109  71.378  1.00  0.00    -0.232 C  
HETATM    2  O   UNL     1     -10.355   9.455  71.213  1.00  0.00    -0.317 OA 
ENDROOT
BRANCH   2   3
HETATM    3  C   UNL     1     -10.257   9.923  69.904  1.00  0.00    -0.257 C  
HETATM    4  C   UNL     1     -11.349  10.466  69.336  1.00  0.00    -0.250 C  
HETATM    5  C   UNL     1     -11.261  10.949  67.925  1.00  0.00    -0.321 C  
HETATM    6  O   UNL     1      -7.893   9.595  69.629  1.00  0.00    -0.099 OA 
HETATM    7  O   UNL     1     -12.035  11.772  67.447  1.00  0.00    -0.617 OA 
HETATM    8  C   UNL     1      -8.987   9.788  69.112  1.00  0.00    -0.161 C  
HETATM    9  C   UNL     1     -10.199  10.349  67.069  1.00  0.00    -0.277 C  
HETATM   10  C   UNL     1      -7.919   9.270  66.887  1.00  0.00    -0.105 C  
HETATM   11  C   UNL     1      -9.098   9.827  67.633  1.00  0.00    -0.140 C  
BRANCH   4  12
HETATM   12  O   UNL     1     -12.515  10.564  70.094  1.00  0.00    -0.295 OA 
HETATM   13  C   UNL     1     -12.621  11.625  71.036  1.00  0.00    -0.331 C  
ENDBRANCH   4  12
BRANCH   9  14
HETATM   14  C   UNL     1     -10.475  10.366  65.597  1.00  0.00    -0.185 C  
BRANCH  14  15
HETATM   15  C   UNL     1      -9.531  11.287  64.822  1.00  0.00    -0.221 C  
BRANCH  15  16
HETATM   16  C   UNL     1     -10.277  12.102  63.766  1.00  0.00    -0.449 C  
BRANCH  16  17
HETATM   17  C   UNL     1     -11.777  11.835  63.812  1.00  0.00    -0.499 C  
BRANCH  17  18
HETATM   18  C   UNL     1     -12.586  13.117  63.856  1.00  0.00    -0.249 C  
BRANCH  18  19
HETATM   19  C   UNL     1     -11.741  14.215  64.489  1.00  0.00    -0.426 C  
BRANCH  19  20
HETATM   20  C   UNL     1     -12.169  14.452  65.926  1.00  0.00    -0.354 C  
BRANCH  20  21
HETATM   21  C   UNL     1     -11.090  15.209  66.686  1.00  0.00    -0.308 C  
BRANCH  21  22
HETATM   22  C   UNL     1      -9.755  15.068  65.971  1.00  0.00    -0.359 C  
BRANCH  22  23
HETATM   23  C   UNL     1      -8.614  14.941  66.972  1.00  0.00    -0.265 C  
BRANCH  23  24
HETATM   24  C   UNL     1      -8.490  13.505  67.463  1.00  0.00    -0.192 C  
BRANCH  24  25
HETATM   25  C   UNL     1      -7.103  13.234  68.020  1.00  0.00    -0.122 C  
HETATM   26  O   UNL     1      -7.209  12.746  69.350  1.00  0.00    -0.314 OA 
HETATM   27  H   UNL     1      -6.342  12.576  69.698  1.00  0.00     0.000 HD 
ENDBRANCH  24  25
ENDBRANCH  23  24
ENDBRANCH  22  23
ENDBRANCH  21  22
ENDBRANCH  20  21
ENDBRANCH  19  20
ENDBRANCH  18  19
ENDBRANCH  17  18
ENDBRANCH  16  17
ENDBRANCH  15  16
ENDBRANCH  14  15
ENDBRANCH   9  14
ENDBRANCH   2   3
TORSDOF 14
ENDMDL
MODEL      112
REMARK 921   NORMALIZED FREE ENERGY PREDICTED BY IDOCK:   -4.25 KCAL/MOL
REMARK 922        TOTAL FREE ENERGY PREDICTED BY IDOCK:   -9.55 KCAL/MOL
REMARK 923 INTER-LIGAND FREE ENERGY PREDICTED BY IDOCK:   -7.64 KCAL/MOL
REMARK 924 INTRA-LIGAND FREE ENERGY PREDICTED BY IDOCK:   -1.91 KCAL/MOL
REMARK 927      BINDING AFFINITY PREDICTED BY RF-SCORE:    0.00 PKD
ROOT
HETATM    1  C   UNL     1      -8.788   4.635  68.350  1.00  0.00    -0.105 C  
HETATM    2  O   UNL     1      -8.334   5.745  69.113  1.00  0.00    -0.103 OA 
ENDROOT
BRANCH   2   3
HETATM    3  C   UNL     1      -9.251   6.771  69.331  1.00  0.00    -0.143 C  
HETATM    4  C   UNL     1      -9.206   7.849  68.529  1.00  0.00    -0.138 C  
HETATM    5  C   UNL     1     -10.169   8.966  68.769  1.00  0.00    -0.206 C  
HETATM    6  O   UNL     1     -10.548   5.676  71.032  1.00  0.00    -0.237 OA 
HETATM    7  O   UNL     1     -10.470   9.790  67.912  1.00  0.00    -0.208 OA 
HETATM    8  C   UNL     1     -10.240   6.717  70.461  1.00  0.00    -0.189 C  
HETATM    9  C   UNL     1     -10.739   9.084  70.141  1.00  0.00    -0.258 C  
HETATM   10  C   UNL     1     -11.430   7.965  72.301  1.00  0.00    -0.403 C  
HETATM   11  C   UNL     1     -10.805   8.004  70.935  1.00  0.00    -0.248 C  
BRANCH   4  12
HETATM   12  O   UNL     1      -8.268   7.873  67.497  1.00  0.00    -0.121 OA 
HETATM   13  C   UNL     1      -8.715   7.629  66.170  1.00  0.00    -0.156 C  
ENDBRANCH   4  12
BRANCH   9  14
HETATM   14  C   UNL     1     -11.188  10.458  70.533  1.00  0.00    -0.395 C  
BRANCH  14  15
HETATM   15  C   UNL     1     -12.708  10.628  70.482  1.00  0.00    -0.395 C  
BRANCH  15  16
HETATM   16  C   UNL     1     -13.266  11.126  71.815  1.00  0.00    -0.486 C  
BRANCH  16  17
HETATM   17  C   UNL     1     -12.801  12.545  72.119  1.00  0.00    -0.189 C  
BRANCH  17  18
HETATM   18  C   UNL     1     -13.962  13.514  72.242  1.00  0.00    -0.638 C  
BRANCH  18  19
HETATM   19  C   UNL     1     -13.420  14.896  72.581  1.00  0.00    -0.573 C  
BRANCH  19  20
HETATM   20  C   UNL     1     -13.022  15.635  71.316  1.00  0.00    -0.556 C  
BRANCH  20  21
HETATM   21  C   UNL     1     -11.523  15.890  71.296  1.00  0.00    -0.489 C  
BRANCH  21  22
HETATM   22  C   UNL     1     -10.893  15.193  70.099  1.00  0.00    -0.265 C  
BRANCH  22  23
HETATM   23  C   UNL     1     -11.965  14.660  69.157  1.00  0.00    -0.329 C  
BRANCH  23  24
HETATM   24  C   UNL     1     -11.440  13.468  68.369  1.00  0.00    -0.346 C  
BRANCH  24  25
HETATM   25  C   UNL     1     -10.071  13.762  67.777  1.00  0.00    -0.245 C  
HETATM   26  O   UNL     1      -9.684  12.698  66.919  1.00  0.00    -0.222 OA 
HETATM   27  H   UNL     1      -8.828  12.882  66.549  1.00  0.00     0.000 HD 
ENDBRANCH  24  25
ENDBRANCH  23  24
ENDBRANCH  22  23
ENDBRANCH  21  22
ENDBRANCH  20  21
ENDBRANCH  19  20
ENDBRANCH  18  19
ENDBRANCH  17  18
ENDBRANCH  16  17
ENDBRANCH  15  16
ENDBRANCH  14  15
ENDBRANCH   9  14
ENDBRANCH   2   3
TORSDOF 14
ENDMDL
MODEL      113
REMARK 921   NORMALIZED FREE ENERGY PREDICTED BY IDOCK:   -4.24 KCAL/MOL
REMARK 922        TOTAL FREE ENERGY PREDICTED BY IDOCK:   -9.53 KCAL/MOL
REMARK 923 INTER-LIGAND FREE ENERGY PREDICTED BY IDOCK:   -8.73 KCAL/MOL
REMARK 924 INTRA-LIGAND FREE ENERGY PREDICTED BY IDOCK:   -0.80 KCAL/MOL
REMARK 927      BINDING AFFINITY PREDICTED BY RF-SCORE:    0.00 PKD
ROOT
HETATM    1  C   UNL     1      -9.231   1.616  69.059  1.00  0.00    -0.132 C  
HETATM    2  O   UNL     1      -8.680   2.726  69.753  1.00  0.00    -0.062 OA 
ENDROOT
BRANCH   2   3
HETATM    3  C   UNL     1      -9.583   3.667  70.245  1.00  0.00    -0.176 C  
HETATM    4  C   UNL     1      -9.914   4.706  69.458  1.00  0.00    -0.196 C  
HETATM    5  C   UNL     1     -10.862   5.734  69.984  1.00  0.00    -0.333 C  
HETATM    6  O   UNL     1     -10.138   2.532  72.288  1.00  0.00    -0.155 OA 
HETATM    7  O   UNL     1     -11.510   6.484  69.261  1.00  0.00    -0.340 OA 
HETATM    8  C   UNL     1     -10.143   3.570  71.635  1.00  0.00    -0.048 C  
HETATM    9  C   UNL     1     -10.970   5.860  71.465  1.00  0.00    -0.323 C  
HETATM   10  C   UNL     1     -10.805   4.781  73.746  1.00  0.00    -0.379 C  
HETATM   11  C   UNL     1     -10.661   4.817  72.251  1.00  0.00    -0.225 C  
BRANCH   4  12
HETATM   12  O   UNL     1      -9.366   4.773  68.177  1.00  0.00    -0.121 OA 
HETATM   13  C   UNL     1      -8.350   5.737  67.926  1.00  0.00    -0.104 C  
ENDBRANCH   4  12
BRANCH   9  14
HETATM   14  C   UNL     1     -11.414   7.200  71.964  1.00  0.00    -0.310 C  
BRANCH  14  15
HETATM   15  C   UNL     1     -12.930   7.395  71.889  1.00  0.00    -0.296 C  
BRANCH  15  16
HETATM   16  C   UNL     1     -13.317   8.868  72.012  1.00  0.00    -0.471 C  
BRANCH  16  17
HETATM   17  C   UNL     1     -12.140   9.783  71.694  1.00  0.00    -0.475 C  
BRANCH  17  18
HETATM   18  C   UNL     1     -12.591  11.137  71.180  1.00  0.00    -0.513 C  
BRANCH  18  19
HETATM   19  C   UNL     1     -11.976  11.376  69.807  1.00  0.00    -0.422 C  
BRANCH  19  20
HETATM   20  C   UNL     1     -11.878  12.863  69.520  1.00  0.00    -0.383 C  
BRANCH  20  21
HETATM   21  C   UNL     1     -11.661  13.106  68.034  1.00  0.00    -0.371 C  
BRANCH  21  22
HETATM   22  C   UNL     1     -11.522  11.779  67.305  1.00  0.00    -0.373 C  
BRANCH  22  23
HETATM   23  C   UNL     1     -11.222  12.000  65.828  1.00  0.00    -0.383 C  
BRANCH  23  24
HETATM   24  C   UNL     1     -12.413  12.643  65.131  1.00  0.00    -0.531 C  
BRANCH  24  25
HETATM   25  C   UNL     1     -12.056  13.070  63.717  1.00  0.00    -0.502 C  
HETATM   26  O   UNL     1     -12.504  14.399  63.492  1.00  0.00    -1.102 OA 
HETATM   27  H   UNL     1     -12.281  14.666  62.608  1.00  0.00     0.000 HD 
ENDBRANCH  24  25
ENDBRANCH  23  24
ENDBRANCH  22  23
ENDBRANCH  21  22
ENDBRANCH  20  21
ENDBRANCH  19  20
ENDBRANCH  18  19
ENDBRANCH  17  18
ENDBRANCH  16  17
ENDBRANCH  15  16
ENDBRANCH  14  15
ENDBRANCH   9  14
ENDBRANCH   2   3
TORSDOF 14
ENDMDL
MODEL      114
REMARK 921   NORMALIZED FREE ENERGY PREDICTED BY IDOCK:   -4.23 KCAL/MOL
REMARK 922        TOTAL FREE ENERGY PREDICTED BY IDOCK:   -9.52 KCAL/MOL
REMARK 923 INTER-LIGAND FREE ENERGY PREDICTED BY IDOCK:   -8.01 KCAL/MOL
REMARK 924 INTRA-LIGAND FREE ENERGY PREDICTED BY IDOCK:   -1.50 KCAL/MOL
REMARK 927      BINDING AFFINITY PREDICTED BY RF-SCORE:    0.00 PKD
ROOT
HETATM    1  C   UNL     1      -8.532  16.274  68.006  1.00  0.00    -0.174 C  
HETATM    2  O   UNL     1      -8.718  15.562  66.790  1.00  0.00    -0.223 OA 
ENDROOT
BRANCH   2   3
HETATM    3  C   UNL     1      -9.282  14.291  66.889  1.00  0.00    -0.254 C  
HETATM    4  C   UNL     1     -10.576  14.139  66.555  1.00  0.00    -0.282 C  
HETATM    5  C   UNL     1     -11.196  12.786  66.681  1.00  0.00    -0.301 C  
HETATM    6  O   UNL     1      -7.270  13.098  67.436  1.00  0.00    -0.155 OA 
HETATM    7  O   UNL     1     -12.208  12.451  66.073  1.00  0.00    -0.636 OA 
HETATM    8  C   UNL     1      -8.495  13.119  67.402  1.00  0.00    -0.201 C  
HETATM    9  C   UNL     1     -10.557  11.834  67.633  1.00  0.00    -0.237 C  
HETATM   10  C   UNL     1      -8.474  11.037  68.825  1.00  0.00    -0.144 C  
HETATM   11  C   UNL     1      -9.260  11.972  67.949  1.00  0.00    -0.190 C  
BRANCH   4  12
HETATM   12  O   UNL     1     -11.280  15.251  66.095  1.00  0.00    -0.318 OA 
HETATM   13  C   UNL     1     -11.260  15.536  64.702  1.00  0.00    -0.371 C  
ENDBRANCH   4  12
BRANCH   9  14
HETATM   14  C   UNL     1     -11.461  10.777  68.188  1.00  0.00    -0.346 C  
BRANCH  14  15
HETATM   15  C   UNL     1     -12.211  11.231  69.442  1.00  0.00    -0.315 C  
BRANCH  15  16
HETATM   16  C   UNL     1     -11.666  10.557  70.701  1.00  0.00    -0.453 C  
BRANCH  16  17
HETATM   17  C   UNL     1     -12.783   9.930  71.527  1.00  0.00    -0.515 C  
BRANCH  17  18
HETATM   18  C   UNL     1     -12.339   8.654  72.215  1.00  0.00    -0.449 C  
BRANCH  18  19
HETATM   19  C   UNL     1     -10.828   8.519  72.082  1.00  0.00    -0.427 C  
BRANCH  19  20
HETATM   20  C   UNL     1     -10.260   7.736  73.252  1.00  0.00    -0.367 C  
BRANCH  20  21
HETATM   21  C   UNL     1     -10.344   6.241  72.984  1.00  0.00    -0.230 C  
BRANCH  21  22
HETATM   22  C   UNL     1      -9.406   5.862  71.848  1.00  0.00    -0.163 C  
BRANCH  22  23
HETATM   23  C   UNL     1      -9.998   4.738  71.008  1.00  0.00    -0.279 C  
BRANCH  23  24
HETATM   24  C   UNL     1     -10.231   5.205  69.578  1.00  0.00    -0.318 C  
BRANCH  24  25
HETATM   25  C   UNL     1     -11.461   6.093  69.484  1.00  0.00    -0.229 C  
HETATM   26  O   UNL     1     -11.136   7.288  68.789  1.00  0.00    -0.435 OA 
HETATM   27  H   UNL     1     -11.905   7.843  68.730  1.00  0.00     0.000 HD 
ENDBRANCH  24  25
ENDBRANCH  23  24
ENDBRANCH  22  23
ENDBRANCH  21  22
ENDBRANCH  20  21
ENDBRANCH  19  20
ENDBRANCH  18  19
ENDBRANCH  17  18
ENDBRANCH  16  17
ENDBRANCH  15  16
ENDBRANCH  14  15
ENDBRANCH   9  14
ENDBRANCH   2   3
TORSDOF 14
ENDMDL
MODEL      115
REMARK 921   NORMALIZED FREE ENERGY PREDICTED BY IDOCK:   -4.23 KCAL/MOL
REMARK 922        TOTAL FREE ENERGY PREDICTED BY IDOCK:   -9.51 KCAL/MOL
REMARK 923 INTER-LIGAND FREE ENERGY PREDICTED BY IDOCK:   -7.96 KCAL/MOL
REMARK 924 INTRA-LIGAND FREE ENERGY PREDICTED BY IDOCK:   -1.56 KCAL/MOL
REMARK 927      BINDING AFFINITY PREDICTED BY RF-SCORE:    0.00 PKD
ROOT
HETATM    1  C   UNL     1     -10.889   7.484  67.003  1.00  0.00    -0.194 C  
HETATM    2  O   UNL     1      -9.919   8.417  67.460  1.00  0.00    -0.171 OA 
ENDROOT
BRANCH   2   3
HETATM    3  C   UNL     1     -10.157   9.760  67.171  1.00  0.00    -0.211 C  
HETATM    4  C   UNL     1     -10.467  10.586  68.185  1.00  0.00    -0.186 C  
HETATM    5  C   UNL     1     -10.749  12.022  67.884  1.00  0.00    -0.210 C  
HETATM    6  O   UNL     1      -9.568   9.689  64.842  1.00  0.00    -0.277 OA 
HETATM    7  O   UNL     1     -10.669  12.913  68.722  1.00  0.00    -0.247 OA 
HETATM    8  C   UNL     1     -10.124  10.280  65.762  1.00  0.00    -0.255 C  
HETATM    9  C   UNL     1     -11.190  12.348  66.498  1.00  0.00    -0.368 C  
HETATM   10  C   UNL     1     -11.168  11.789  64.032  1.00  0.00    -0.461 C  
HETATM   11  C   UNL     1     -10.862  11.536  65.481  1.00  0.00    -0.313 C  
BRANCH   4  12
HETATM   12  O   UNL     1     -10.502  10.068  69.480  1.00  0.00    -0.207 OA 
HETATM   13  C   UNL     1     -11.722  10.147  70.207  1.00  0.00    -0.282 C  
ENDBRANCH   4  12
BRANCH   9  14
HETATM   14  C   UNL     1     -12.010  13.594  66.362  1.00  0.00    -0.466 C  
BRANCH  14  15
HETATM   15  C   UNL     1     -11.213  14.777  65.808  1.00  0.00    -0.337 C  
BRANCH  15  16
HETATM   16  C   UNL     1     -11.035  15.879  66.852  1.00  0.00    -0.172 C  
BRANCH  16  17
HETATM   17  C   UNL     1      -9.599  15.940  67.359  1.00  0.00    -0.221 C  
BRANCH  17  18
HETATM   18  C   UNL     1      -8.602  16.137  66.232  1.00  0.00    -0.373 C  
BRANCH  18  19
HETATM   19  C   UNL     1      -7.273  16.593  66.820  1.00  0.00    -0.272 C  
BRANCH  19  20
HETATM   20  C   UNL     1      -6.706  17.749  66.016  1.00  0.00    -0.316 C  
BRANCH  20  21
HETATM   21  C   UNL     1      -7.403  19.049  66.387  1.00  0.00    -0.263 C  
BRANCH  21  22
HETATM   22  C   UNL     1      -7.316  19.276  67.888  1.00  0.00    -0.289 C  
BRANCH  22  23
HETATM   23  C   UNL     1      -8.705  19.414  68.498  1.00  0.00    -0.407 C  
BRANCH  23  24
HETATM   24  C   UNL     1      -9.583  20.306  67.631  1.00  0.00    -0.530 C  
BRANCH  24  25
HETATM   25  C   UNL     1     -10.796  19.549  67.116  1.00  0.00    -0.437 C  
HETATM   26  O   UNL     1     -10.743  19.468  65.699  1.00  0.00    -0.491 OA 
HETATM   27  H   UNL     1     -11.501  18.995  65.377  1.00  0.00     0.000 HD 
ENDBRANCH  24  25
ENDBRANCH  23  24
ENDBRANCH  22  23
ENDBRANCH  21  22
ENDBRANCH  20  21
ENDBRANCH  19  20
ENDBRANCH  18  19
ENDBRANCH  17  18
ENDBRANCH  16  17
ENDBRANCH  15  16
ENDBRANCH  14  15
ENDBRANCH   9  14
ENDBRANCH   2   3
TORSDOF 14
ENDMDL
MODEL      116
REMARK 921   NORMALIZED FREE ENERGY PREDICTED BY IDOCK:   -4.23 KCAL/MOL
REMARK 922        TOTAL FREE ENERGY PREDICTED BY IDOCK:   -9.51 KCAL/MOL
REMARK 923 INTER-LIGAND FREE ENERGY PREDICTED BY IDOCK:   -7.59 KCAL/MOL
REMARK 924 INTRA-LIGAND FREE ENERGY PREDICTED BY IDOCK:   -1.92 KCAL/MOL
REMARK 927      BINDING AFFINITY PREDICTED BY RF-SCORE:    0.00 PKD
ROOT
HETATM    1  C   UNL     1      -8.795  15.191  68.131  1.00  0.00    -0.169 C  
HETATM    2  O   UNL     1      -9.345  13.901  68.361  1.00  0.00    -0.205 OA 
ENDROOT
BRANCH   2   3
HETATM    3  C   UNL     1      -9.159  12.953  67.356  1.00  0.00    -0.197 C  
HETATM    4  C   UNL     1     -10.228  12.564  66.639  1.00  0.00    -0.230 C  
HETATM    5  C   UNL     1     -10.044  11.530  65.576  1.00  0.00    -0.243 C  
HETATM    6  O   UNL     1      -6.762  12.831  67.480  1.00  0.00    -0.135 OA 
HETATM    7  O   UNL     1     -10.825  11.380  64.642  1.00  0.00    -0.317 OA 
HETATM    8  C   UNL     1      -7.815  12.332  67.099  1.00  0.00    -0.149 C  
HETATM    9  C   UNL     1      -8.869  10.624  65.710  1.00  0.00    -0.198 C  
HETATM   10  C   UNL     1      -6.514  10.243  66.548  1.00  0.00    -0.080 C  
HETATM   11  C   UNL     1      -7.792  11.020  66.406  1.00  0.00    -0.150 C  
BRANCH   4  12
HETATM   12  O   UNL     1     -11.463  13.151  66.913  1.00  0.00    -0.309 OA 
HETATM   13  C   UNL     1     -11.891  14.236  66.100  1.00  0.00    -0.402 C  
ENDBRANCH   4  12
BRANCH   9  14
HETATM   14  C   UNL     1      -9.009   9.290  65.044  1.00  0.00    -0.245 C  
BRANCH  14  15
HETATM   15  C   UNL     1      -9.218   8.145  66.037  1.00  0.00    -0.207 C  
BRANCH  15  16
HETATM   16  C   UNL     1     -10.483   8.344  66.872  1.00  0.00    -0.359 C  
BRANCH  16  17
HETATM   17  C   UNL     1     -10.332   7.742  68.264  1.00  0.00    -0.239 C  
BRANCH  17  18
HETATM   18  C   UNL     1     -10.854   6.319  68.331  1.00  0.00    -0.394 C  
BRANCH  18  19
HETATM   19  C   UNL     1     -10.965   5.900  69.792  1.00  0.00    -0.452 C  
BRANCH  19  20
HETATM   20  C   UNL     1     -11.910   6.823  70.538  1.00  0.00    -0.418 C  
BRANCH  20  21
HETATM   21  C   UNL     1     -11.556   6.866  72.017  1.00  0.00    -0.322 C  
BRANCH  21  22
HETATM   22  C   UNL     1     -11.654   8.293  72.535  1.00  0.00    -0.454 C  
BRANCH  22  23
HETATM   23  C   UNL     1     -11.083   9.277  71.521  1.00  0.00    -0.443 C  
BRANCH  23  24
HETATM   24  C   UNL     1     -12.105  10.355  71.188  1.00  0.00    -0.487 C  
BRANCH  24  25
HETATM   25  C   UNL     1     -11.867  10.926  69.800  1.00  0.00    -0.345 C  
HETATM   26  O   UNL     1     -11.550  12.307  69.900  1.00  0.00    -0.440 OA 
HETATM   27  H   UNL     1     -11.401  12.664  69.032  1.00  0.00     0.000 HD 
ENDBRANCH  24  25
ENDBRANCH  23  24
ENDBRANCH  22  23
ENDBRANCH  21  22
ENDBRANCH  20  21
ENDBRANCH  19  20
ENDBRANCH  18  19
ENDBRANCH  17  18
ENDBRANCH  16  17
ENDBRANCH  15  16
ENDBRANCH  14  15
ENDBRANCH   9  14
ENDBRANCH   2   3
TORSDOF 14
ENDMDL
MODEL      117
REMARK 921   NORMALIZED FREE ENERGY PREDICTED BY IDOCK:   -4.23 KCAL/MOL
REMARK 922        TOTAL FREE ENERGY PREDICTED BY IDOCK:   -9.51 KCAL/MOL
REMARK 923 INTER-LIGAND FREE ENERGY PREDICTED BY IDOCK:   -7.91 KCAL/MOL
REMARK 924 INTRA-LIGAND FREE ENERGY PREDICTED BY IDOCK:   -1.60 KCAL/MOL
REMARK 927      BINDING AFFINITY PREDICTED BY RF-SCORE:    0.00 PKD
ROOT
HETATM    1  C   UNL     1      -7.284   6.574  65.768  1.00  0.00    -0.070 C  
HETATM    2  O   UNL     1      -8.288   7.174  64.961  1.00  0.00    -0.125 OA 
ENDROOT
BRANCH   2   3
HETATM    3  C   UNL     1      -9.026   8.204  65.543  1.00  0.00    -0.032 C  
HETATM    4  C   UNL     1      -8.971   9.425  64.982  1.00  0.00    -0.211 C  
HETATM    5  C   UNL     1      -9.737  10.542  65.612  1.00  0.00    -0.234 C  
HETATM    6  O   UNL     1     -10.170   6.879  67.189  1.00  0.00    -0.191 OA 
HETATM    7  O   UNL     1     -10.063  11.558  65.008  1.00  0.00    -0.246 OA 
HETATM    8  C   UNL     1      -9.826   7.989  66.796  1.00  0.00    -0.257 C  
HETATM    9  C   UNL     1     -10.069  10.403  67.058  1.00  0.00    -0.264 C  
HETATM   10  C   UNL     1     -10.552   8.899  69.033  1.00  0.00    -0.203 C  
HETATM   11  C   UNL     1     -10.146   9.184  67.615  1.00  0.00    -0.273 C  
BRANCH   4  12
HETATM   12  O   UNL     1      -8.208   9.594  63.827  1.00  0.00    -0.140 OA 
HETATM   13  C   UNL     1      -8.883   9.720  62.582  1.00  0.00    -0.244 C  
ENDBRANCH   4  12
BRANCH   9  14
HETATM   14  C   UNL     1     -10.277  11.690  67.795  1.00  0.00    -0.202 C  
BRANCH  14  15
HETATM   15  C   UNL     1     -11.755  12.038  67.986  1.00  0.00    -0.398 C  
BRANCH  15  16
HETATM   16  C   UNL     1     -11.985  13.549  67.980  1.00  0.00    -0.372 C  
BRANCH  16  17
HETATM   17  C   UNL     1     -11.928  14.128  69.388  1.00  0.00    -0.382 C  
BRANCH  17  18
HETATM   18  C   UNL     1     -12.033  15.641  69.391  1.00  0.00    -0.349 C  
BRANCH  18  19
HETATM   19  C   UNL     1     -10.652  16.233  69.642  1.00  0.00    -0.320 C  
BRANCH  19  20
HETATM   20  C   UNL     1     -10.019  16.678  68.336  1.00  0.00    -0.255 C  
BRANCH  20  21
HETATM   21  C   UNL     1      -8.737  15.902  68.074  1.00  0.00    -0.169 C  
BRANCH  21  22
HETATM   22  C   UNL     1      -8.684  15.463  66.619  1.00  0.00    -0.332 C  
BRANCH  22  23
HETATM   23  C   UNL     1      -9.950  15.878  65.880  1.00  0.00    -0.377 C  
BRANCH  23  24
HETATM   24  C   UNL     1     -10.452  14.743  64.999  1.00  0.00    -0.443 C  
BRANCH  24  25
HETATM   25  C   UNL     1     -11.859  15.020  64.495  1.00  0.00    -0.371 C  
HETATM   26  O   UNL     1     -11.870  16.230  63.753  1.00  0.00    -1.445 OA 
HETATM   27  H   UNL     1     -12.749  16.404  63.437  1.00  0.00     0.000 HD 
ENDBRANCH  24  25
ENDBRANCH  23  24
ENDBRANCH  22  23
ENDBRANCH  21  22
ENDBRANCH  20  21
ENDBRANCH  19  20
ENDBRANCH  18  19
ENDBRANCH  17  18
ENDBRANCH  16  17
ENDBRANCH  15  16
ENDBRANCH  14  15
ENDBRANCH   9  14
ENDBRANCH   2   3
TORSDOF 14
ENDMDL
MODEL      118
REMARK 921   NORMALIZED FREE ENERGY PREDICTED BY IDOCK:   -4.19 KCAL/MOL
REMARK 922        TOTAL FREE ENERGY PREDICTED BY IDOCK:   -9.45 KCAL/MOL
REMARK 923 INTER-LIGAND FREE ENERGY PREDICTED BY IDOCK:   -8.44 KCAL/MOL
REMARK 924 INTRA-LIGAND FREE ENERGY PREDICTED BY IDOCK:   -1.01 KCAL/MOL
REMARK 927      BINDING AFFINITY PREDICTED BY RF-SCORE:    0.00 PKD
ROOT
HETATM    1  C   UNL     1      -9.898   6.732  74.308  1.00  0.00    -0.317 C  
HETATM    2  O   UNL     1      -9.791   6.637  72.894  1.00  0.00    -0.160 OA 
ENDROOT
BRANCH   2   3
HETATM    3  C   UNL     1     -10.567   7.523  72.148  1.00  0.00    -0.221 C  
HETATM    4  C   UNL     1      -9.993   8.656  71.705  1.00  0.00    -0.282 C  
HETATM    5  C   UNL     1     -10.822   9.625  70.925  1.00  0.00    -0.339 C  
HETATM    6  O   UNL     1     -12.531   6.151  71.974  1.00  0.00    -0.250 OA 
HETATM    7  O   UNL     1     -10.342  10.468  70.175  1.00  0.00    -0.160 OA 
HETATM    8  C   UNL     1     -12.021   7.262  71.878  1.00  0.00    -0.306 C  
HETATM    9  C   UNL     1     -12.298   9.567  71.125  1.00  0.00    -0.410 C  
HETATM   10  C   UNL     1     -14.351   8.211  71.707  1.00  0.00    -0.582 C  
HETATM   11  C   UNL     1     -12.874   8.430  71.546  1.00  0.00    -0.322 C  
BRANCH   4  12
HETATM   12  O   UNL     1      -8.645   8.874  71.984  1.00  0.00    -0.367 OA 
HETATM   13  C   UNL     1      -7.687   8.565  70.979  1.00  0.00    -0.097 C  
ENDBRANCH   4  12
BRANCH   9  14
HETATM   14  C   UNL     1     -13.033  10.841  70.846  1.00  0.00    -0.385 C  
BRANCH  14  15
HETATM   15  C   UNL     1     -13.239  11.699  72.097  1.00  0.00    -0.327 C  
BRANCH  15  16
HETATM   16  C   UNL     1     -13.273  13.190  71.761  1.00  0.00    -0.494 C  
BRANCH  16  17
HETATM   17  C   UNL     1     -12.308  13.528  70.631  1.00  0.00    -0.432 C  
BRANCH  17  18
HETATM   18  C   UNL     1     -11.807  14.958  70.715  1.00  0.00    -0.368 C  
BRANCH  18  19
HETATM   19  C   UNL     1     -12.016  15.636  69.368  1.00  0.00    -0.349 C  
BRANCH  19  20
HETATM   20  C   UNL     1     -10.728  15.627  68.564  1.00  0.00    -0.264 C  
BRANCH  20  21
HETATM   21  C   UNL     1     -10.955  14.989  67.201  1.00  0.00    -0.329 C  
BRANCH  21  22
HETATM   22  C   UNL     1      -9.622  14.770  66.502  1.00  0.00    -0.304 C  
BRANCH  22  23
HETATM   23  C   UNL     1      -8.910  16.095  66.264  1.00  0.00    -0.371 C  
BRANCH  23  24
HETATM   24  C   UNL     1      -7.484  16.039  66.795  1.00  0.00    -0.218 C  
BRANCH  24  25
HETATM   25  C   UNL     1      -6.742  17.335  66.512  1.00  0.00    -0.251 C  
HETATM   26  O   UNL     1      -7.479  18.114  65.581  1.00  0.00    -0.535 OA 
HETATM   27  H   UNL     1      -7.016  18.924  65.404  1.00  0.00     0.000 HD 
ENDBRANCH  24  25
ENDBRANCH  23  24
ENDBRANCH  22  23
ENDBRANCH  21  22
ENDBRANCH  20  21
ENDBRANCH  19  20
ENDBRANCH  18  19
ENDBRANCH  17  18
ENDBRANCH  16  17
ENDBRANCH  15  16
ENDBRANCH  14  15
ENDBRANCH   9  14
ENDBRANCH   2   3
TORSDOF 14
ENDMDL
MODEL      119
REMARK 921   NORMALIZED FREE ENERGY PREDICTED BY IDOCK:   -4.19 KCAL/MOL
REMARK 922        TOTAL FREE ENERGY PREDICTED BY IDOCK:   -9.44 KCAL/MOL
REMARK 923 INTER-LIGAND FREE ENERGY PREDICTED BY IDOCK:   -7.98 KCAL/MOL
REMARK 924 INTRA-LIGAND FREE ENERGY PREDICTED BY IDOCK:   -1.45 KCAL/MOL
REMARK 927      BINDING AFFINITY PREDICTED BY RF-SCORE:    0.00 PKD
ROOT
HETATM    1  C   UNL     1     -12.982  13.206  64.815  1.00  0.00    -0.104 C  
HETATM    2  O   UNL     1     -11.868  13.777  64.142  1.00  0.00    -0.414 OA 
ENDROOT
BRANCH   2   3
HETATM    3  C   UNL     1     -10.923  14.425  64.935  1.00  0.00    -0.406 C  
HETATM    4  C   UNL     1     -10.151  13.680  65.747  1.00  0.00    -0.298 C  
HETATM    5  C   UNL     1      -9.152  14.367  66.620  1.00  0.00    -0.240 C  
HETATM    6  O   UNL     1     -11.221  16.634  64.038  1.00  0.00    -1.052 OA 
HETATM    7  O   UNL     1      -8.173  13.801  67.095  1.00  0.00    -0.173 OA 
HETATM    8  C   UNL     1     -10.790  15.922  64.938  1.00  0.00    -0.400 C  
HETATM    9  C   UNL     1      -9.410  15.798  66.947  1.00  0.00    -0.246 C  
HETATM   10  C   UNL     1     -10.429  18.018  66.293  1.00  0.00    -0.340 C  
HETATM   11  C   UNL     1     -10.162  16.549  66.127  1.00  0.00    -0.360 C  
BRANCH   4  12
HETATM   12  O   UNL     1     -10.309  12.295  65.730  1.00  0.00    -0.246 OA 
HETATM   13  C   UNL     1      -9.512  11.534  64.830  1.00  0.00    -0.129 C  
ENDBRANCH   4  12
BRANCH   9  14
HETATM   14  C   UNL     1      -8.797  16.284  68.224  1.00  0.00    -0.188 C  
BRANCH  14  15
HETATM   15  C   UNL     1      -9.437  15.665  69.468  1.00  0.00    -0.275 C  
BRANCH  15  16
HETATM   16  C   UNL     1     -10.824  16.246  69.740  1.00  0.00    -0.356 C  
BRANCH  16  17
HETATM   17  C   UNL     1     -11.910  15.184  69.607  1.00  0.00    -0.362 C  
BRANCH  17  18
HETATM   18  C   UNL     1     -12.050  14.348  70.865  1.00  0.00    -0.414 C  
BRANCH  18  19
HETATM   19  C   UNL     1     -12.115  12.877  70.477  1.00  0.00    -0.364 C  
BRANCH  19  20
HETATM   20  C   UNL     1     -11.715  12.692  69.025  1.00  0.00    -0.367 C  
BRANCH  20  21
HETATM   21  C   UNL     1     -11.730  11.217  68.652  1.00  0.00    -0.389 C  
BRANCH  21  22
HETATM   22  C   UNL     1     -10.439  10.552  69.106  1.00  0.00    -0.250 C  
BRANCH  22  23
HETATM   23  C   UNL     1     -10.450   9.065  68.778  1.00  0.00    -0.230 C  
BRANCH  23  24
HETATM   24  C   UNL     1      -9.520   8.769  67.609  1.00  0.00    -0.168 C  
BRANCH  24  25
HETATM   25  C   UNL     1      -8.537   7.663  67.957  1.00  0.00    -0.123 C  
HETATM   26  O   UNL     1      -7.501   8.185  68.775  1.00  0.00    -0.086 OA 
HETATM   27  H   UNL     1      -6.887   7.493  68.993  1.00  0.00     0.000 HD 
ENDBRANCH  24  25
ENDBRANCH  23  24
ENDBRANCH  22  23
ENDBRANCH  21  22
ENDBRANCH  20  21
ENDBRANCH  19  20
ENDBRANCH  18  19
ENDBRANCH  17  18
ENDBRANCH  16  17
ENDBRANCH  15  16
ENDBRANCH  14  15
ENDBRANCH   9  14
ENDBRANCH   2   3
TORSDOF 14
ENDMDL
MODEL      120
REMARK 921   NORMALIZED FREE ENERGY PREDICTED BY IDOCK:   -4.18 KCAL/MOL
REMARK 922        TOTAL FREE ENERGY PREDICTED BY IDOCK:   -9.41 KCAL/MOL
REMARK 923 INTER-LIGAND FREE ENERGY PREDICTED BY IDOCK:   -7.45 KCAL/MOL
REMARK 924 INTRA-LIGAND FREE ENERGY PREDICTED BY IDOCK:   -1.97 KCAL/MOL
REMARK 927      BINDING AFFINITY PREDICTED BY RF-SCORE:    0.00 PKD
ROOT
HETATM    1  C   UNL     1     -11.980  11.367  68.800  1.00  0.00    -0.287 C  
HETATM    2  O   UNL     1     -10.923  11.331  69.751  1.00  0.00    -0.210 OA 
ENDROOT
BRANCH   2   3
HETATM    3  C   UNL     1     -10.538  10.072  70.209  1.00  0.00    -0.295 C  
HETATM    4  C   UNL     1      -9.365   9.569  69.784  1.00  0.00    -0.211 C  
HETATM    5  C   UNL     1      -8.953   8.211  70.249  1.00  0.00    -0.146 C  
HETATM    6  O   UNL     1     -12.330   9.745  71.775  1.00  0.00    -0.376 OA 
HETATM    7  O   UNL     1      -7.790   7.822  70.242  1.00  0.00    -0.088 OA 
HETATM    8  C   UNL     1     -11.419   9.259  71.114  1.00  0.00    -0.333 C  
HETATM    9  C   UNL     1     -10.038   7.291  70.695  1.00  0.00    -0.198 C  
HETATM   10  C   UNL     1     -12.340   6.985  71.697  1.00  0.00    -0.407 C  
HETATM   11  C   UNL     1     -11.201   7.792  71.141  1.00  0.00    -0.285 C  
BRANCH   4  12
HETATM   12  O   UNL     1      -8.577  10.345  68.934  1.00  0.00    -0.131 OA 
HETATM   13  C   UNL     1      -7.386  10.922  69.454  1.00  0.00    -0.116 C  
ENDBRANCH   4  12
BRANCH   9  14
HETATM   14  C   UNL     1      -9.726   5.831  70.584  1.00  0.00    -0.224 C  
BRANCH  14  15
HETATM   15  C   UNL     1     -10.305   5.190  69.320  1.00  0.00    -0.248 C  
BRANCH  15  16
HETATM   16  C   UNL     1      -9.239   5.004  68.241  1.00  0.00    -0.147 C  
BRANCH  16  17
HETATM   17  C   UNL     1      -9.617   5.726  66.953  1.00  0.00    -0.153 C  
BRANCH  17  18
HETATM   18  C   UNL     1     -10.873   6.561  67.113  1.00  0.00    -0.472 C  
BRANCH  18  19
HETATM   19  C   UNL     1     -10.511   8.034  66.966  1.00  0.00    -0.410 C  
BRANCH  19  20
HETATM   20  C   UNL     1      -9.190   8.185  66.234  1.00  0.00    -0.245 C  
BRANCH  20  21
HETATM   21  C   UNL     1      -9.204   9.432  65.362  1.00  0.00    -0.305 C  
BRANCH  21  22
HETATM   22  C   UNL     1     -10.404  10.299  65.713  1.00  0.00    -0.236 C  
BRANCH  22  23
HETATM   23  C   UNL     1     -10.148  11.755  65.347  1.00  0.00    -0.291 C  
BRANCH  23  24
HETATM   24  C   UNL     1     -10.684  12.059  63.955  1.00  0.00    -0.450 C  
BRANCH  24  25
HETATM   25  C   UNL     1     -12.024  12.773  64.028  1.00  0.00    -0.447 C  
HETATM   26  O   UNL     1     -13.000  12.031  63.311  1.00  0.00    -0.736 OA 
HETATM   27  H   UNL     1     -13.838  12.476  63.356  1.00  0.00     0.000 HD 
ENDBRANCH  24  25
ENDBRANCH  23  24
ENDBRANCH  22  23
ENDBRANCH  21  22
ENDBRANCH  20  21
ENDBRANCH  19  20
ENDBRANCH  18  19
ENDBRANCH  17  18
ENDBRANCH  16  17
ENDBRANCH  15  16
ENDBRANCH  14  15
ENDBRANCH   9  14
ENDBRANCH   2   3
TORSDOF 14
ENDMDL
MODEL      121
REMARK 921   NORMALIZED FREE ENERGY PREDICTED BY IDOCK:   -4.17 KCAL/MOL
REMARK 922        TOTAL FREE ENERGY PREDICTED BY IDOCK:   -9.41 KCAL/MOL
REMARK 923 INTER-LIGAND FREE ENERGY PREDICTED BY IDOCK:   -7.51 KCAL/MOL
REMARK 924 INTRA-LIGAND FREE ENERGY PREDICTED BY IDOCK:   -1.90 KCAL/MOL
REMARK 927      BINDING AFFINITY PREDICTED BY RF-SCORE:    0.00 PKD
ROOT
HETATM    1  C   UNL     1      -6.539   4.867  66.429  1.00  0.00    -0.049 C  
HETATM    2  O   UNL     1      -7.381   5.326  65.380  1.00  0.00    -0.067 OA 
ENDROOT
BRANCH   2   3
HETATM    3  C   UNL     1      -8.382   6.231  65.732  1.00  0.00    -0.145 C  
HETATM    4  C   UNL     1      -8.258   7.508  65.330  1.00  0.00    -0.129 C  
HETATM    5  C   UNL     1      -9.312   8.491  65.722  1.00  0.00    -0.118 C  
HETATM    6  O   UNL     1      -9.893   4.653  66.731  1.00  0.00    -0.183 OA 
HETATM    7  O   UNL     1      -9.505   9.545  65.124  1.00  0.00    -0.266 OA 
HETATM    8  C   UNL     1      -9.550   5.821  66.582  1.00  0.00    -0.152 C  
HETATM    9  C   UNL     1     -10.124   8.167  66.929  1.00  0.00    -0.367 C  
HETATM   10  C   UNL     1     -11.121   6.420  68.462  1.00  0.00    -0.385 C  
HETATM   11  C   UNL     1     -10.266   6.891  67.319  1.00  0.00    -0.284 C  
BRANCH   4  12
HETATM   12  O   UNL     1      -7.154   7.858  64.553  1.00  0.00    -0.068 OA 
HETATM   13  C   UNL     1      -7.308   7.900  63.139  1.00  0.00    -0.104 C  
ENDBRANCH   4  12
BRANCH   9  14
HETATM   14  C   UNL     1     -10.715   9.345  67.639  1.00  0.00    -0.295 C  
BRANCH  14  15
HETATM   15  C   UNL     1      -9.854   9.836  68.804  1.00  0.00    -0.176 C  
BRANCH  15  16
HETATM   16  C   UNL     1     -10.698  10.151  70.039  1.00  0.00    -0.356 C  
BRANCH  16  17
HETATM   17  C   UNL     1     -12.015  10.816  69.659  1.00  0.00    -0.385 C  
BRANCH  17  18
HETATM   18  C   UNL     1     -12.169  12.185  70.293  1.00  0.00    -0.344 C  
BRANCH  18  19
HETATM   19  C   UNL     1     -11.323  13.188  69.519  1.00  0.00    -0.227 C  
BRANCH  19  20
HETATM   20  C   UNL     1     -12.203  14.253  68.891  1.00  0.00    -0.240 C  
BRANCH  20  21
HETATM   21  C   UNL     1     -11.856  14.433  67.421  1.00  0.00    -0.430 C  
BRANCH  21  22
HETATM   22  C   UNL     1     -11.017  13.260  66.937  1.00  0.00    -0.298 C  
BRANCH  22  23
HETATM   23  C   UNL     1     -11.783  12.430  65.915  1.00  0.00    -0.476 C  
BRANCH  23  24
HETATM   24  C   UNL     1     -11.196  12.622  64.523  1.00  0.00    -0.375 C  
BRANCH  24  25
HETATM   25  C   UNL     1     -12.278  12.555  63.458  1.00  0.00    -0.558 C  
HETATM   26  O   UNL     1     -12.497  13.850  62.918  1.00  0.00    -1.034 OA 
HETATM   27  H   UNL     1     -13.173  13.809  62.251  1.00  0.00     0.000 HD 
ENDBRANCH  24  25
ENDBRANCH  23  24
ENDBRANCH  22  23
ENDBRANCH  21  22
ENDBRANCH  20  21
ENDBRANCH  19  20
ENDBRANCH  18  19
ENDBRANCH  17  18
ENDBRANCH  16  17
ENDBRANCH  15  16
ENDBRANCH  14  15
ENDBRANCH   9  14
ENDBRANCH   2   3
TORSDOF 14
ENDMDL
MODEL      122
REMARK 921   NORMALIZED FREE ENERGY PREDICTED BY IDOCK:   -4.16 KCAL/MOL
REMARK 922        TOTAL FREE ENERGY PREDICTED BY IDOCK:   -9.39 KCAL/MOL
REMARK 923 INTER-LIGAND FREE ENERGY PREDICTED BY IDOCK:   -7.82 KCAL/MOL
REMARK 924 INTRA-LIGAND FREE ENERGY PREDICTED BY IDOCK:   -1.57 KCAL/MOL
REMARK 927      BINDING AFFINITY PREDICTED BY RF-SCORE:    0.00 PKD
ROOT
HETATM    1  C   UNL     1      -9.728  15.161  65.859  1.00  0.00    -0.350 C  
HETATM    2  O   UNL     1     -11.100  15.151  66.229  1.00  0.00    -0.337 OA 
ENDROOT
BRANCH   2   3
HETATM    3  C   UNL     1     -11.491  14.186  67.155  1.00  0.00    -0.353 C  
HETATM    4  C   UNL     1     -11.755  14.580  68.414  1.00  0.00    -0.333 C  
HETATM    5  C   UNL     1     -12.151  13.550  69.422  1.00  0.00    -0.289 C  
HETATM    6  O   UNL     1     -11.646  12.334  65.633  1.00  0.00    -0.359 OA 
HETATM    7  O   UNL     1     -12.761  13.817  70.452  1.00  0.00    -0.276 OA 
HETATM    8  C   UNL     1     -11.572  12.731  66.791  1.00  0.00    -0.370 C  
HETATM    9  C   UNL     1     -11.731  12.145  69.155  1.00  0.00    -0.384 C  
HETATM   10  C   UNL     1     -11.142  10.344  67.481  1.00  0.00    -0.336 C  
HETATM   11  C   UNL     1     -11.488  11.745  67.896  1.00  0.00    -0.387 C  
BRANCH   4  12
HETATM   12  O   UNL     1     -11.658  15.936  68.722  1.00  0.00    -0.373 OA 
HETATM   13  C   UNL     1     -10.552  16.376  69.500  1.00  0.00    -0.320 C  
ENDBRANCH   4  12
BRANCH   9  14
HETATM   14  C   UNL     1     -11.592  11.276  70.366  1.00  0.00    -0.319 C  
BRANCH  14  15
HETATM   15  C   UNL     1     -12.794  10.353  70.581  1.00  0.00    -0.393 C  
BRANCH  15  16
HETATM   16  C   UNL     1     -13.122  10.188  72.064  1.00  0.00    -0.538 C  
BRANCH  16  17
HETATM   17  C   UNL     1     -12.954   8.742  72.514  1.00  0.00    -0.382 C  
BRANCH  17  18
HETATM   18  C   UNL     1     -12.580   7.824  71.366  1.00  0.00    -0.339 C  
BRANCH  18  19
HETATM   19  C   UNL     1     -11.888   6.588  71.924  1.00  0.00    -0.381 C  
BRANCH  19  20
HETATM   20  C   UNL     1     -10.579   6.337  71.196  1.00  0.00    -0.289 C  
BRANCH  20  21
HETATM   21  C   UNL     1      -9.984   7.648  70.704  1.00  0.00    -0.183 C  
BRANCH  21  22
HETATM   22  C   UNL     1      -8.498   7.697  71.026  1.00  0.00    -0.116 C  
BRANCH  22  23
HETATM   23  C   UNL     1      -7.960   6.302  71.319  1.00  0.00    -0.116 C  
BRANCH  23  24
HETATM   24  C   UNL     1      -7.163   6.297  72.616  1.00  0.00    -0.084 C  
BRANCH  24  25
HETATM   25  C   UNL     1      -7.819   7.178  73.666  1.00  0.00    -0.104 C  
HETATM   26  O   UNL     1      -6.837   8.000  74.281  1.00  0.00    -0.113 OA 
HETATM   27  H   UNL     1      -7.246   8.551  74.937  1.00  0.00     0.000 HD 
ENDBRANCH  24  25
ENDBRANCH  23  24
ENDBRANCH  22  23
ENDBRANCH  21  22
ENDBRANCH  20  21
ENDBRANCH  19  20
ENDBRANCH  18  19
ENDBRANCH  17  18
ENDBRANCH  16  17
ENDBRANCH  15  16
ENDBRANCH  14  15
ENDBRANCH   9  14
ENDBRANCH   2   3
TORSDOF 14
ENDMDL
MODEL      123
REMARK 921   NORMALIZED FREE ENERGY PREDICTED BY IDOCK:   -4.15 KCAL/MOL
REMARK 922        TOTAL FREE ENERGY PREDICTED BY IDOCK:   -9.36 KCAL/MOL
REMARK 923 INTER-LIGAND FREE ENERGY PREDICTED BY IDOCK:   -8.08 KCAL/MOL
REMARK 924 INTRA-LIGAND FREE ENERGY PREDICTED BY IDOCK:   -1.28 KCAL/MOL
REMARK 927      BINDING AFFINITY PREDICTED BY RF-SCORE:    0.00 PKD
ROOT
HETATM    1  C   UNL     1     -13.642  13.009  72.558  1.00  0.00    -0.434 C  
HETATM    2  O   UNL     1     -13.694  13.729  71.333  1.00  0.00    -0.256 OA 
ENDROOT
BRANCH   2   3
HETATM    3  C   UNL     1     -12.518  13.778  70.587  1.00  0.00    -0.359 C  
HETATM    4  C   UNL     1     -11.860  14.949  70.509  1.00  0.00    -0.303 C  
HETATM    5  C   UNL     1     -10.611  15.019  69.691  1.00  0.00    -0.238 C  
HETATM    6  O   UNL     1     -12.362  11.433  70.090  1.00  0.00    -0.297 OA 
HETATM    7  O   UNL     1      -9.754  15.883  69.847  1.00  0.00    -0.207 OA 
HETATM    8  C   UNL     1     -12.010  12.580  69.837  1.00  0.00    -0.301 C  
HETATM    9  C   UNL     1     -10.451  14.003  68.613  1.00  0.00    -0.249 C  
HETATM   10  C   UNL     1     -10.950  11.687  67.730  1.00  0.00    -0.287 C  
HETATM   11  C   UNL     1     -11.090  12.826  68.700  1.00  0.00    -0.304 C  
BRANCH   4  12
HETATM   12  O   UNL     1     -12.366  16.045  71.206  1.00  0.00    -0.437 OA 
HETATM   13  C   UNL     1     -11.954  16.239  72.554  1.00  0.00    -0.554 C  
ENDBRANCH   4  12
BRANCH   9  14
HETATM   14  C   UNL     1      -9.570  14.412  67.473  1.00  0.00    -0.215 C  
BRANCH  14  15
HETATM   15  C   UNL     1     -10.357  14.813  66.223  1.00  0.00    -0.305 C  
BRANCH  15  16
HETATM   16  C   UNL     1      -9.685  15.966  65.477  1.00  0.00    -0.215 C  
BRANCH  16  17
HETATM   17  C   UNL     1      -9.351  17.118  66.417  1.00  0.00    -0.286 C  
BRANCH  17  18
HETATM   18  C   UNL     1     -10.585  17.896  66.831  1.00  0.00    -0.271 C  
BRANCH  18  19
HETATM   19  C   UNL     1     -10.307  19.386  66.676  1.00  0.00    -0.555 C  
BRANCH  19  20
HETATM   20  C   UNL     1      -9.541  19.910  67.877  1.00  0.00    -0.490 C  
BRANCH  20  21
HETATM   21  C   UNL     1      -8.408  20.821  67.430  1.00  0.00    -0.216 C  
BRANCH  21  22
HETATM   22  C   UNL     1      -7.412  20.037  66.588  1.00  0.00    -0.299 C  
BRANCH  22  23
HETATM   23  C   UNL     1      -6.232  19.576  67.433  1.00  0.00    -0.204 C  
BRANCH  23  24
HETATM   24  C   UNL     1      -6.650  18.444  68.362  1.00  0.00    -0.227 C  
BRANCH  24  25
HETATM   25  C   UNL     1      -6.201  18.712  69.789  1.00  0.00    -0.209 C  
HETATM   26  O   UNL     1      -6.353  20.092  70.086  1.00  0.00    -0.365 OA 
HETATM   27  H   UNL     1      -6.074  20.260  70.978  1.00  0.00     0.000 HD 
ENDBRANCH  24  25
ENDBRANCH  23  24
ENDBRANCH  22  23
ENDBRANCH  21  22
ENDBRANCH  20  21
ENDBRANCH  19  20
ENDBRANCH  18  19
ENDBRANCH  17  18
ENDBRANCH  16  17
ENDBRANCH  15  16
ENDBRANCH  14  15
ENDBRANCH   9  14
ENDBRANCH   2   3
TORSDOF 14
ENDMDL
MODEL      124
REMARK 921   NORMALIZED FREE ENERGY PREDICTED BY IDOCK:   -4.15 KCAL/MOL
REMARK 922        TOTAL FREE ENERGY PREDICTED BY IDOCK:   -9.36 KCAL/MOL
REMARK 923 INTER-LIGAND FREE ENERGY PREDICTED BY IDOCK:   -7.75 KCAL/MOL
REMARK 924 INTRA-LIGAND FREE ENERGY PREDICTED BY IDOCK:   -1.62 KCAL/MOL
REMARK 927      BINDING AFFINITY PREDICTED BY RF-SCORE:    0.00 PKD
ROOT
HETATM    1  C   UNL     1      -8.222  10.667  62.817  1.00  0.00    -0.147 C  
HETATM    2  O   UNL     1      -9.601  10.469  63.099  1.00  0.00    -0.303 OA 
ENDROOT
BRANCH   2   3
HETATM    3  C   UNL     1      -9.987  10.568  64.435  1.00  0.00    -0.343 C  
HETATM    4  C   UNL     1     -10.727  11.626  64.809  1.00  0.00    -0.309 C  
HETATM    5  C   UNL     1     -11.125  11.755  66.244  1.00  0.00    -0.311 C  
HETATM    6  O   UNL     1      -9.151   8.436  65.162  1.00  0.00    -0.040 OA 
HETATM    7  O   UNL     1     -12.075  12.434  66.619  1.00  0.00    -0.592 OA 
HETATM    8  C   UNL     1      -9.553   9.556  65.457  1.00  0.00    -0.279 C  
HETATM    9  C   UNL     1     -10.279  11.048  67.246  1.00  0.00    -0.234 C  
HETATM   10  C   UNL     1      -8.732   9.126  67.803  1.00  0.00    -0.121 C  
HETATM   11  C   UNL     1      -9.557   9.978  66.879  1.00  0.00    -0.219 C  
BRANCH   4  12
HETATM   12  O   UNL     1     -11.102  12.554  63.838  1.00  0.00    -0.359 OA 
HETATM   13  C   UNL     1     -12.367  12.399  63.206  1.00  0.00    -0.391 C  
ENDBRANCH   4  12
BRANCH   9  14
HETATM   14  C   UNL     1     -10.298  11.631  68.626  1.00  0.00    -0.229 C  
BRANCH  14  15
HETATM   15  C   UNL     1     -11.322  10.961  69.544  1.00  0.00    -0.351 C  
BRANCH  15  16
HETATM   16  C   UNL     1     -11.983  11.969  70.484  1.00  0.00    -0.338 C  
BRANCH  16  17
HETATM   17  C   UNL     1     -12.819  11.272  71.551  1.00  0.00    -0.519 C  
BRANCH  17  18
HETATM   18  C   UNL     1     -13.362   9.939  71.072  1.00  0.00    -0.322 C  
BRANCH  18  19
HETATM   19  C   UNL     1     -13.563   9.025  72.273  1.00  0.00    -0.540 C  
BRANCH  19  20
HETATM   20  C   UNL     1     -12.957   7.659  72.007  1.00  0.00    -0.225 C  
BRANCH  20  21
HETATM   21  C   UNL     1     -11.446   7.765  71.860  1.00  0.00    -0.320 C  
BRANCH  21  22
HETATM   22  C   UNL     1     -10.772   7.474  73.192  1.00  0.00    -0.452 C  
BRANCH  22  23
HETATM   23  C   UNL     1      -9.362   8.049  73.223  1.00  0.00    -0.344 C  
BRANCH  23  24
HETATM   24  C   UNL     1      -9.072   8.825  71.946  1.00  0.00    -0.291 C  
BRANCH  24  25
HETATM   25  C   UNL     1      -7.620   8.669  71.526  1.00  0.00    -0.106 C  
HETATM   26  O   UNL     1      -7.068   7.511  72.137  1.00  0.00    -0.064 OA 
HETATM   27  H   UNL     1      -6.160   7.413  71.874  1.00  0.00     0.000 HD 
ENDBRANCH  24  25
ENDBRANCH  23  24
ENDBRANCH  22  23
ENDBRANCH  21  22
ENDBRANCH  20  21
ENDBRANCH  19  20
ENDBRANCH  18  19
ENDBRANCH  17  18
ENDBRANCH  16  17
ENDBRANCH  15  16
ENDBRANCH  14  15
ENDBRANCH   9  14
ENDBRANCH   2   3
TORSDOF 14
ENDMDL
MODEL      125
REMARK 921   NORMALIZED FREE ENERGY PREDICTED BY IDOCK:   -4.14 KCAL/MOL
REMARK 922        TOTAL FREE ENERGY PREDICTED BY IDOCK:   -9.36 KCAL/MOL
REMARK 923 INTER-LIGAND FREE ENERGY PREDICTED BY IDOCK:   -7.42 KCAL/MOL
REMARK 924 INTRA-LIGAND FREE ENERGY PREDICTED BY IDOCK:   -1.94 KCAL/MOL
REMARK 927      BINDING AFFINITY PREDICTED BY RF-SCORE:    0.00 PKD
ROOT
HETATM    1  C   UNL     1      -9.121   7.128  74.210  1.00  0.00    -0.214 C  
HETATM    2  O   UNL     1      -9.815   6.517  73.130  1.00  0.00    -0.161 OA 
ENDROOT
BRANCH   2   3
HETATM    3  C   UNL     1     -10.104   7.328  72.034  1.00  0.00    -0.184 C  
HETATM    4  C   UNL     1      -9.286   7.273  70.967  1.00  0.00    -0.158 C  
HETATM    5  C   UNL     1      -9.572   8.156  69.796  1.00  0.00    -0.171 C  
HETATM    6  O   UNL     1     -12.207   8.184  72.820  1.00  0.00    -0.300 OA 
HETATM    7  O   UNL     1      -9.149   7.932  68.667  1.00  0.00    -0.137 OA 
HETATM    8  C   UNL     1     -11.263   8.284  72.044  1.00  0.00    -0.323 C  
HETATM    9  C   UNL     1     -10.375   9.384  70.054  1.00  0.00    -0.265 C  
HETATM   10  C   UNL     1     -12.133  10.570  71.432  1.00  0.00    -0.380 C  
HETATM   11  C   UNL     1     -11.207   9.432  71.106  1.00  0.00    -0.427 C  
BRANCH   4  12
HETATM   12  O   UNL     1      -8.212   6.384  70.996  1.00  0.00    -0.119 OA 
HETATM   13  C   UNL     1      -8.385   5.095  70.421  1.00  0.00    -0.105 C  
ENDBRANCH   4  12
BRANCH   9  14
HETATM   14  C   UNL     1     -10.157  10.508  69.089  1.00  0.00    -0.240 C  
BRANCH  14  15
HETATM   15  C   UNL     1     -11.096  10.449  67.882  1.00  0.00    -0.363 C  
BRANCH  15  16
HETATM   16  C   UNL     1     -12.014  11.670  67.819  1.00  0.00    -0.119 C  
BRANCH  16  17
HETATM   17  C   UNL     1     -11.347  12.899  68.425  1.00  0.00    -0.329 C  
BRANCH  17  18
HETATM   18  C   UNL     1     -11.093  13.981  67.392  1.00  0.00    -0.317 C  
BRANCH  18  19
HETATM   19  C   UNL     1     -12.282  14.049  66.443  1.00  0.00    -0.492 C  
BRANCH  19  20
HETATM   20  C   UNL     1     -11.810  14.068  65.001  1.00  0.00    -0.383 C  
BRANCH  20  21
HETATM   21  C   UNL     1     -12.449  12.933  64.215  1.00  0.00    -0.424 C  
BRANCH  21  22
HETATM   22  C   UNL     1     -11.401  12.238  63.360  1.00  0.00    -0.508 C  
BRANCH  22  23
HETATM   23  C   UNL     1     -10.089  12.094  64.121  1.00  0.00    -0.335 C  
BRANCH  23  24
HETATM   24  C   UNL     1      -9.820  10.632  64.451  1.00  0.00    -0.395 C  
BRANCH  24  25
HETATM   25  C   UNL     1      -8.666  10.495  65.431  1.00  0.00    -0.183 C  
HETATM   26  O   UNL     1      -8.333  11.771  65.958  1.00  0.00    -0.382 OA 
HETATM   27  H   UNL     1      -7.612  11.685  66.571  1.00  0.00     0.000 HD 
ENDBRANCH  24  25
ENDBRANCH  23  24
ENDBRANCH  22  23
ENDBRANCH  21  22
ENDBRANCH  20  21
ENDBRANCH  19  20
ENDBRANCH  18  19
ENDBRANCH  17  18
ENDBRANCH  16  17
ENDBRANCH  15  16
ENDBRANCH  14  15
ENDBRANCH   9  14
ENDBRANCH   2   3
TORSDOF 14
ENDMDL
MODEL      126
REMARK 921   NORMALIZED FREE ENERGY PREDICTED BY IDOCK:   -4.14 KCAL/MOL
REMARK 922        TOTAL FREE ENERGY PREDICTED BY IDOCK:   -9.35 KCAL/MOL
REMARK 923 INTER-LIGAND FREE ENERGY PREDICTED BY IDOCK:   -7.56 KCAL/MOL
REMARK 924 INTRA-LIGAND FREE ENERGY PREDICTED BY IDOCK:   -1.80 KCAL/MOL
REMARK 927      BINDING AFFINITY PREDICTED BY RF-SCORE:    0.00 PKD
ROOT
HETATM    1  C   UNL     1      -9.169   7.694  66.167  1.00  0.00    -0.116 C  
HETATM    2  O   UNL     1      -8.396   8.887  66.133  1.00  0.00    -0.115 OA 
ENDROOT
BRANCH   2   3
HETATM    3  C   UNL     1      -9.100  10.089  66.160  1.00  0.00    -0.156 C  
HETATM    4  C   UNL     1      -9.190  10.750  67.328  1.00  0.00    -0.147 C  
HETATM    5  C   UNL     1      -9.964  12.027  67.375  1.00  0.00    -0.191 C  
HETATM    6  O   UNL     1      -9.517  10.263  63.801  1.00  0.00    -0.272 OA 
HETATM    7  O   UNL     1      -9.805  12.878  68.243  1.00  0.00    -0.225 OA 
HETATM    8  C   UNL     1      -9.793  10.625  64.939  1.00  0.00    -0.302 C  
HETATM    9  C   UNL     1     -11.003  12.227  66.326  1.00  0.00    -0.327 C  
HETATM   10  C   UNL     1     -11.831  11.760  63.982  1.00  0.00    -0.402 C  
HETATM   11  C   UNL     1     -10.903  11.585  65.151  1.00  0.00    -0.326 C  
BRANCH   4  12
HETATM   12  O   UNL     1      -8.547  10.218  68.446  1.00  0.00    -0.118 OA 
HETATM   13  C   UNL     1      -9.341   9.615  69.460  1.00  0.00    -0.200 C  
ENDBRANCH   4  12
BRANCH   9  14
HETATM   14  C   UNL     1     -12.123  13.149  66.699  1.00  0.00    -0.409 C  
BRANCH  14  15
HETATM   15  C   UNL     1     -12.088  14.473  65.933  1.00  0.00    -0.288 C  
BRANCH  15  16
HETATM   16  C   UNL     1     -10.684  14.794  65.422  1.00  0.00    -0.385 C  
BRANCH  16  17
HETATM   17  C   UNL     1     -10.441  16.298  65.366  1.00  0.00    -0.365 C  
BRANCH  17  18
HETATM   18  C   UNL     1      -9.558  16.777  66.503  1.00  0.00    -0.285 C  
BRANCH  18  19
HETATM   19  C   UNL     1     -10.203  17.995  67.151  1.00  0.00    -0.366 C  
BRANCH  19  20
HETATM   20  C   UNL     1     -10.405  17.761  68.637  1.00  0.00    -0.351 C  
BRANCH  20  21
HETATM   21  C   UNL     1      -9.750  16.457  69.066  1.00  0.00    -0.262 C  
BRANCH  21  22
HETATM   22  C   UNL     1     -10.566  15.803  70.170  1.00  0.00    -0.334 C  
BRANCH  22  23
HETATM   23  C   UNL     1     -11.840  15.185  69.609  1.00  0.00    -0.362 C  
BRANCH  23  24
HETATM   24  C   UNL     1     -12.844  14.924  70.723  1.00  0.00    -0.428 C  
BRANCH  24  25
HETATM   25  C   UNL     1     -12.567  13.598  71.412  1.00  0.00    -0.328 C  
HETATM   26  O   UNL     1     -11.931  12.711  70.503  1.00  0.00    -0.495 OA 
HETATM   27  H   UNL     1     -11.757  11.883  70.934  1.00  0.00     0.000 HD 
ENDBRANCH  24  25
ENDBRANCH  23  24
ENDBRANCH  22  23
ENDBRANCH  21  22
ENDBRANCH  20  21
ENDBRANCH  19  20
ENDBRANCH  18  19
ENDBRANCH  17  18
ENDBRANCH  16  17
ENDBRANCH  15  16
ENDBRANCH  14  15
ENDBRANCH   9  14
ENDBRANCH   2   3
TORSDOF 14
ENDMDL
MODEL      127
REMARK 921   NORMALIZED FREE ENERGY PREDICTED BY IDOCK:   -4.13 KCAL/MOL
REMARK 922        TOTAL FREE ENERGY PREDICTED BY IDOCK:   -9.34 KCAL/MOL
REMARK 923 INTER-LIGAND FREE ENERGY PREDICTED BY IDOCK:   -7.54 KCAL/MOL
REMARK 924 INTRA-LIGAND FREE ENERGY PREDICTED BY IDOCK:   -1.80 KCAL/MOL
REMARK 927      BINDING AFFINITY PREDICTED BY RF-SCORE:    0.00 PKD
ROOT
HETATM    1  C   UNL     1     -14.391   8.513  72.104  1.00  0.00    -0.436 C  
HETATM    2  O   UNL     1     -13.307   9.316  72.551  1.00  0.00    -0.457 OA 
ENDROOT
BRANCH   2   3
HETATM    3  C   UNL     1     -12.132   9.251  71.805  1.00  0.00    -0.387 C  
HETATM    4  C   UNL     1     -11.923  10.185  70.860  1.00  0.00    -0.365 C  
HETATM    5  C   UNL     1     -10.678  10.110  70.037  1.00  0.00    -0.305 C  
HETATM    6  O   UNL     1     -11.093   7.451  73.011  1.00  0.00    -0.342 OA 
HETATM    7  O   UNL     1     -10.210  11.072  69.438  1.00  0.00    -0.178 OA 
HETATM    8  C   UNL     1     -11.134   8.144  72.001  1.00  0.00    -0.306 C  
HETATM    9  C   UNL     1     -10.021   8.777  69.923  1.00  0.00    -0.193 C  
HETATM   10  C   UNL     1      -9.545   6.506  70.929  1.00  0.00    -0.186 C  
HETATM   11  C   UNL     1     -10.211   7.852  70.877  1.00  0.00    -0.213 C  
BRANCH   4  12
HETATM   12  O   UNL     1     -12.875  11.190  70.695  1.00  0.00    -0.274 OA 
HETATM   13  C   UNL     1     -12.598  12.478  71.231  1.00  0.00    -0.231 C  
ENDBRANCH   4  12
BRANCH   9  14
HETATM   14  C   UNL     1      -9.190   8.575  68.694  1.00  0.00    -0.142 C  
BRANCH  14  15
HETATM   15  C   UNL     1     -10.023   8.218  67.461  1.00  0.00    -0.252 C  
BRANCH  15  16
HETATM   16  C   UNL     1      -9.178   8.223  66.187  1.00  0.00    -0.250 C  
BRANCH  16  17
HETATM   17  C   UNL     1      -9.434   9.473  65.353  1.00  0.00    -0.336 C  
BRANCH  17  18
HETATM   18  C   UNL     1      -8.638  10.665  65.849  1.00  0.00    -0.177 C  
BRANCH  18  19
HETATM   19  C   UNL     1      -9.578  11.851  66.023  1.00  0.00    -0.251 C  
BRANCH  19  20
HETATM   20  C   UNL     1     -11.024  11.403  65.916  1.00  0.00    -0.268 C  
BRANCH  20  21
HETATM   21  C   UNL     1     -11.876  12.498  65.291  1.00  0.00    -0.461 C  
BRANCH  21  22
HETATM   22  C   UNL     1     -12.417  13.418  66.374  1.00  0.00    -0.297 C  
BRANCH  22  23
HETATM   23  C   UNL     1     -11.898  14.838  66.189  1.00  0.00    -0.203 C  
BRANCH  23  24
HETATM   24  C   UNL     1     -11.156  15.303  67.434  1.00  0.00    -0.326 C  
BRANCH  24  25
HETATM   25  C   UNL     1     -11.519  14.451  68.639  1.00  0.00    -0.287 C  
HETATM   26  O   UNL     1     -10.360  14.220  69.427  1.00  0.00    -0.413 OA 
HETATM   27  H   UNL     1     -10.587  13.688  70.181  1.00  0.00     0.000 HD 
ENDBRANCH  24  25
ENDBRANCH  23  24
ENDBRANCH  22  23
ENDBRANCH  21  22
ENDBRANCH  20  21
ENDBRANCH  19  20
ENDBRANCH  18  19
ENDBRANCH  17  18
ENDBRANCH  16  17
ENDBRANCH  15  16
ENDBRANCH  14  15
ENDBRANCH   9  14
ENDBRANCH   2   3
TORSDOF 14
ENDMDL
MODEL      128
REMARK 921   NORMALIZED FREE ENERGY PREDICTED BY IDOCK:   -4.13 KCAL/MOL
REMARK 922        TOTAL FREE ENERGY PREDICTED BY IDOCK:   -9.33 KCAL/MOL
REMARK 923 INTER-LIGAND FREE ENERGY PREDICTED BY IDOCK:   -7.81 KCAL/MOL
REMARK 924 INTRA-LIGAND FREE ENERGY PREDICTED BY IDOCK:   -1.53 KCAL/MOL
REMARK 927      BINDING AFFINITY PREDICTED BY RF-SCORE:    0.00 PKD
ROOT
HETATM    1  C   UNL     1      -7.494  15.241  67.161  1.00  0.00    -0.167 C  
HETATM    2  O   UNL     1      -8.616  14.980  67.995  1.00  0.00    -0.151 OA 
ENDROOT
BRANCH   2   3
HETATM    3  C   UNL     1      -9.781  14.554  67.360  1.00  0.00    -0.222 C  
HETATM    4  C   UNL     1     -10.178  13.282  67.541  1.00  0.00    -0.222 C  
HETATM    5  C   UNL     1     -11.413  12.807  66.846  1.00  0.00    -0.340 C  
HETATM    6  O   UNL     1     -10.450  16.683  66.470  1.00  0.00    -0.302 OA 
HETATM    7  O   UNL     1     -12.060  11.834  67.216  1.00  0.00    -0.595 OA 
HETATM    8  C   UNL     1     -10.560  15.462  66.452  1.00  0.00    -0.307 C  
HETATM    9  C   UNL     1     -11.826  13.548  65.620  1.00  0.00    -0.397 C  
HETATM   10  C   UNL     1     -11.863  15.708  64.307  1.00  0.00    -0.151 C  
HETATM   11  C   UNL     1     -11.448  14.824  65.449  1.00  0.00    -0.341 C  
BRANCH   4  12
HETATM   12  O   UNL     1      -9.425  12.462  68.381  1.00  0.00    -0.212 OA 
HETATM   13  C   UNL     1      -8.487  11.569  67.791  1.00  0.00    -0.137 C  
ENDBRANCH   4  12
BRANCH   9  14
HETATM   14  C   UNL     1     -12.641  12.762  64.641  1.00  0.00    -0.491 C  
BRANCH  14  15
HETATM   15  C   UNL     1     -11.826  11.700  63.899  1.00  0.00    -0.348 C  
BRANCH  15  16
HETATM   16  C   UNL     1     -10.517  12.271  63.354  1.00  0.00    -0.408 C  
BRANCH  16  17
HETATM   17  C   UNL     1      -9.431  11.204  63.283  1.00  0.00    -0.346 C  
BRANCH  17  18
HETATM   18  C   UNL     1      -9.528  10.211  64.426  1.00  0.00    -0.368 C  
BRANCH  18  19
HETATM   19  C   UNL     1      -8.501   9.107  64.211  1.00  0.00    -0.200 C  
BRANCH  19  20
HETATM   20  C   UNL     1      -8.172   8.426  65.527  1.00  0.00    -0.140 C  
BRANCH  20  21
HETATM   21  C   UNL     1      -9.433   8.224  66.353  1.00  0.00    -0.287 C  
BRANCH  21  22
HETATM   22  C   UNL     1      -9.642   6.743  66.630  1.00  0.00    -0.211 C  
BRANCH  22  23
HETATM   23  C   UNL     1     -10.992   6.500  67.292  1.00  0.00    -0.475 C  
BRANCH  23  24
HETATM   24  C   UNL     1     -10.808   5.906  68.682  1.00  0.00    -0.333 C  
BRANCH  24  25
HETATM   25  C   UNL     1     -10.547   6.993  69.712  1.00  0.00    -0.233 C  
HETATM   26  O   UNL     1     -11.423   8.087  69.484  1.00  0.00    -0.423 OA 
HETATM   27  H   UNL     1     -11.260   8.766  70.128  1.00  0.00     0.000 HD 
ENDBRANCH  24  25
ENDBRANCH  23  24
ENDBRANCH  22  23
ENDBRANCH  21  22
ENDBRANCH  20  21
ENDBRANCH  19  20
ENDBRANCH  18  19
ENDBRANCH  17  18
ENDBRANCH  16  17
ENDBRANCH  15  16
ENDBRANCH  14  15
ENDBRANCH   9  14
ENDBRANCH   2   3
TORSDOF 14
ENDMDL
MODEL      129
REMARK 921   NORMALIZED FREE ENERGY PREDICTED BY IDOCK:   -4.13 KCAL/MOL
REMARK 922        TOTAL FREE ENERGY PREDICTED BY IDOCK:   -9.33 KCAL/MOL
REMARK 923 INTER-LIGAND FREE ENERGY PREDICTED BY IDOCK:   -6.99 KCAL/MOL
REMARK 924 INTRA-LIGAND FREE ENERGY PREDICTED BY IDOCK:   -2.34 KCAL/MOL
REMARK 927      BINDING AFFINITY PREDICTED BY RF-SCORE:    0.00 PKD
ROOT
HETATM    1  C   UNL     1      -7.352   4.497  66.053  1.00  0.00    -0.077 C  
HETATM    2  O   UNL     1      -8.156   5.306  65.204  1.00  0.00    -0.109 OA 
ENDROOT
BRANCH   2   3
HETATM    3  C   UNL     1      -8.940   6.277  65.825  1.00  0.00    -0.068 C  
HETATM    4  C   UNL     1      -8.652   7.572  65.597  1.00  0.00    -0.114 C  
HETATM    5  C   UNL     1      -9.470   8.621  66.277  1.00  0.00    -0.241 C  
HETATM    6  O   UNL     1     -10.563   4.797  66.798  1.00  0.00    -0.193 OA 
HETATM    7  O   UNL     1      -9.553   9.775  65.872  1.00  0.00    -0.209 OA 
HETATM    8  C   UNL     1     -10.048   5.909  66.770  1.00  0.00    -0.192 C  
HETATM    9  C   UNL     1     -10.171   8.225  67.531  1.00  0.00    -0.309 C  
HETATM   10  C   UNL     1     -11.254   6.415  68.927  1.00  0.00    -0.385 C  
HETATM   11  C   UNL     1     -10.478   6.937  67.751  1.00  0.00    -0.279 C  
BRANCH   4  12
HETATM   12  O   UNL     1      -7.608   7.878  64.725  1.00  0.00    -0.095 OA 
HETATM   13  C   UNL     1      -7.922   8.156  63.366  1.00  0.00    -0.147 C  
ENDBRANCH   4  12
BRANCH   9  14
HETATM   14  C   UNL     1     -10.464   9.344  68.482  1.00  0.00    -0.239 C  
BRANCH  14  15
HETATM   15  C   UNL     1      -9.223   9.835  69.230  1.00  0.00    -0.197 C  
BRANCH  15  16
HETATM   16  C   UNL     1      -8.841   8.894  70.372  1.00  0.00    -0.204 C  
BRANCH  16  17
HETATM   17  C   UNL     1      -9.743   9.096  71.585  1.00  0.00    -0.263 C  
BRANCH  17  18
HETATM   18  C   UNL     1     -10.111   7.783  72.249  1.00  0.00    -0.277 C  
BRANCH  18  19
HETATM   19  C   UNL     1     -11.617   7.747  72.475  1.00  0.00    -0.422 C  
BRANCH  19  20
HETATM   20  C   UNL     1     -12.316   8.728  71.551  1.00  0.00    -0.380 C  
BRANCH  20  21
HETATM   21  C   UNL     1     -13.354   9.534  72.317  1.00  0.00    -0.526 C  
BRANCH  21  22
HETATM   22  C   UNL     1     -13.232  11.009  71.964  1.00  0.00    -0.447 C  
BRANCH  22  23
HETATM   23  C   UNL     1     -12.657  11.185  70.564  1.00  0.00    -0.360 C  
BRANCH  23  24
HETATM   24  C   UNL     1     -12.063  12.577  70.401  1.00  0.00    -0.380 C  
BRANCH  24  25
HETATM   25  C   UNL     1     -11.756  12.876  68.943  1.00  0.00    -0.327 C  
HETATM   26  O   UNL     1     -12.358  14.107  68.571  1.00  0.00    -0.556 OA 
HETATM   27  H   UNL     1     -12.166  14.294  67.659  1.00  0.00     0.000 HD 
ENDBRANCH  24  25
ENDBRANCH  23  24
ENDBRANCH  22  23
ENDBRANCH  21  22
ENDBRANCH  20  21
ENDBRANCH  19  20
ENDBRANCH  18  19
ENDBRANCH  17  18
ENDBRANCH  16  17
ENDBRANCH  15  16
ENDBRANCH  14  15
ENDBRANCH   9  14
ENDBRANCH   2   3
TORSDOF 14
ENDMDL
MODEL      130
REMARK 921   NORMALIZED FREE ENERGY PREDICTED BY IDOCK:   -4.12 KCAL/MOL
REMARK 922        TOTAL FREE ENERGY PREDICTED BY IDOCK:   -9.31 KCAL/MOL
REMARK 923 INTER-LIGAND FREE ENERGY PREDICTED BY IDOCK:   -7.38 KCAL/MOL
REMARK 924 INTRA-LIGAND FREE ENERGY PREDICTED BY IDOCK:   -1.93 KCAL/MOL
REMARK 927      BINDING AFFINITY PREDICTED BY RF-SCORE:    0.00 PKD
ROOT
HETATM    1  C   UNL     1      -6.753  11.391  67.636  1.00  0.00    -0.075 C  
HETATM    2  O   UNL     1      -7.664  11.841  68.630  1.00  0.00    -0.131 OA 
ENDROOT
BRANCH   2   3
HETATM    3  C   UNL     1      -8.874  12.364  68.178  1.00  0.00    -0.191 C  
HETATM    4  C   UNL     1      -9.966  11.580  68.225  1.00  0.00    -0.202 C  
HETATM    5  C   UNL     1     -11.264  12.122  67.720  1.00  0.00    -0.275 C  
HETATM    6  O   UNL     1      -8.121  14.613  67.794  1.00  0.00    -0.129 OA 
HETATM    7  O   UNL     1     -12.355  11.668  68.048  1.00  0.00    -0.429 OA 
HETATM    8  C   UNL     1      -8.968  13.748  67.600  1.00  0.00    -0.194 C  
HETATM    9  C   UNL     1     -11.193  13.239  66.736  1.00  0.00    -0.331 C  
HETATM   10  C   UNL     1      -9.951  15.244  65.824  1.00  0.00    -0.391 C  
HETATM   11  C   UNL     1     -10.114  14.036  66.703  1.00  0.00    -0.276 C  
BRANCH   4  12
HETATM   12  O   UNL     1      -9.842  10.296  68.755  1.00  0.00    -0.165 OA 
HETATM   13  C   UNL     1     -10.195  10.089  70.117  1.00  0.00    -0.242 C  
ENDBRANCH   4  12
BRANCH   9  14
HETATM   14  C   UNL     1     -12.373  13.365  65.824  1.00  0.00    -0.513 C  
BRANCH  14  15
HETATM   15  C   UNL     1     -12.407  12.288  64.737  1.00  0.00    -0.416 C  
BRANCH  15  16
HETATM   16  C   UNL     1     -11.677  12.738  63.472  1.00  0.00    -0.597 C  
BRANCH  16  17
HETATM   17  C   UNL     1     -10.231  12.257  63.461  1.00  0.00    -0.410 C  
BRANCH  17  18
HETATM   18  C   UNL     1     -10.090  10.854  64.021  1.00  0.00    -0.419 C  
BRANCH  18  19
HETATM   19  C   UNL     1      -9.326   9.996  63.021  1.00  0.00    -0.297 C  
BRANCH  19  20
HETATM   20  C   UNL     1      -7.885   9.822  63.464  1.00  0.00    -0.140 C  
BRANCH  20  21
HETATM   21  C   UNL     1      -7.824   9.263  64.877  1.00  0.00    -0.116 C  
BRANCH  21  22
HETATM   22  C   UNL     1      -7.744   7.744  64.833  1.00  0.00    -0.110 C  
BRANCH  22  23
HETATM   23  C   UNL     1      -8.581   7.125  65.945  1.00  0.00    -0.157 C  
BRANCH  23  24
HETATM   24  C   UNL     1      -9.811   7.976  66.226  1.00  0.00    -0.162 C  
BRANCH  24  25
HETATM   25  C   UNL     1     -10.614   7.414  67.388  1.00  0.00    -0.301 C  
HETATM   26  O   UNL     1     -11.507   6.417  66.912  1.00  0.00    -0.710 OA 
HETATM   27  H   UNL     1     -12.009   6.065  67.638  1.00  0.00     0.000 HD 
ENDBRANCH  24  25
ENDBRANCH  23  24
ENDBRANCH  22  23
ENDBRANCH  21  22
ENDBRANCH  20  21
ENDBRANCH  19  20
ENDBRANCH  18  19
ENDBRANCH  17  18
ENDBRANCH  16  17
ENDBRANCH  15  16
ENDBRANCH  14  15
ENDBRANCH   9  14
ENDBRANCH   2   3
TORSDOF 14
ENDMDL
MODEL      131
REMARK 921   NORMALIZED FREE ENERGY PREDICTED BY IDOCK:   -4.11 KCAL/MOL
REMARK 922        TOTAL FREE ENERGY PREDICTED BY IDOCK:   -9.30 KCAL/MOL
REMARK 923 INTER-LIGAND FREE ENERGY PREDICTED BY IDOCK:   -7.52 KCAL/MOL
REMARK 924 INTRA-LIGAND FREE ENERGY PREDICTED BY IDOCK:   -1.79 KCAL/MOL
REMARK 927      BINDING AFFINITY PREDICTED BY RF-SCORE:    0.00 PKD
ROOT
HETATM    1  C   UNL     1      -6.550   7.292  65.371  1.00  0.00    -0.047 C  
HETATM    2  O   UNL     1      -7.792   7.526  64.721  1.00  0.00    -0.113 OA 
ENDROOT
BRANCH   2   3
HETATM    3  C   UNL     1      -8.821   8.043  65.506  1.00  0.00    -0.061 C  
HETATM    4  C   UNL     1      -9.040   9.370  65.480  1.00  0.00    -0.218 C  
HETATM    5  C   UNL     1     -10.124   9.937  66.336  1.00  0.00    -0.240 C  
HETATM    6  O   UNL     1      -9.717   5.948  66.268  1.00  0.00    -0.154 OA 
HETATM    7  O   UNL     1     -10.651  11.024  66.122  1.00  0.00    -0.257 OA 
HETATM    8  C   UNL     1      -9.643   7.164  66.406  1.00  0.00    -0.098 C  
HETATM    9  C   UNL     1     -10.533   9.140  67.527  1.00  0.00    -0.335 C  
HETATM   10  C   UNL     1     -10.774   6.883  68.642  1.00  0.00    -0.256 C  
HETATM   11  C   UNL     1     -10.335   7.813  67.546  1.00  0.00    -0.333 C  
BRANCH   4  12
HETATM   12  O   UNL     1      -8.250  10.159  64.644  1.00  0.00    -0.155 OA 
HETATM   13  C   UNL     1      -8.739  10.467  63.345  1.00  0.00    -0.190 C  
ENDBRANCH   4  12
BRANCH   9  14
HETATM   14  C   UNL     1     -11.134   9.927  68.650  1.00  0.00    -0.182 C  
BRANCH  14  15
HETATM   15  C   UNL     1     -10.205  10.049  69.860  1.00  0.00    -0.304 C  
BRANCH  15  16
HETATM   16  C   UNL     1     -10.922   9.693  71.162  1.00  0.00    -0.430 C  
BRANCH  16  17
HETATM   17  C   UNL     1     -12.436   9.725  70.991  1.00  0.00    -0.414 C  
BRANCH  17  18
HETATM   18  C   UNL     1     -13.100  10.700  71.946  1.00  0.00    -0.563 C  
BRANCH  18  19
HETATM   19  C   UNL     1     -12.888  12.118  71.432  1.00  0.00    -0.378 C  
BRANCH  19  20
HETATM   20  C   UNL     1     -13.580  13.120  72.338  1.00  0.00    -0.667 C  
BRANCH  20  21
HETATM   21  C   UNL     1     -13.101  14.532  72.037  1.00  0.00    -0.425 C  
BRANCH  21  22
HETATM   22  C   UNL     1     -11.957  14.490  71.034  1.00  0.00    -0.394 C  
BRANCH  22  23
HETATM   23  C   UNL     1     -12.207  15.458  69.885  1.00  0.00    -0.363 C  
BRANCH  23  24
HETATM   24  C   UNL     1     -11.267  15.165  68.724  1.00  0.00    -0.293 C  
BRANCH  24  25
HETATM   25  C   UNL     1     -11.165  13.671  68.464  1.00  0.00    -0.280 C  
HETATM   26  O   UNL     1     -12.003  13.318  67.373  1.00  0.00    -0.363 OA 
HETATM   27  H   UNL     1     -11.939  12.384  67.210  1.00  0.00     0.000 HD 
ENDBRANCH  24  25
ENDBRANCH  23  24
ENDBRANCH  22  23
ENDBRANCH  21  22
ENDBRANCH  20  21
ENDBRANCH  19  20
ENDBRANCH  18  19
ENDBRANCH  17  18
ENDBRANCH  16  17
ENDBRANCH  15  16
ENDBRANCH  14  15
ENDBRANCH   9  14
ENDBRANCH   2   3
TORSDOF 14
ENDMDL
MODEL      132
REMARK 921   NORMALIZED FREE ENERGY PREDICTED BY IDOCK:   -4.11 KCAL/MOL
REMARK 922        TOTAL FREE ENERGY PREDICTED BY IDOCK:   -9.30 KCAL/MOL
REMARK 923 INTER-LIGAND FREE ENERGY PREDICTED BY IDOCK:   -7.45 KCAL/MOL
REMARK 924 INTRA-LIGAND FREE ENERGY PREDICTED BY IDOCK:   -1.85 KCAL/MOL
REMARK 927      BINDING AFFINITY PREDICTED BY RF-SCORE:    0.00 PKD
ROOT
HETATM    1  C   UNL     1      -8.664   8.038  72.120  1.00  0.00    -0.157 C  
HETATM    2  O   UNL     1      -8.027   7.667  70.904  1.00  0.00    -0.092 OA 
ENDROOT
BRANCH   2   3
HETATM    3  C   UNL     1      -8.477   8.296  69.745  1.00  0.00    -0.128 C  
HETATM    4  C   UNL     1      -9.380   7.656  68.980  1.00  0.00    -0.146 C  
HETATM    5  C   UNL     1      -9.850   8.311  67.722  1.00  0.00    -0.170 C  
HETATM    6  O   UNL     1      -7.369  10.401  70.080  1.00  0.00    -0.158 OA 
HETATM    7  O   UNL     1     -10.904   8.019  67.166  1.00  0.00    -0.278 OA 
HETATM    8  C   UNL     1      -7.942   9.633  69.316  1.00  0.00    -0.104 C  
HETATM    9  C   UNL     1      -8.952   9.333  67.115  1.00  0.00    -0.141 C  
HETATM   10  C   UNL     1      -7.165  11.097  67.416  1.00  0.00    -0.107 C  
HETATM   11  C   UNL     1      -8.066   9.989  67.881  1.00  0.00    -0.109 C  
BRANCH   4  12
HETATM   12  O   UNL     1      -9.845   6.411  69.400  1.00  0.00    -0.147 OA 
HETATM   13  C   UNL     1     -11.138   6.335  69.988  1.00  0.00    -0.388 C  
ENDBRANCH   4  12
BRANCH   9  14
HETATM   14  C   UNL     1      -9.112   9.531  65.639  1.00  0.00    -0.250 C  
BRANCH  14  15
HETATM   15  C   UNL     1     -10.077  10.666  65.289  1.00  0.00    -0.363 C  
BRANCH  15  16
HETATM   16  C   UNL     1     -10.168  10.886  63.779  1.00  0.00    -0.407 C  
BRANCH  16  17
HETATM   17  C   UNL     1     -10.934  12.160  63.446  1.00  0.00    -0.480 C  
BRANCH  17  18
HETATM   18  C   UNL     1     -12.071  12.415  64.418  1.00  0.00    -0.505 C  
BRANCH  18  19
HETATM   19  C   UNL     1     -12.157  13.909  64.700  1.00  0.00    -0.458 C  
BRANCH  19  20
HETATM   20  C   UNL     1     -10.777  14.479  64.972  1.00  0.00    -0.444 C  
BRANCH  20  21
HETATM   21  C   UNL     1     -10.745  15.176  66.324  1.00  0.00    -0.320 C  
BRANCH  21  22
HETATM   22  C   UNL     1     -10.592  14.148  67.435  1.00  0.00    -0.279 C  
BRANCH  22  23
HETATM   23  C   UNL     1     -11.867  14.049  68.262  1.00  0.00    -0.406 C  
BRANCH  23  24
HETATM   24  C   UNL     1     -11.724  12.984  69.340  1.00  0.00    -0.386 C  
BRANCH  24  25
HETATM   25  C   UNL     1     -11.080  11.724  68.785  1.00  0.00    -0.241 C  
HETATM   26  O   UNL     1     -12.056  10.951  68.102  1.00  0.00    -0.785 OA 
HETATM   27  H   UNL     1     -11.654  10.163  67.754  1.00  0.00     0.000 HD 
ENDBRANCH  24  25
ENDBRANCH  23  24
ENDBRANCH  22  23
ENDBRANCH  21  22
ENDBRANCH  20  21
ENDBRANCH  19  20
ENDBRANCH  18  19
ENDBRANCH  17  18
ENDBRANCH  16  17
ENDBRANCH  15  16
ENDBRANCH  14  15
ENDBRANCH   9  14
ENDBRANCH   2   3
TORSDOF 14
ENDMDL
MODEL      133
REMARK 921   NORMALIZED FREE ENERGY PREDICTED BY IDOCK:   -4.09 KCAL/MOL
REMARK 922        TOTAL FREE ENERGY PREDICTED BY IDOCK:   -9.25 KCAL/MOL
REMARK 923 INTER-LIGAND FREE ENERGY PREDICTED BY IDOCK:   -7.83 KCAL/MOL
REMARK 924 INTRA-LIGAND FREE ENERGY PREDICTED BY IDOCK:   -1.43 KCAL/MOL
REMARK 927      BINDING AFFINITY PREDICTED BY RF-SCORE:    0.00 PKD
ROOT
HETATM    1  C   UNL     1      -7.558   7.700  68.202  1.00  0.00    -0.114 C  
HETATM    2  O   UNL     1      -8.975   7.635  68.111  1.00  0.00    -0.128 OA 
ENDROOT
BRANCH   2   3
HETATM    3  C   UNL     1      -9.694   8.545  68.884  1.00  0.00    -0.170 C  
HETATM    4  C   UNL     1     -10.195   8.128  70.060  1.00  0.00    -0.202 C  
HETATM    5  C   UNL     1     -10.989   9.088  70.885  1.00  0.00    -0.268 C  
HETATM    6  O   UNL     1      -9.304  10.487  67.525  1.00  0.00    -0.148 OA 
HETATM    7  O   UNL     1     -11.162   8.954  72.092  1.00  0.00    -0.360 OA 
HETATM    8  C   UNL     1      -9.959   9.945  68.409  1.00  0.00    -0.158 C  
HETATM    9  C   UNL     1     -11.624  10.231  70.169  1.00  0.00    -0.376 C  
HETATM   10  C   UNL     1     -11.601  11.850  68.227  1.00  0.00    -0.390 C  
HETATM   11  C   UNL     1     -11.112  10.662  69.006  1.00  0.00    -0.307 C  
BRANCH   4  12
HETATM   12  O   UNL     1      -9.942   6.818  70.465  1.00  0.00    -0.183 OA 
HETATM   13  C   UNL     1     -10.997   5.868  70.379  1.00  0.00    -0.306 C  
ENDBRANCH   4  12
BRANCH   9  14
HETATM   14  C   UNL     1     -12.839  10.805  70.830  1.00  0.00    -0.443 C  
BRANCH  14  15
HETATM   15  C   UNL     1     -12.565  12.139  71.528  1.00  0.00    -0.267 C  
BRANCH  15  16
HETATM   16  C   UNL     1     -13.782  12.625  72.316  1.00  0.00    -0.429 C  
BRANCH  16  17
HETATM   17  C   UNL     1     -13.796  14.145  72.438  1.00  0.00    -0.638 C  
BRANCH  17  18
HETATM   18  C   UNL     1     -12.418  14.707  72.735  1.00  0.00    -0.381 C  
BRANCH  18  19
HETATM   19  C   UNL     1     -12.283  16.067  72.062  1.00  0.00    -0.582 C  
BRANCH  19  20
HETATM   20  C   UNL     1     -11.273  16.002  70.930  1.00  0.00    -0.365 C  
BRANCH  20  21
HETATM   21  C   UNL     1     -11.920  15.445  69.670  1.00  0.00    -0.366 C  
BRANCH  21  22
HETATM   22  C   UNL     1     -11.211  15.989  68.439  1.00  0.00    -0.364 C  
BRANCH  22  23
HETATM   23  C   UNL     1      -9.962  15.174  68.128  1.00  0.00    -0.221 C  
BRANCH  23  24
HETATM   24  C   UNL     1      -8.852  16.075  67.606  1.00  0.00    -0.190 C  
BRANCH  24  25
HETATM   25  C   UNL     1      -7.956  16.553  68.738  1.00  0.00    -0.236 C  
HETATM   26  O   UNL     1      -7.356  17.790  68.382  1.00  0.00    -0.236 OA 
HETATM   27  H   UNL     1      -6.796  18.089  69.089  1.00  0.00     0.000 HD 
ENDBRANCH  24  25
ENDBRANCH  23  24
ENDBRANCH  22  23
ENDBRANCH  21  22
ENDBRANCH  20  21
ENDBRANCH  19  20
ENDBRANCH  18  19
ENDBRANCH  17  18
ENDBRANCH  16  17
ENDBRANCH  15  16
ENDBRANCH  14  15
ENDBRANCH   9  14
ENDBRANCH   2   3
TORSDOF 14
ENDMDL
MODEL      134
REMARK 921   NORMALIZED FREE ENERGY PREDICTED BY IDOCK:   -4.08 KCAL/MOL
REMARK 922        TOTAL FREE ENERGY PREDICTED BY IDOCK:   -9.24 KCAL/MOL
REMARK 923 INTER-LIGAND FREE ENERGY PREDICTED BY IDOCK:   -8.47 KCAL/MOL
REMARK 924 INTRA-LIGAND FREE ENERGY PREDICTED BY IDOCK:   -0.77 KCAL/MOL
REMARK 927      BINDING AFFINITY PREDICTED BY RF-SCORE:    0.00 PKD
ROOT
HETATM    1  C   UNL     1      -5.601   5.562  71.320  1.00  0.00    -0.009 C  
HETATM    2  O   UNL     1      -6.830   4.848  71.315  1.00  0.00    -0.040 OA 
ENDROOT
BRANCH   2   3
HETATM    3  C   UNL     1      -7.994   5.608  71.421  1.00  0.00    -0.113 C  
HETATM    4  C   UNL     1      -8.455   5.903  72.650  1.00  0.00    -0.119 C  
HETATM    5  C   UNL     1      -9.715   6.695  72.775  1.00  0.00    -0.153 C  
HETATM    6  O   UNL     1      -8.267   6.092  69.084  1.00  0.00    -0.110 OA 
HETATM    7  O   UNL     1     -10.015   7.326  73.783  1.00  0.00    -0.301 OA 
HETATM    8  C   UNL     1      -8.758   6.051  70.206  1.00  0.00    -0.143 C  
HETATM    9  C   UNL     1     -10.654   6.660  71.618  1.00  0.00    -0.245 C  
HETATM   10  C   UNL     1     -11.011   6.404  69.128  1.00  0.00    -0.416 C  
HETATM   11  C   UNL     1     -10.192   6.388  70.388  1.00  0.00    -0.233 C  
BRANCH   4  12
HETATM   12  O   UNL     1      -7.728   5.464  73.757  1.00  0.00    -0.100 OA 
HETATM   13  C   UNL     1      -8.205   4.332  74.473  1.00  0.00    -0.090 C  
ENDBRANCH   4  12
BRANCH   9  14
HETATM   14  C   UNL     1     -12.090   6.924  71.950  1.00  0.00    -0.370 C  
BRANCH  14  15
HETATM   15  C   UNL     1     -12.570   8.298  71.479  1.00  0.00    -0.333 C  
BRANCH  15  16
HETATM   16  C   UNL     1     -11.496   9.369  71.671  1.00  0.00    -0.463 C  
BRANCH  16  17
HETATM   17  C   UNL     1     -11.473  10.351  70.506  1.00  0.00    -0.431 C  
BRANCH  17  18
HETATM   18  C   UNL     1     -12.467  11.482  70.691  1.00  0.00    -0.405 C  
BRANCH  18  19
HETATM   19  C   UNL     1     -12.064  12.648  69.797  1.00  0.00    -0.301 C  
BRANCH  19  20
HETATM   20  C   UNL     1     -10.955  12.231  68.849  1.00  0.00    -0.265 C  
BRANCH  20  21
HETATM   21  C   UNL     1     -11.429  12.310  67.405  1.00  0.00    -0.422 C  
BRANCH  21  22
HETATM   22  C   UNL     1     -11.789  13.746  67.054  1.00  0.00    -0.445 C  
BRANCH  22  23
HETATM   23  C   UNL     1     -12.586  13.804  65.757  1.00  0.00    -0.525 C  
BRANCH  23  24
HETATM   24  C   UNL     1     -11.685  14.192  64.593  1.00  0.00    -0.427 C  
BRANCH  24  25
HETATM   25  C   UNL     1     -11.096  15.578  64.794  1.00  0.00    -0.407 C  
HETATM   26  O   UNL     1     -11.587  16.455  63.790  1.00  0.00    -1.605 OA 
HETATM   27  H   UNL     1     -11.219  17.322  63.916  1.00  0.00     0.000 HD 
ENDBRANCH  24  25
ENDBRANCH  23  24
ENDBRANCH  22  23
ENDBRANCH  21  22
ENDBRANCH  20  21
ENDBRANCH  19  20
ENDBRANCH  18  19
ENDBRANCH  17  18
ENDBRANCH  16  17
ENDBRANCH  15  16
ENDBRANCH  14  15
ENDBRANCH   9  14
ENDBRANCH   2   3
TORSDOF 14
ENDMDL
MODEL      135
REMARK 921   NORMALIZED FREE ENERGY PREDICTED BY IDOCK:   -4.07 KCAL/MOL
REMARK 922        TOTAL FREE ENERGY PREDICTED BY IDOCK:   -9.23 KCAL/MOL
REMARK 923 INTER-LIGAND FREE ENERGY PREDICTED BY IDOCK:   -7.65 KCAL/MOL
REMARK 924 INTRA-LIGAND FREE ENERGY PREDICTED BY IDOCK:   -1.58 KCAL/MOL
REMARK 927      BINDING AFFINITY PREDICTED BY RF-SCORE:    0.00 PKD
ROOT
HETATM    1  C   UNL     1     -13.718   7.371  71.362  1.00  0.00    -0.323 C  
HETATM    2  O   UNL     1     -12.421   7.698  71.844  1.00  0.00    -0.304 OA 
ENDROOT
BRANCH   2   3
HETATM    3  C   UNL     1     -11.412   7.820  70.891  1.00  0.00    -0.279 C  
HETATM    4  C   UNL     1     -10.970   9.053  70.584  1.00  0.00    -0.257 C  
HETATM    5  C   UNL     1      -9.906   9.197  69.545  1.00  0.00    -0.178 C  
HETATM    6  O   UNL     1     -10.973   5.476  70.595  1.00  0.00    -0.233 OA 
HETATM    7  O   UNL     1      -9.182  10.184  69.457  1.00  0.00    -0.206 OA 
HETATM    8  C   UNL     1     -10.855   6.622  70.175  1.00  0.00    -0.279 C  
HETATM    9  C   UNL     1      -9.771   8.091  68.555  1.00  0.00    -0.166 C  
HETATM   10  C   UNL     1     -10.040   5.639  68.001  1.00  0.00    -0.211 C  
HETATM   11  C   UNL     1     -10.192   6.856  68.869  1.00  0.00    -0.184 C  
BRANCH   4  12
HETATM   12  O   UNL     1     -11.518  10.144  71.257  1.00  0.00    -0.353 OA 
HETATM   13  C   UNL     1     -12.459  10.959  70.570  1.00  0.00    -0.351 C  
ENDBRANCH   4  12
BRANCH   9  14
HETATM   14  C   UNL     1      -9.173   8.479  67.238  1.00  0.00    -0.168 C  
BRANCH  14  15
HETATM   15  C   UNL     1     -10.196   9.073  66.268  1.00  0.00    -0.237 C  
BRANCH  15  16
HETATM   16  C   UNL     1      -9.655  10.320  65.570  1.00  0.00    -0.299 C  
BRANCH  16  17
HETATM   17  C   UNL     1      -9.697  11.536  66.488  1.00  0.00    -0.226 C  
BRANCH  17  18
HETATM   18  C   UNL     1     -11.102  11.837  66.974  1.00  0.00    -0.358 C  
BRANCH  18  19
HETATM   19  C   UNL     1     -11.807  12.710  65.944  1.00  0.00    -0.499 C  
BRANCH  19  20
HETATM   20  C   UNL     1     -12.157  14.060  66.542  1.00  0.00    -0.488 C  
BRANCH  20  21
HETATM   21  C   UNL     1     -12.005  14.028  68.056  1.00  0.00    -0.386 C  
BRANCH  21  22
HETATM   22  C   UNL     1     -11.740  15.431  68.581  1.00  0.00    -0.371 C  
BRANCH  22  23
HETATM   23  C   UNL     1     -10.327  15.883  68.233  1.00  0.00    -0.242 C  
BRANCH  23  24
HETATM   24  C   UNL     1     -10.349  17.268  67.602  1.00  0.00    -0.350 C  
BRANCH  24  25
HETATM   25  C   UNL     1     -10.025  18.343  68.627  1.00  0.00    -0.387 C  
HETATM   26  O   UNL     1      -9.438  19.461  67.977  1.00  0.00    -0.313 OA 
HETATM   27  H   UNL     1      -9.236  20.133  68.618  1.00  0.00     0.000 HD 
ENDBRANCH  24  25
ENDBRANCH  23  24
ENDBRANCH  22  23
ENDBRANCH  21  22
ENDBRANCH  20  21
ENDBRANCH  19  20
ENDBRANCH  18  19
ENDBRANCH  17  18
ENDBRANCH  16  17
ENDBRANCH  15  16
ENDBRANCH  14  15
ENDBRANCH   9  14
ENDBRANCH   2   3
TORSDOF 14
ENDMDL
MODEL      136
REMARK 921   NORMALIZED FREE ENERGY PREDICTED BY IDOCK:   -4.07 KCAL/MOL
REMARK 922        TOTAL FREE ENERGY PREDICTED BY IDOCK:   -9.22 KCAL/MOL
REMARK 923 INTER-LIGAND FREE ENERGY PREDICTED BY IDOCK:   -7.41 KCAL/MOL
REMARK 924 INTRA-LIGAND FREE ENERGY PREDICTED BY IDOCK:   -1.82 KCAL/MOL
REMARK 927      BINDING AFFINITY PREDICTED BY RF-SCORE:    0.00 PKD
ROOT
HETATM    1  C   UNL     1      -9.909  10.589  63.117  1.00  0.00    -0.242 C  
HETATM    2  O   UNL     1      -9.014  11.071  64.111  1.00  0.00    -0.143 OA 
ENDROOT
BRANCH   2   3
HETATM    3  C   UNL     1      -9.585  11.525  65.299  1.00  0.00    -0.218 C  
HETATM    4  C   UNL     1      -9.464  10.760  66.399  1.00  0.00    -0.171 C  
HETATM    5  C   UNL     1     -10.093  11.226  67.671  1.00  0.00    -0.179 C  
HETATM    6  O   UNL     1     -10.267  13.690  64.511  1.00  0.00    -0.402 OA 
HETATM    7  O   UNL     1      -9.744  10.830  68.778  1.00  0.00    -0.177 OA 
HETATM    8  C   UNL     1     -10.363  12.809  65.358  1.00  0.00    -0.293 C  
HETATM    9  C   UNL     1     -11.227  12.186  67.553  1.00  0.00    -0.357 C  
HETATM   10  C   UNL     1     -12.377  14.029  66.259  1.00  0.00    -0.482 C  
HETATM   11  C   UNL     1     -11.337  12.965  66.466  1.00  0.00    -0.361 C  
BRANCH   4  12
HETATM   12  O   UNL     1      -8.746   9.568  66.306  1.00  0.00    -0.137 OA 
HETATM   13  C   UNL     1      -9.471   8.346  66.236  1.00  0.00    -0.224 C  
ENDBRANCH   4  12
BRANCH   9  14
HETATM   14  C   UNL     1     -12.194  12.180  68.697  1.00  0.00     0.057 C  
BRANCH  14  15
HETATM   15  C   UNL     1     -11.683  12.952  69.916  1.00  0.00    -0.324 C  
BRANCH  15  16
HETATM   16  C   UNL     1     -12.600  14.123  70.268  1.00  0.00    -0.367 C  
BRANCH  16  17
HETATM   17  C   UNL     1     -11.814  15.418  70.429  1.00  0.00    -0.366 C  
BRANCH  17  18
HETATM   18  C   UNL     1     -11.660  16.161  69.115  1.00  0.00    -0.285 C  
BRANCH  18  19
HETATM   19  C   UNL     1     -10.177  16.354  68.825  1.00  0.00    -0.258 C  
BRANCH  19  20
HETATM   20  C   UNL     1      -9.977  16.897  67.422  1.00  0.00    -0.269 C  
BRANCH  20  21
HETATM   21  C   UNL     1     -10.634  18.261  67.279  1.00  0.00    -0.406 C  
BRANCH  21  22
HETATM   22  C   UNL     1      -9.836  19.306  68.045  1.00  0.00    -0.454 C  
BRANCH  22  23
HETATM   23  C   UNL     1      -8.942  20.102  67.103  1.00  0.00    -0.463 C  
BRANCH  23  24
HETATM   24  C   UNL     1      -7.494  20.055  67.571  1.00  0.00    -0.322 C  
BRANCH  24  25
HETATM   25  C   UNL     1      -7.354  19.224  68.837  1.00  0.00    -0.356 C  
HETATM   26  O   UNL     1      -6.606  18.050  68.557  1.00  0.00    -0.202 OA 
HETATM   27  H   UNL     1      -6.518  17.531  69.348  1.00  0.00     0.000 HD 
ENDBRANCH  24  25
ENDBRANCH  23  24
ENDBRANCH  22  23
ENDBRANCH  21  22
ENDBRANCH  20  21
ENDBRANCH  19  20
ENDBRANCH  18  19
ENDBRANCH  17  18
ENDBRANCH  16  17
ENDBRANCH  15  16
ENDBRANCH  14  15
ENDBRANCH   9  14
ENDBRANCH   2   3
TORSDOF 14
ENDMDL
MODEL      137
REMARK 921   NORMALIZED FREE ENERGY PREDICTED BY IDOCK:   -4.06 KCAL/MOL
REMARK 922        TOTAL FREE ENERGY PREDICTED BY IDOCK:   -9.21 KCAL/MOL
REMARK 923 INTER-LIGAND FREE ENERGY PREDICTED BY IDOCK:   -8.06 KCAL/MOL
REMARK 924 INTRA-LIGAND FREE ENERGY PREDICTED BY IDOCK:   -1.15 KCAL/MOL
REMARK 927      BINDING AFFINITY PREDICTED BY RF-SCORE:    0.00 PKD
ROOT
HETATM    1  C   UNL     1     -12.071  15.803  64.358  1.00  0.00    -0.007 C  
HETATM    2  O   UNL     1     -10.833  15.206  64.721  1.00  0.00    -0.403 OA 
ENDROOT
BRANCH   2   3
HETATM    3  C   UNL     1     -10.865  14.287  65.768  1.00  0.00    -0.303 C  
HETATM    4  C   UNL     1     -10.810  12.977  65.471  1.00  0.00    -0.278 C  
HETATM    5  C   UNL     1     -10.869  11.983  66.584  1.00  0.00    -0.272 C  
HETATM    6  O   UNL     1     -10.766  15.868  67.575  1.00  0.00    -0.310 OA 
HETATM    7  O   UNL     1     -10.460  10.831  66.480  1.00  0.00    -0.241 OA 
HETATM    8  C   UNL     1     -11.010  14.727  67.198  1.00  0.00    -0.320 C  
HETATM    9  C   UNL     1     -11.502  12.430  67.857  1.00  0.00    -0.385 C  
HETATM   10  C   UNL     1     -12.067  14.312  69.449  1.00  0.00    -0.361 C  
HETATM   11  C   UNL     1     -11.538  13.736  68.166  1.00  0.00    -0.370 C  
BRANCH   4  12
HETATM   12  O   UNL     1     -10.689  12.602  64.133  1.00  0.00    -0.351 OA 
HETATM   13  C   UNL     1     -11.841  12.105  63.463  1.00  0.00    -0.505 C  
ENDBRANCH   4  12
BRANCH   9  14
HETATM   14  C   UNL     1     -12.081  11.338  68.703  1.00  0.00    -0.211 C  
BRANCH  14  15
HETATM   15  C   UNL     1     -11.445  11.256  70.092  1.00  0.00    -0.336 C  
BRANCH  15  16
HETATM   16  C   UNL     1     -12.209  10.301  71.009  1.00  0.00    -0.487 C  
BRANCH  16  17
HETATM   17  C   UNL     1     -11.319   9.163  71.494  1.00  0.00    -0.439 C  
BRANCH  17  18
HETATM   18  C   UNL     1     -10.982   8.186  70.383  1.00  0.00    -0.248 C  
BRANCH  18  19
HETATM   19  C   UNL     1     -11.775   6.902  70.594  1.00  0.00    -0.417 C  
BRANCH  19  20
HETATM   20  C   UNL     1     -12.177   6.760  72.051  1.00  0.00    -0.331 C  
BRANCH  20  21
HETATM   21  C   UNL     1     -11.510   5.542  72.672  1.00  0.00    -0.331 C  
BRANCH  21  22
HETATM   22  C   UNL     1     -10.255   5.182  71.892  1.00  0.00    -0.269 C  
BRANCH  22  23
HETATM   23  C   UNL     1      -9.006   5.432  72.728  1.00  0.00    -0.121 C  
BRANCH  23  24
HETATM   24  C   UNL     1      -8.499   6.852  72.520  1.00  0.00    -0.124 C  
BRANCH  24  25
HETATM   25  C   UNL     1      -8.605   7.666  73.799  1.00  0.00    -0.227 C  
HETATM   26  O   UNL     1      -7.758   8.803  73.714  1.00  0.00    -0.412 OA 
HETATM   27  H   UNL     1      -7.825   9.312  74.514  1.00  0.00     0.000 HD 
ENDBRANCH  24  25
ENDBRANCH  23  24
ENDBRANCH  22  23
ENDBRANCH  21  22
ENDBRANCH  20  21
ENDBRANCH  19  20
ENDBRANCH  18  19
ENDBRANCH  17  18
ENDBRANCH  16  17
ENDBRANCH  15  16
ENDBRANCH  14  15
ENDBRANCH   9  14
ENDBRANCH   2   3
TORSDOF 14
ENDMDL
MODEL      138
REMARK 921   NORMALIZED FREE ENERGY PREDICTED BY IDOCK:   -4.05 KCAL/MOL
REMARK 922        TOTAL FREE ENERGY PREDICTED BY IDOCK:   -9.19 KCAL/MOL
REMARK 923 INTER-LIGAND FREE ENERGY PREDICTED BY IDOCK:   -7.57 KCAL/MOL
REMARK 924 INTRA-LIGAND FREE ENERGY PREDICTED BY IDOCK:   -1.63 KCAL/MOL
REMARK 927      BINDING AFFINITY PREDICTED BY RF-SCORE:    0.00 PKD
ROOT
HETATM    1  C   UNL     1     -12.130   9.510  71.871  1.00  0.00    -0.337 C  
HETATM    2  O   UNL     1     -11.363   8.422  72.371  1.00  0.00    -0.363 OA 
ENDROOT
BRANCH   2   3
HETATM    3  C   UNL     1     -10.499   7.801  71.471  1.00  0.00    -0.205 C  
HETATM    4  C   UNL     1      -9.177   8.000  71.615  1.00  0.00    -0.150 C  
HETATM    5  C   UNL     1      -8.242   7.360  70.641  1.00  0.00    -0.112 C  
HETATM    6  O   UNL     1     -12.145   6.496  70.304  1.00  0.00    -0.348 OA 
HETATM    7  O   UNL     1      -7.056   7.159  70.880  1.00  0.00    -0.066 OA 
HETATM    8  C   UNL     1     -11.013   6.969  70.331  1.00  0.00    -0.268 C  
HETATM    9  C   UNL     1      -8.799   7.000  69.306  1.00  0.00    -0.139 C  
HETATM   10  C   UNL     1     -10.792   6.329  67.902  1.00  0.00    -0.417 C  
HETATM   11  C   UNL     1     -10.115   6.779  69.165  1.00  0.00    -0.180 C  
BRANCH   4  12
HETATM   12  O   UNL     1      -8.733   8.789  72.676  1.00  0.00    -0.408 OA 
HETATM   13  C   UNL     1      -8.382   8.148  73.895  1.00  0.00    -0.248 C  
ENDBRANCH   4  12
BRANCH   9  14
HETATM   14  C   UNL     1      -7.800   6.933  68.192  1.00  0.00    -0.114 C  
BRANCH  14  15
HETATM   15  C   UNL     1      -8.062   7.964  67.092  1.00  0.00    -0.117 C  
BRANCH  15  16
HETATM   16  C   UNL     1      -7.884   9.393  67.602  1.00  0.00    -0.095 C  
BRANCH  16  17
HETATM   17  C   UNL     1      -8.846  10.355  66.915  1.00  0.00    -0.141 C  
BRANCH  17  18
HETATM   18  C   UNL     1     -10.291   9.916  67.055  1.00  0.00    -0.303 C  
BRANCH  18  19
HETATM   19  C   UNL     1     -10.840  10.431  68.379  1.00  0.00    -0.289 C  
BRANCH  19  20
HETATM   20  C   UNL     1     -10.666  11.936  68.476  1.00  0.00    -0.254 C  
BRANCH  20  21
HETATM   21  C   UNL     1     -11.820  12.651  67.789  1.00  0.00    -0.381 C  
BRANCH  21  22
HETATM   22  C   UNL     1     -11.381  13.151  66.421  1.00  0.00    -0.349 C  
BRANCH  22  23
HETATM   23  C   UNL     1     -12.458  14.025  65.791  1.00  0.00    -0.523 C  
BRANCH  23  24
HETATM   24  C   UNL     1     -12.163  14.258  64.316  1.00  0.00    -0.451 C  
BRANCH  24  25
HETATM   25  C   UNL     1     -11.810  12.956  63.615  1.00  0.00    -0.532 C  
HETATM   26  O   UNL     1     -12.981  12.170  63.450  1.00  0.00    -0.776 OA 
HETATM   27  H   UNL     1     -12.760  11.356  63.011  1.00  0.00     0.000 HD 
ENDBRANCH  24  25
ENDBRANCH  23  24
ENDBRANCH  22  23
ENDBRANCH  21  22
ENDBRANCH  20  21
ENDBRANCH  19  20
ENDBRANCH  18  19
ENDBRANCH  17  18
ENDBRANCH  16  17
ENDBRANCH  15  16
ENDBRANCH  14  15
ENDBRANCH   9  14
ENDBRANCH   2   3
TORSDOF 14
ENDMDL
MODEL      139
REMARK 921   NORMALIZED FREE ENERGY PREDICTED BY IDOCK:   -4.04 KCAL/MOL
REMARK 922        TOTAL FREE ENERGY PREDICTED BY IDOCK:   -9.17 KCAL/MOL
REMARK 923 INTER-LIGAND FREE ENERGY PREDICTED BY IDOCK:   -6.76 KCAL/MOL
REMARK 924 INTRA-LIGAND FREE ENERGY PREDICTED BY IDOCK:   -2.41 KCAL/MOL
REMARK 927      BINDING AFFINITY PREDICTED BY RF-SCORE:    0.00 PKD
ROOT
HETATM    1  C   UNL     1     -12.272  14.790  64.277  1.00  0.00    -0.379 C  
HETATM    2  O   UNL     1     -11.050  14.172  64.657  1.00  0.00    -0.374 OA 
ENDROOT
BRANCH   2   3
HETATM    3  C   UNL     1     -11.059  13.448  65.848  1.00  0.00    -0.280 C  
HETATM    4  C   UNL     1     -11.189  12.111  65.782  1.00  0.00    -0.339 C  
HETATM    5  C   UNL     1     -11.225  11.327  67.053  1.00  0.00    -0.255 C  
HETATM    6  O   UNL     1     -10.561  15.274  67.328  1.00  0.00    -0.278 OA 
HETATM    7  O   UNL     1     -10.965  10.131  67.113  1.00  0.00    -0.235 OA 
HETATM    8  C   UNL     1     -10.977  14.129  67.184  1.00  0.00    -0.299 C  
HETATM    9  C   UNL     1     -11.643  12.055  68.285  1.00  0.00    -0.394 C  
HETATM   10  C   UNL     1     -11.793  14.229  69.568  1.00  0.00    -0.378 C  
HETATM   11  C   UNL     1     -11.493  13.387  68.361  1.00  0.00    -0.351 C  
BRANCH   4  12
HETATM   12  O   UNL     1     -11.276  11.511  64.525  1.00  0.00    -0.305 OA 
HETATM   13  C   UNL     1     -10.112  10.892  63.990  1.00  0.00    -0.358 C  
ENDBRANCH   4  12
BRANCH   9  14
HETATM   14  C   UNL     1     -12.236  11.202  69.363  1.00  0.00    -0.329 C  
BRANCH  14  15
HETATM   15  C   UNL     1     -11.198  10.709  70.374  1.00  0.00    -0.334 C  
BRANCH  15  16
HETATM   16  C   UNL     1     -11.222   9.186  70.511  1.00  0.00    -0.309 C  
BRANCH  16  17
HETATM   17  C   UNL     1      -9.912   8.564  70.043  1.00  0.00    -0.191 C  
BRANCH  17  18
HETATM   18  C   UNL     1      -8.755   8.904  70.964  1.00  0.00    -0.276 C  
BRANCH  18  19
HETATM   19  C   UNL     1      -7.668   9.601  70.156  1.00  0.00    -0.179 C  
BRANCH  19  20
HETATM   20  C   UNL     1      -8.048   9.654  68.688  1.00  0.00    -0.100 C  
BRANCH  20  21
HETATM   21  C   UNL     1      -7.710  11.015  68.098  1.00  0.00    -0.105 C  
BRANCH  21  22
HETATM   22  C   UNL     1      -6.883  11.820  69.089  1.00  0.00    -0.106 C  
BRANCH  22  23
HETATM   23  C   UNL     1      -6.229  13.014  68.406  1.00  0.00    -0.081 C  
BRANCH  23  24
HETATM   24  C   UNL     1      -7.285  13.982  67.891  1.00  0.00    -0.164 C  
BRANCH  24  25
HETATM   25  C   UNL     1      -7.242  15.296  68.653  1.00  0.00    -0.121 C  
HETATM   26  O   UNL     1      -8.434  15.448  69.411  1.00  0.00    -0.244 OA 
HETATM   27  H   UNL     1      -8.408  16.269  69.888  1.00  0.00     0.000 HD 
ENDBRANCH  24  25
ENDBRANCH  23  24
ENDBRANCH  22  23
ENDBRANCH  21  22
ENDBRANCH  20  21
ENDBRANCH  19  20
ENDBRANCH  18  19
ENDBRANCH  17  18
ENDBRANCH  16  17
ENDBRANCH  15  16
ENDBRANCH  14  15
ENDBRANCH   9  14
ENDBRANCH   2   3
TORSDOF 14
ENDMDL
MODEL      140
REMARK 921   NORMALIZED FREE ENERGY PREDICTED BY IDOCK:   -4.04 KCAL/MOL
REMARK 922        TOTAL FREE ENERGY PREDICTED BY IDOCK:   -9.16 KCAL/MOL
REMARK 923 INTER-LIGAND FREE ENERGY PREDICTED BY IDOCK:   -7.28 KCAL/MOL
REMARK 924 INTRA-LIGAND FREE ENERGY PREDICTED BY IDOCK:   -1.88 KCAL/MOL
REMARK 927      BINDING AFFINITY PREDICTED BY RF-SCORE:    0.00 PKD
ROOT
HETATM    1  C   UNL     1     -10.619   4.584  65.495  1.00  0.00    -0.183 C  
HETATM    2  O   UNL     1      -9.810   4.977  66.596  1.00  0.00    -0.156 OA 
ENDROOT
BRANCH   2   3
HETATM    3  C   UNL     1      -9.582   6.344  66.747  1.00  0.00    -0.155 C  
HETATM    4  C   UNL     1     -10.326   7.020  67.641  1.00  0.00    -0.211 C  
HETATM    5  C   UNL     1     -10.107   8.490  67.794  1.00  0.00    -0.211 C  
HETATM    6  O   UNL     1      -7.666   6.504  65.307  1.00  0.00    -0.089 OA 
HETATM    7  O   UNL     1     -10.434   9.118  68.795  1.00  0.00    -0.215 OA 
HETATM    8  C   UNL     1      -8.572   7.072  65.907  1.00  0.00    -0.145 C  
HETATM    9  C   UNL     1      -9.500   9.207  66.637  1.00  0.00    -0.242 C  
HETATM   10  C   UNL     1      -8.003   9.152  64.600  1.00  0.00    -0.125 C  
HETATM   11  C   UNL     1      -8.739   8.538  65.756  1.00  0.00    -0.210 C  
BRANCH   4  12
HETATM   12  O   UNL     1     -11.264   6.316  68.396  1.00  0.00    -0.335 OA 
HETATM   13  C   UNL     1     -10.908   5.913  69.712  1.00  0.00    -0.377 C  
ENDBRANCH   4  12
BRANCH   9  14
HETATM   14  C   UNL     1      -9.823  10.667  66.546  1.00  0.00    -0.250 C  
BRANCH  14  15
HETATM   15  C   UNL     1     -11.116  10.947  65.777  1.00  0.00     0.052 C  
BRANCH  15  16
HETATM   16  C   UNL     1     -10.834  11.499  64.380  1.00  0.00    -0.405 C  
BRANCH  16  17
HETATM   17  C   UNL     1     -12.115  11.957  63.693  1.00  0.00    -0.580 C  
BRANCH  17  18
HETATM   18  C   UNL     1     -12.116  13.449  63.418  1.00  0.00    -0.437 C  
BRANCH  18  19
HETATM   19  C   UNL     1     -12.447  14.190  64.707  1.00  0.00    -0.395 C  
BRANCH  19  20
HETATM   20  C   UNL     1     -11.296  15.091  65.112  1.00  0.00    -0.372 C  
BRANCH  20  21
HETATM   21  C   UNL     1     -10.899  14.833  66.558  1.00  0.00    -0.319 C  
BRANCH  21  22
HETATM   22  C   UNL     1     -12.040  14.150  67.296  1.00  0.00    -0.407 C  
BRANCH  22  23
HETATM   23  C   UNL     1     -11.617  13.757  68.705  1.00  0.00    -0.363 C  
BRANCH  23  24
HETATM   24  C   UNL     1     -12.317  14.629  69.737  1.00  0.00    -0.306 C  
BRANCH  24  25
HETATM   25  C   UNL     1     -11.385  15.705  70.269  1.00  0.00    -0.344 C  
HETATM   26  O   UNL     1     -10.054  15.211  70.300  1.00  0.00    -0.501 OA 
HETATM   27  H   UNL     1      -9.471  15.884  70.632  1.00  0.00     0.000 HD 
ENDBRANCH  24  25
ENDBRANCH  23  24
ENDBRANCH  22  23
ENDBRANCH  21  22
ENDBRANCH  20  21
ENDBRANCH  19  20
ENDBRANCH  18  19
ENDBRANCH  17  18
ENDBRANCH  16  17
ENDBRANCH  15  16
ENDBRANCH  14  15
ENDBRANCH   9  14
ENDBRANCH   2   3
TORSDOF 14
ENDMDL
MODEL      141
REMARK 921   NORMALIZED FREE ENERGY PREDICTED BY IDOCK:   -4.03 KCAL/MOL
REMARK 922        TOTAL FREE ENERGY PREDICTED BY IDOCK:   -9.14 KCAL/MOL
REMARK 923 INTER-LIGAND FREE ENERGY PREDICTED BY IDOCK:   -8.04 KCAL/MOL
REMARK 924 INTRA-LIGAND FREE ENERGY PREDICTED BY IDOCK:   -1.10 KCAL/MOL
REMARK 927      BINDING AFFINITY PREDICTED BY RF-SCORE:    0.00 PKD
ROOT
HETATM    1  C   UNL     1     -10.656   4.451  72.936  1.00  0.00    -0.193 C  
HETATM    2  O   UNL     1     -10.834   5.729  73.531  1.00  0.00    -0.268 OA 
ENDROOT
BRANCH   2   3
HETATM    3  C   UNL     1     -11.076   6.794  72.665  1.00  0.00    -0.265 C  
HETATM    4  C   UNL     1     -10.048   7.596  72.335  1.00  0.00    -0.211 C  
HETATM    5  C   UNL     1     -10.301   8.755  71.427  1.00  0.00    -0.278 C  
HETATM    6  O   UNL     1     -13.360   6.261  72.143  1.00  0.00     0.016 OA 
HETATM    7  O   UNL     1      -9.419   9.304  70.777  1.00  0.00    -0.247 OA 
HETATM    8  C   UNL     1     -12.454   7.087  72.144  1.00  0.00    -0.158 C  
HETATM    9  C   UNL     1     -11.697   9.273  71.366  1.00  0.00    -0.431 C  
HETATM   10  C   UNL     1     -14.179   8.836  71.573  1.00  0.00    -0.364 C  
HETATM   11  C   UNL     1     -12.726   8.468  71.674  1.00  0.00    -0.365 C  
BRANCH   4  12
HETATM   12  O   UNL     1      -8.784   7.303  72.847  1.00  0.00    -0.118 OA 
HETATM   13  C   UNL     1      -8.295   8.084  73.930  1.00  0.00    -0.260 C  
ENDBRANCH   4  12
BRANCH   9  14
HETATM   14  C   UNL     1     -11.830  10.711  70.969  1.00  0.00    -0.396 C  
BRANCH  14  15
HETATM   15  C   UNL     1     -12.398  10.892  69.560  1.00  0.00    -0.241 C  
BRANCH  15  16
HETATM   16  C   UNL     1     -11.293  10.926  68.505  1.00  0.00    -0.367 C  
BRANCH  16  17
HETATM   17  C   UNL     1     -11.080  12.336  67.966  1.00  0.00    -0.285 C  
BRANCH  17  18
HETATM   18  C   UNL     1      -9.890  12.417  67.029  1.00  0.00    -0.214 C  
BRANCH  18  19
HETATM   19  C   UNL     1      -9.084  13.667  67.358  1.00  0.00    -0.222 C  
BRANCH  19  20
HETATM   20  C   UNL     1      -9.778  14.904  66.818  1.00  0.00    -0.263 C  
BRANCH  20  21
HETATM   21  C   UNL     1      -9.971  14.792  65.313  1.00  0.00    -0.331 C  
BRANCH  21  22
HETATM   22  C   UNL     1     -11.177  15.613  64.881  1.00  0.00    -0.376 C  
BRANCH  22  23
HETATM   23  C   UNL     1     -12.268  14.716  64.310  1.00  0.00    -0.432 C  
BRANCH  23  24
HETATM   24  C   UNL     1     -11.673  13.415  63.790  1.00  0.00    -0.426 C  
BRANCH  24  25
HETATM   25  C   UNL     1     -12.655  12.265  63.939  1.00  0.00    -0.440 C  
HETATM   26  O   UNL     1     -12.440  11.316  62.904  1.00  0.00    -0.906 OA 
HETATM   27  H   UNL     1     -13.053  10.597  62.998  1.00  0.00     0.000 HD 
ENDBRANCH  24  25
ENDBRANCH  23  24
ENDBRANCH  22  23
ENDBRANCH  21  22
ENDBRANCH  20  21
ENDBRANCH  19  20
ENDBRANCH  18  19
ENDBRANCH  17  18
ENDBRANCH  16  17
ENDBRANCH  15  16
ENDBRANCH  14  15
ENDBRANCH   9  14
ENDBRANCH   2   3
TORSDOF 14
ENDMDL
MODEL      142
REMARK 921   NORMALIZED FREE ENERGY PREDICTED BY IDOCK:   -4.02 KCAL/MOL
REMARK 922        TOTAL FREE ENERGY PREDICTED BY IDOCK:   -9.14 KCAL/MOL
REMARK 923 INTER-LIGAND FREE ENERGY PREDICTED BY IDOCK:   -7.20 KCAL/MOL
REMARK 924 INTRA-LIGAND FREE ENERGY PREDICTED BY IDOCK:   -1.93 KCAL/MOL
REMARK 927      BINDING AFFINITY PREDICTED BY RF-SCORE:    0.00 PKD
ROOT
HETATM    1  C   UNL     1     -13.060   7.950  71.497  1.00  0.00    -0.311 C  
HETATM    2  O   UNL     1     -11.882   7.160  71.400  1.00  0.00    -0.275 OA 
ENDROOT
BRANCH   2   3
HETATM    3  C   UNL     1     -10.870   7.645  70.573  1.00  0.00    -0.241 C  
HETATM    4  C   UNL     1      -9.984   8.515  71.090  1.00  0.00    -0.207 C  
HETATM    5  C   UNL     1      -8.910   9.059  70.205  1.00  0.00    -0.189 C  
HETATM    6  O   UNL     1     -11.343   6.270  68.660  1.00  0.00    -0.337 OA 
HETATM    7  O   UNL     1      -7.865   9.536  70.633  1.00  0.00    -0.167 OA 
HETATM    8  C   UNL     1     -10.785   7.259  69.123  1.00  0.00    -0.185 C  
HETATM    9  C   UNL     1      -9.173   9.049  68.738  1.00  0.00    -0.133 C  
HETATM   10  C   UNL     1     -10.333   7.994  66.754  1.00  0.00    -0.360 C  
HETATM   11  C   UNL     1     -10.041   8.168  68.218  1.00  0.00    -0.230 C  
BRANCH   4  12
HETATM   12  O   UNL     1     -10.100   8.862  72.436  1.00  0.00    -0.250 OA 
HETATM   13  C   UNL     1      -9.432   8.060  73.401  1.00  0.00    -0.237 C  
ENDBRANCH   4  12
BRANCH   9  14
HETATM   14  C   UNL     1      -8.428  10.080  67.947  1.00  0.00    -0.118 C  
BRANCH  14  15
HETATM   15  C   UNL     1      -9.255  11.340  67.679  1.00  0.00    -0.156 C  
BRANCH  15  16
HETATM   16  C   UNL     1     -10.441  11.453  68.636  1.00  0.00    -0.224 C  
BRANCH  16  17
HETATM   17  C   UNL     1     -11.729  11.781  67.891  1.00  0.00    -0.347 C  
BRANCH  17  18
HETATM   18  C   UNL     1     -11.521  11.848  66.390  1.00  0.00    -0.371 C  
BRANCH  18  19
HETATM   19  C   UNL     1     -11.771  13.274  65.918  1.00  0.00    -0.403 C  
BRANCH  19  20
HETATM   20  C   UNL     1     -10.561  13.806  65.172  1.00  0.00    -0.385 C  
BRANCH  20  21
HETATM   21  C   UNL     1      -9.706  14.669  66.088  1.00  0.00    -0.344 C  
BRANCH  21  22
HETATM   22  C   UNL     1     -10.596  15.465  67.031  1.00  0.00    -0.309 C  
BRANCH  22  23
HETATM   23  C   UNL     1     -10.149  15.288  68.477  1.00  0.00    -0.222 C  
BRANCH  23  24
HETATM   24  C   UNL     1     -11.352  15.263  69.409  1.00  0.00    -0.304 C  
BRANCH  24  25
HETATM   25  C   UNL     1     -10.927  15.447  70.857  1.00  0.00    -0.286 C  
HETATM   26  O   UNL     1     -11.609  16.560  71.417  1.00  0.00    -0.610 OA 
HETATM   27  H   UNL     1     -11.344  16.675  72.322  1.00  0.00     0.000 HD 
ENDBRANCH  24  25
ENDBRANCH  23  24
ENDBRANCH  22  23
ENDBRANCH  21  22
ENDBRANCH  20  21
ENDBRANCH  19  20
ENDBRANCH  18  19
ENDBRANCH  17  18
ENDBRANCH  16  17
ENDBRANCH  15  16
ENDBRANCH  14  15
ENDBRANCH   9  14
ENDBRANCH   2   3
TORSDOF 14
ENDMDL
MODEL      143
REMARK 921   NORMALIZED FREE ENERGY PREDICTED BY IDOCK:   -4.02 KCAL/MOL
REMARK 922        TOTAL FREE ENERGY PREDICTED BY IDOCK:   -9.12 KCAL/MOL
REMARK 923 INTER-LIGAND FREE ENERGY PREDICTED BY IDOCK:   -8.06 KCAL/MOL
REMARK 924 INTRA-LIGAND FREE ENERGY PREDICTED BY IDOCK:   -1.06 KCAL/MOL
REMARK 927      BINDING AFFINITY PREDICTED BY RF-SCORE:    0.00 PKD
ROOT
HETATM    1  C   UNL     1      -7.445  17.479  66.161  1.00  0.00    -0.299 C  
HETATM    2  O   UNL     1      -8.459  17.660  67.141  1.00  0.00    -0.217 OA 
ENDROOT
BRANCH   2   3
HETATM    3  C   UNL     1      -9.519  16.754  67.119  1.00  0.00    -0.232 C  
HETATM    4  C   UNL     1      -9.664  15.916  68.161  1.00  0.00    -0.212 C  
HETATM    5  C   UNL     1     -10.781  14.925  68.137  1.00  0.00    -0.251 C  
HETATM    6  O   UNL     1     -10.583  17.563  65.122  1.00  0.00    -0.657 OA 
HETATM    7  O   UNL     1     -11.230  14.394  69.147  1.00  0.00    -0.249 OA 
HETATM    8  C   UNL     1     -10.455  16.665  65.947  1.00  0.00    -0.313 C  
HETATM    9  C   UNL     1     -11.325  14.551  66.801  1.00  0.00    -0.358 C  
HETATM   10  C   UNL     1     -11.774  15.181  64.393  1.00  0.00    -0.301 C  
HETATM   11  C   UNL     1     -11.200  15.396  65.765  1.00  0.00    -0.196 C  
BRANCH   4  12
HETATM   12  O   UNL     1      -8.769  16.017  69.226  1.00  0.00    -0.248 OA 
HETATM   13  C   UNL     1      -7.709  15.072  69.310  1.00  0.00    -0.194 C  
ENDBRANCH   4  12
BRANCH   9  14
HETATM   14  C   UNL     1     -11.970  13.202  66.726  1.00  0.00    -0.434 C  
BRANCH  14  15
HETATM   15  C   UNL     1     -10.960  12.053  66.761  1.00  0.00    -0.329 C  
BRANCH  15  16
HETATM   16  C   UNL     1     -10.600  11.573  65.355  1.00  0.00    -0.336 C  
BRANCH  16  17
HETATM   17  C   UNL     1      -9.814  10.268  65.395  1.00  0.00    -0.362 C  
BRANCH  17  18
HETATM   18  C   UNL     1      -9.618   9.762  66.812  1.00  0.00    -0.228 C  
BRANCH  18  19
HETATM   19  C   UNL     1     -10.231   8.373  66.931  1.00  0.00    -0.383 C  
BRANCH  19  20
HETATM   20  C   UNL     1      -9.493   7.554  67.975  1.00  0.00    -0.149 C  
BRANCH  20  21
HETATM   21  C   UNL     1     -10.412   6.499  68.572  1.00  0.00    -0.257 C  
BRANCH  21  22
HETATM   22  C   UNL     1     -10.328   6.537  70.091  1.00  0.00    -0.241 C  
BRANCH  22  23
HETATM   23  C   UNL     1     -11.718   6.617  70.708  1.00  0.00    -0.445 C  
BRANCH  23  24
HETATM   24  C   UNL     1     -11.810   7.797  71.666  1.00  0.00    -0.321 C  
BRANCH  24  25
HETATM   25  C   UNL     1     -10.627   7.822  72.620  1.00  0.00    -0.317 C  
HETATM   26  O   UNL     1     -11.021   7.307  73.884  1.00  0.00    -0.533 OA 
HETATM   27  H   UNL     1     -10.282   7.322  74.480  1.00  0.00     0.000 HD 
ENDBRANCH  24  25
ENDBRANCH  23  24
ENDBRANCH  22  23
ENDBRANCH  21  22
ENDBRANCH  20  21
ENDBRANCH  19  20
ENDBRANCH  18  19
ENDBRANCH  17  18
ENDBRANCH  16  17
ENDBRANCH  15  16
ENDBRANCH  14  15
ENDBRANCH   9  14
ENDBRANCH   2   3
TORSDOF 14
ENDMDL
MODEL      144
REMARK 921   NORMALIZED FREE ENERGY PREDICTED BY IDOCK:   -4.02 KCAL/MOL
REMARK 922        TOTAL FREE ENERGY PREDICTED BY IDOCK:   -9.12 KCAL/MOL
REMARK 923 INTER-LIGAND FREE ENERGY PREDICTED BY IDOCK:   -8.04 KCAL/MOL
REMARK 924 INTRA-LIGAND FREE ENERGY PREDICTED BY IDOCK:   -1.08 KCAL/MOL
REMARK 927      BINDING AFFINITY PREDICTED BY RF-SCORE:    0.00 PKD
ROOT
HETATM    1  C   UNL     1      -8.495   8.237  67.285  1.00  0.00    -0.124 C  
HETATM    2  O   UNL     1      -9.844   8.419  66.876  1.00  0.00    -0.198 OA 
ENDROOT
BRANCH   2   3
HETATM    3  C   UNL     1     -10.244   9.726  66.601  1.00  0.00    -0.226 C  
HETATM    4  C   UNL     1     -10.939  10.392  67.540  1.00  0.00    -0.295 C  
HETATM    5  C   UNL     1     -11.394  11.784  67.245  1.00  0.00    -0.315 C  
HETATM    6  O   UNL     1      -9.097   9.969  64.503  1.00  0.00    -0.203 OA 
HETATM    7  O   UNL     1     -11.685  12.594  68.119  1.00  0.00    -0.315 OA 
HETATM    8  C   UNL     1      -9.960  10.373  65.275  1.00  0.00    -0.309 C  
HETATM    9  C   UNL     1     -11.532  12.162  65.810  1.00  0.00    -0.414 C  
HETATM   10  C   UNL     1     -10.803  11.846  63.410  1.00  0.00    -0.469 C  
HETATM   11  C   UNL     1     -10.822  11.513  64.874  1.00  0.00    -0.345 C  
BRANCH   4  12
HETATM   12  O   UNL     1     -11.197   9.756  68.754  1.00  0.00    -0.144 OA 
HETATM   13  C   UNL     1     -10.356  10.051  69.863  1.00  0.00    -0.272 C  
ENDBRANCH   4  12
BRANCH   9  14
HETATM   14  C   UNL     1     -12.505  13.265  65.528  1.00  0.00    -0.531 C  
BRANCH  14  15
HETATM   15  C   UNL     1     -11.825  14.572  65.117  1.00  0.00    -0.374 C  
BRANCH  15  16
HETATM   16  C   UNL     1     -11.210  15.292  66.317  1.00  0.00    -0.223 C  
BRANCH  16  17
HETATM   17  C   UNL     1     -10.092  16.235  65.889  1.00  0.00    -0.381 C  
BRANCH  17  18
HETATM   18  C   UNL     1      -8.801  15.971  66.640  1.00  0.00    -0.307 C  
BRANCH  18  19
HETATM   19  C   UNL     1      -8.262  17.290  67.178  1.00  0.00    -0.225 C  
BRANCH  19  20
HETATM   20  C   UNL     1      -9.366  18.074  67.865  1.00  0.00    -0.264 C  
BRANCH  20  21
HETATM   21  C   UNL     1      -9.242  19.557  67.550  1.00  0.00    -0.391 C  
BRANCH  21  22
HETATM   22  C   UNL     1      -8.084  19.790  66.592  1.00  0.00    -0.341 C  
BRANCH  22  23
HETATM   23  C   UNL     1      -7.139  20.855  67.132  1.00  0.00    -0.413 C  
BRANCH  23  24
HETATM   24  C   UNL     1      -5.917  20.211  67.772  1.00  0.00    -0.240 C  
BRANCH  24  25
HETATM   25  C   UNL     1      -5.743  20.673  69.210  1.00  0.00    -0.373 C  
HETATM   26  O   UNL     1      -6.632  19.955  70.053  1.00  0.00    -0.351 OA 
HETATM   27  H   UNL     1      -6.523  20.243  70.951  1.00  0.00     0.000 HD 
ENDBRANCH  24  25
ENDBRANCH  23  24
ENDBRANCH  22  23
ENDBRANCH  21  22
ENDBRANCH  20  21
ENDBRANCH  19  20
ENDBRANCH  18  19
ENDBRANCH  17  18
ENDBRANCH  16  17
ENDBRANCH  15  16
ENDBRANCH  14  15
ENDBRANCH   9  14
ENDBRANCH   2   3
TORSDOF 14
ENDMDL
MODEL      145
REMARK 921   NORMALIZED FREE ENERGY PREDICTED BY IDOCK:   -3.98 KCAL/MOL
REMARK 922        TOTAL FREE ENERGY PREDICTED BY IDOCK:   -9.07 KCAL/MOL
REMARK 923 INTER-LIGAND FREE ENERGY PREDICTED BY IDOCK:   -7.53 KCAL/MOL
REMARK 924 INTRA-LIGAND FREE ENERGY PREDICTED BY IDOCK:   -1.54 KCAL/MOL
REMARK 927      BINDING AFFINITY PREDICTED BY RF-SCORE:    0.00 PKD
ROOT
HETATM    1  C   UNL     1     -11.472   9.154  71.721  1.00  0.00    -0.381 C  
HETATM    2  O   UNL     1     -10.358   8.273  71.662  1.00  0.00    -0.197 OA 
ENDROOT
BRANCH   2   3
HETATM    3  C   UNL     1      -9.842   8.003  70.396  1.00  0.00    -0.183 C  
HETATM    4  C   UNL     1      -8.749   8.677  69.995  1.00  0.00    -0.141 C  
HETATM    5  C   UNL     1      -8.201   8.413  68.630  1.00  0.00    -0.123 C  
HETATM    6  O   UNL     1     -11.294   6.169  69.848  1.00  0.00    -0.405 OA 
HETATM    7  O   UNL     1      -7.045   8.666  68.309  1.00  0.00    -0.075 OA 
HETATM    8  C   UNL     1     -10.504   7.025  69.467  1.00  0.00    -0.220 C  
HETATM    9  C   UNL     1      -9.144   7.856  67.619  1.00  0.00    -0.139 C  
HETATM   10  C   UNL     1     -11.203   6.481  67.106  1.00  0.00    -0.313 C  
HETATM   11  C   UNL     1     -10.223   7.164  68.017  1.00  0.00    -0.223 C  
BRANCH   4  12
HETATM   12  O   UNL     1      -8.167   9.587  70.877  1.00  0.00    -0.291 OA 
HETATM   13  C   UNL     1      -7.034   9.171  71.628  1.00  0.00     0.077 C  
ENDBRANCH   4  12
BRANCH   9  14
HETATM   14  C   UNL     1      -8.798   8.148  66.191  1.00  0.00    -0.194 C  
BRANCH  14  15
HETATM   15  C   UNL     1      -9.638   9.278  65.591  1.00  0.00    -0.324 C  
BRANCH  15  16
HETATM   16  C   UNL     1      -8.991  10.644  65.816  1.00  0.00    -0.200 C  
BRANCH  16  17
HETATM   17  C   UNL     1      -9.949  11.608  66.505  1.00  0.00    -0.230 C  
BRANCH  17  18
HETATM   18  C   UNL     1     -11.023  10.882  67.293  1.00  0.00    -0.355 C  
BRANCH  18  19
HETATM   19  C   UNL     1     -11.732  11.879  68.201  1.00  0.00    -0.388 C  
BRANCH  19  20
HETATM   20  C   UNL     1     -11.375  13.301  67.808  1.00  0.00    -0.327 C  
BRANCH  20  21
HETATM   21  C   UNL     1     -11.955  14.291  68.808  1.00  0.00    -0.346 C  
BRANCH  21  22
HETATM   22  C   UNL     1     -12.228  13.593  70.132  1.00  0.00    -0.413 C  
BRANCH  22  23
HETATM   23  C   UNL     1     -13.183  14.413  70.990  1.00  0.00    -0.395 C  
BRANCH  23  24
HETATM   24  C   UNL     1     -12.977  14.102  72.466  1.00  0.00    -0.498 C  
BRANCH  24  25
HETATM   25  C   UNL     1     -12.846  15.378  73.282  1.00  0.00    -0.518 C  
HETATM   26  O   UNL     1     -12.276  15.078  74.548  1.00  0.00    -0.727 OA 
HETATM   27  H   UNL     1     -12.193  15.875  75.058  1.00  0.00     0.000 HD 
ENDBRANCH  24  25
ENDBRANCH  23  24
ENDBRANCH  22  23
ENDBRANCH  21  22
ENDBRANCH  20  21
ENDBRANCH  19  20
ENDBRANCH  18  19
ENDBRANCH  17  18
ENDBRANCH  16  17
ENDBRANCH  15  16
ENDBRANCH  14  15
ENDBRANCH   9  14
ENDBRANCH   2   3
TORSDOF 14
ENDMDL
MODEL      146
REMARK 921   NORMALIZED FREE ENERGY PREDICTED BY IDOCK:   -3.98 KCAL/MOL
REMARK 922        TOTAL FREE ENERGY PREDICTED BY IDOCK:   -9.06 KCAL/MOL
REMARK 923 INTER-LIGAND FREE ENERGY PREDICTED BY IDOCK:   -7.05 KCAL/MOL
REMARK 924 INTRA-LIGAND FREE ENERGY PREDICTED BY IDOCK:   -2.00 KCAL/MOL
REMARK 927      BINDING AFFINITY PREDICTED BY RF-SCORE:    0.00 PKD
ROOT
HETATM    1  C   UNL     1      -9.676   4.616  65.532  1.00  0.00    -0.181 C  
HETATM    2  O   UNL     1      -8.536   5.210  66.139  1.00  0.00    -0.113 OA 
ENDROOT
BRANCH   2   3
HETATM    3  C   UNL     1      -8.410   6.592  66.014  1.00  0.00    -0.134 C  
HETATM    4  C   UNL     1      -8.814   7.365  67.038  1.00  0.00    -0.128 C  
HETATM    5  C   UNL     1      -8.706   8.849  66.906  1.00  0.00    -0.119 C  
HETATM    6  O   UNL     1      -7.231   6.613  63.921  1.00  0.00    -0.054 OA 
HETATM    7  O   UNL     1      -8.682   9.610  67.868  1.00  0.00    -0.119 OA 
HETATM    8  C   UNL     1      -7.887   7.226  64.756  1.00  0.00    -0.126 C  
HETATM    9  C   UNL     1      -8.674   9.405  65.523  1.00  0.00    -0.190 C  
HETATM   10  C   UNL     1      -8.089   9.101  63.082  1.00  0.00    -0.164 C  
HETATM   11  C   UNL     1      -8.250   8.642  64.504  1.00  0.00    -0.166 C  
BRANCH   4  12
HETATM   12  O   UNL     1      -9.307   6.745  68.186  1.00  0.00    -0.125 OA 
HETATM   13  C   UNL     1     -10.716   6.690  68.373  1.00  0.00    -0.258 C  
ENDBRANCH   4  12
BRANCH   9  14
HETATM   14  C   UNL     1      -9.156  10.816  65.388  1.00  0.00    -0.216 C  
BRANCH  14  15
HETATM   15  C   UNL     1     -10.624  10.909  64.965  1.00  0.00    -0.287 C  
BRANCH  15  16
HETATM   16  C   UNL     1     -10.801  11.784  63.725  1.00  0.00    -0.490 C  
BRANCH  16  17
HETATM   17  C   UNL     1     -12.211  12.358  63.645  1.00  0.00    -0.653 C  
BRANCH  17  18
HETATM   18  C   UNL     1     -12.248  13.833  63.999  1.00  0.00    -0.429 C  
BRANCH  18  19
HETATM   19  C   UNL     1     -12.498  13.978  65.494  1.00  0.00    -0.533 C  
BRANCH  19  20
HETATM   20  C   UNL     1     -11.295  14.605  66.175  1.00  0.00    -0.350 C  
BRANCH  20  21
HETATM   21  C   UNL     1     -10.905  13.808  67.411  1.00  0.00    -0.285 C  
BRANCH  21  22
HETATM   22  C   UNL     1     -11.974  12.769  67.717  1.00  0.00    -0.316 C  
BRANCH  22  23
HETATM   23  C   UNL     1     -11.456  11.735  68.708  1.00  0.00    -0.350 C  
BRANCH  23  24
HETATM   24  C   UNL     1     -11.967  12.035  70.110  1.00  0.00    -0.401 C  
BRANCH  24  25
HETATM   25  C   UNL     1     -12.164  10.756  70.908  1.00  0.00    -0.384 C  
HETATM   26  O   UNL     1     -13.152  10.964  71.907  1.00  0.00    -0.482 OA 
HETATM   27  H   UNL     1     -13.275  10.165  72.405  1.00  0.00     0.000 HD 
ENDBRANCH  24  25
ENDBRANCH  23  24
ENDBRANCH  22  23
ENDBRANCH  21  22
ENDBRANCH  20  21
ENDBRANCH  19  20
ENDBRANCH  18  19
ENDBRANCH  17  18
ENDBRANCH  16  17
ENDBRANCH  15  16
ENDBRANCH  14  15
ENDBRANCH   9  14
ENDBRANCH   2   3
TORSDOF 14
ENDMDL
MODEL      147
REMARK 921   NORMALIZED FREE ENERGY PREDICTED BY IDOCK:   -3.98 KCAL/MOL
REMARK 922        TOTAL FREE ENERGY PREDICTED BY IDOCK:   -9.05 KCAL/MOL
REMARK 923 INTER-LIGAND FREE ENERGY PREDICTED BY IDOCK:   -7.56 KCAL/MOL
REMARK 924 INTRA-LIGAND FREE ENERGY PREDICTED BY IDOCK:   -1.50 KCAL/MOL
REMARK 927      BINDING AFFINITY PREDICTED BY RF-SCORE:    0.00 PKD
ROOT
HETATM    1  C   UNL     1      -8.550   8.118  73.685  1.00  0.00    -0.245 C  
HETATM    2  O   UNL     1      -9.387   7.195  73.001  1.00  0.00    -0.141 OA 
ENDROOT
BRANCH   2   3
HETATM    3  C   UNL     1      -9.899   7.608  71.772  1.00  0.00    -0.165 C  
HETATM    4  C   UNL     1      -9.370   7.084  70.652  1.00  0.00    -0.162 C  
HETATM    5  C   UNL     1      -9.894   7.537  69.328  1.00  0.00    -0.170 C  
HETATM    6  O   UNL     1     -11.708   8.944  72.618  1.00  0.00    -0.189 OA 
HETATM    7  O   UNL     1      -9.770   6.886  68.297  1.00  0.00    -0.132 OA 
HETATM    8  C   UNL     1     -10.978   8.648  71.678  1.00  0.00    -0.308 C  
HETATM    9  C   UNL     1     -10.556   8.872  69.284  1.00  0.00    -0.219 C  
HETATM   10  C   UNL     1     -11.872  10.675  70.472  1.00  0.00    -0.453 C  
HETATM   11  C   UNL     1     -11.104   9.386  70.397  1.00  0.00    -0.311 C  
BRANCH   4  12
HETATM   12  O   UNL     1      -8.360   6.130  70.775  1.00  0.00    -0.123 OA 
HETATM   13  C   UNL     1      -8.723   4.755  70.758  1.00  0.00    -0.109 C  
ENDBRANCH   4  12
BRANCH   9  14
HETATM   14  C   UNL     1     -10.533   9.555  67.952  1.00  0.00    -0.293 C  
BRANCH  14  15
HETATM   15  C   UNL     1      -9.260  10.374  67.722  1.00  0.00    -0.148 C  
BRANCH  15  16
HETATM   16  C   UNL     1      -9.524  11.595  66.842  1.00  0.00    -0.195 C  
BRANCH  16  17
HETATM   17  C   UNL     1     -10.555  12.524  67.472  1.00  0.00    -0.238 C  
BRANCH  17  18
HETATM   18  C   UNL     1     -11.586  13.002  66.467  1.00  0.00    -0.407 C  
BRANCH  18  19
HETATM   19  C   UNL     1     -12.184  14.315  66.956  1.00  0.00    -0.338 C  
BRANCH  19  20
HETATM   20  C   UNL     1     -12.263  14.330  68.472  1.00  0.00    -0.194 C  
BRANCH  20  21
HETATM   21  C   UNL     1     -11.687  15.626  69.023  1.00  0.00    -0.408 C  
BRANCH  21  22
HETATM   22  C   UNL     1     -12.264  15.906  70.403  1.00  0.00    -0.292 C  
BRANCH  22  23
HETATM   23  C   UNL     1     -12.393  14.619  71.207  1.00  0.00    -0.407 C  
BRANCH  23  24
HETATM   24  C   UNL     1     -13.067  14.890  72.545  1.00  0.00    -0.480 C  
BRANCH  24  25
HETATM   25  C   UNL     1     -12.239  15.841  73.394  1.00  0.00    -0.517 C  
HETATM   26  O   UNL     1     -13.047  16.387  74.426  1.00  0.00    -0.915 OA 
HETATM   27  H   UNL     1     -12.529  16.981  74.957  1.00  0.00     0.000 HD 
ENDBRANCH  24  25
ENDBRANCH  23  24
ENDBRANCH  22  23
ENDBRANCH  21  22
ENDBRANCH  20  21
ENDBRANCH  19  20
ENDBRANCH  18  19
ENDBRANCH  17  18
ENDBRANCH  16  17
ENDBRANCH  15  16
ENDBRANCH  14  15
ENDBRANCH   9  14
ENDBRANCH   2   3
TORSDOF 14
ENDMDL
MODEL      148
REMARK 921   NORMALIZED FREE ENERGY PREDICTED BY IDOCK:   -3.97 KCAL/MOL
REMARK 922        TOTAL FREE ENERGY PREDICTED BY IDOCK:   -9.03 KCAL/MOL
REMARK 923 INTER-LIGAND FREE ENERGY PREDICTED BY IDOCK:   -7.73 KCAL/MOL
REMARK 924 INTRA-LIGAND FREE ENERGY PREDICTED BY IDOCK:   -1.30 KCAL/MOL
REMARK 927      BINDING AFFINITY PREDICTED BY RF-SCORE:    0.00 PKD
ROOT
HETATM    1  C   UNL     1     -12.934  12.899  71.849  1.00  0.00    -0.301 C  
HETATM    2  O   UNL     1     -13.110  12.267  70.588  1.00  0.00     0.109 OA 
ENDROOT
BRANCH   2   3
HETATM    3  C   UNL     1     -11.952  11.868  69.922  1.00  0.00    -0.325 C  
HETATM    4  C   UNL     1     -11.480  12.654  68.938  1.00  0.00    -0.306 C  
HETATM    5  C   UNL     1     -10.254  12.223  68.200  1.00  0.00    -0.212 C  
HETATM    6  O   UNL     1     -11.440   9.964  71.294  1.00  0.00    -0.365 OA 
HETATM    7  O   UNL     1      -9.538  12.999  67.575  1.00  0.00    -0.194 OA 
HETATM    8  C   UNL     1     -11.265  10.572  70.244  1.00  0.00    -0.313 C  
HETATM    9  C   UNL     1      -9.936  10.767  68.206  1.00  0.00    -0.182 C  
HETATM   10  C   UNL     1     -10.074   8.527  69.372  1.00  0.00    -0.205 C  
HETATM   11  C   UNL     1     -10.389   9.986  69.199  1.00  0.00    -0.233 C  
BRANCH   4  12
HETATM   12  O   UNL     1     -12.150  13.843  68.655  1.00  0.00    -0.358 OA 
HETATM   13  C   UNL     1     -11.624  15.057  69.179  1.00  0.00    -0.310 C  
ENDBRANCH   4  12
BRANCH   9  14
HETATM   14  C   UNL     1      -9.124  10.283  67.045  1.00  0.00    -0.154 C  
BRANCH  14  15
HETATM   15  C   UNL     1      -9.982   9.793  65.877  1.00  0.00    -0.345 C  
BRANCH  15  16
HETATM   16  C   UNL     1     -10.033  10.817  64.744  1.00  0.00    -0.382 C  
BRANCH  16  17
HETATM   17  C   UNL     1     -11.396  11.495  64.666  1.00  0.00    -0.226 C  
BRANCH  17  18
HETATM   18  C   UNL     1     -11.509  12.419  63.469  1.00  0.00    -0.561 C  
BRANCH  18  19
HETATM   19  C   UNL     1     -11.935  13.801  63.947  1.00  0.00    -0.414 C  
BRANCH  19  20
HETATM   20  C   UNL     1     -10.811  14.467  64.719  1.00  0.00    -0.415 C  
BRANCH  20  21
HETATM   21  C   UNL     1     -11.180  15.900  65.069  1.00  0.00    -0.296 C  
BRANCH  21  22
HETATM   22  C   UNL     1     -10.084  16.527  65.917  1.00  0.00    -0.359 C  
BRANCH  22  23
HETATM   23  C   UNL     1     -10.333  18.018  66.109  1.00  0.00    -0.368 C  
BRANCH  23  24
HETATM   24  C   UNL     1      -9.177  18.660  66.863  1.00  0.00    -0.305 C  
BRANCH  24  25
HETATM   25  C   UNL     1      -9.258  18.360  68.351  1.00  0.00    -0.322 C  
HETATM   26  O   UNL     1      -9.523  19.559  69.066  1.00  0.00    -0.393 OA 
HETATM   27  H   UNL     1      -9.575  19.372  69.996  1.00  0.00     0.000 HD 
ENDBRANCH  24  25
ENDBRANCH  23  24
ENDBRANCH  22  23
ENDBRANCH  21  22
ENDBRANCH  20  21
ENDBRANCH  19  20
ENDBRANCH  18  19
ENDBRANCH  17  18
ENDBRANCH  16  17
ENDBRANCH  15  16
ENDBRANCH  14  15
ENDBRANCH   9  14
ENDBRANCH   2   3
TORSDOF 14
ENDMDL
MODEL      149
REMARK 921   NORMALIZED FREE ENERGY PREDICTED BY IDOCK:   -3.97 KCAL/MOL
REMARK 922        TOTAL FREE ENERGY PREDICTED BY IDOCK:   -9.03 KCAL/MOL
REMARK 923 INTER-LIGAND FREE ENERGY PREDICTED BY IDOCK:   -7.47 KCAL/MOL
REMARK 924 INTRA-LIGAND FREE ENERGY PREDICTED BY IDOCK:   -1.56 KCAL/MOL
REMARK 927      BINDING AFFINITY PREDICTED BY RF-SCORE:    0.00 PKD
ROOT
HETATM    1  C   UNL     1      -6.786  12.908  67.561  1.00  0.00    -0.154 C  
HETATM    2  O   UNL     1      -7.844  13.215  68.460  1.00  0.00    -0.134 OA 
ENDROOT
BRANCH   2   3
HETATM    3  C   UNL     1      -9.121  13.317  67.911  1.00  0.00    -0.203 C  
HETATM    4  C   UNL     1      -9.946  12.260  68.012  1.00  0.00    -0.202 C  
HETATM    5  C   UNL     1     -11.309  12.350  67.406  1.00  0.00    -0.321 C  
HETATM    6  O   UNL     1      -9.012  15.637  67.295  1.00  0.00    -0.188 OA 
HETATM    7  O   UNL     1     -12.245  11.637  67.748  1.00  0.00    -0.560 OA 
HETATM    8  C   UNL     1      -9.565  14.549  67.175  1.00  0.00    -0.231 C  
HETATM    9  C   UNL     1     -11.494  13.335  66.303  1.00  0.00    -0.358 C  
HETATM   10  C   UNL     1     -10.814  15.510  65.206  1.00  0.00    -0.425 C  
HETATM   11  C   UNL     1     -10.685  14.402  66.213  1.00  0.00    -0.307 C  
BRANCH   4  12
HETATM   12  O   UNL     1      -9.498  11.127  68.691  1.00  0.00    -0.190 OA 
HETATM   13  C   UNL     1      -9.158   9.974  67.931  1.00  0.00    -0.131 C  
ENDBRANCH   4  12
BRANCH   9  14
HETATM   14  C   UNL     1     -12.600  13.022  65.343  1.00  0.00    -0.481 C  
BRANCH  14  15
HETATM   15  C   UNL     1     -12.264  11.865  64.399  1.00  0.00    -0.277 C  
BRANCH  15  16
HETATM   16  C   UNL     1     -11.381  12.321  63.238  1.00  0.00    -0.414 C  
BRANCH  16  17
HETATM   17  C   UNL     1      -9.945  11.838  63.406  1.00  0.00    -0.446 C  
BRANCH  17  18
HETATM   18  C   UNL     1      -9.865  10.547  64.198  1.00  0.00    -0.401 C  
BRANCH  18  19
HETATM   19  C   UNL     1      -8.589   9.809  63.814  1.00  0.00    -0.208 C  
BRANCH  19  20
HETATM   20  C   UNL     1      -8.458   8.525  64.613  1.00  0.00    -0.127 C  
BRANCH  20  21
HETATM   21  C   UNL     1      -8.067   7.369  63.704  1.00  0.00    -0.012 C  
BRANCH  21  22
HETATM   22  C   UNL     1      -7.726   6.144  64.538  1.00  0.00    -0.105 C  
BRANCH  22  23
HETATM   23  C   UNL     1      -8.794   5.068  64.385  1.00  0.00    -0.084 C  
BRANCH  23  24
HETATM   24  C   UNL     1      -9.161   4.482  65.741  1.00  0.00    -0.146 C  
BRANCH  24  25
HETATM   25  C   UNL     1     -10.586   4.844  66.128  1.00  0.00    -0.271 C  
HETATM   26  O   UNL     1     -11.469   4.505  65.069  1.00  0.00    -1.101 OA 
HETATM   27  H   UNL     1     -12.360   4.731  65.310  1.00  0.00     0.000 HD 
ENDBRANCH  24  25
ENDBRANCH  23  24
ENDBRANCH  22  23
ENDBRANCH  21  22
ENDBRANCH  20  21
ENDBRANCH  19  20
ENDBRANCH  18  19
ENDBRANCH  17  18
ENDBRANCH  16  17
ENDBRANCH  15  16
ENDBRANCH  14  15
ENDBRANCH   9  14
ENDBRANCH   2   3
TORSDOF 14
ENDMDL
MODEL      150
REMARK 921   NORMALIZED FREE ENERGY PREDICTED BY IDOCK:   -3.96 KCAL/MOL
REMARK 922        TOTAL FREE ENERGY PREDICTED BY IDOCK:   -9.03 KCAL/MOL
REMARK 923 INTER-LIGAND FREE ENERGY PREDICTED BY IDOCK:   -7.81 KCAL/MOL
REMARK 924 INTRA-LIGAND FREE ENERGY PREDICTED BY IDOCK:   -1.22 KCAL/MOL
REMARK 927      BINDING AFFINITY PREDICTED BY RF-SCORE:    0.00 PKD
ROOT
HETATM    1  C   UNL     1      -5.785  10.295  71.129  1.00  0.00    -0.035 C  
HETATM    2  O   UNL     1      -6.218   8.961  70.902  1.00  0.00    -0.037 OA 
ENDROOT
BRANCH   2   3
HETATM    3  C   UNL     1      -7.564   8.690  71.145  1.00  0.00    -0.106 C  
HETATM    4  C   UNL     1      -7.918   8.265  72.371  1.00  0.00    -0.140 C  
HETATM    5  C   UNL     1      -9.354   7.948  72.635  1.00  0.00    -0.213 C  
HETATM    6  O   UNL     1      -8.425   9.464  69.040  1.00  0.00    -0.122 OA 
HETATM    7  O   UNL     1      -9.841   7.924  73.760  1.00  0.00    -0.189 OA 
HETATM    8  C   UNL     1      -8.599   8.813  70.064  1.00  0.00    -0.136 C  
HETATM    9  C   UNL     1     -10.199   7.606  71.456  1.00  0.00    -0.212 C  
HETATM   10  C   UNL     1     -10.662   7.847  68.982  1.00  0.00    -0.113 C  
HETATM   11  C   UNL     1      -9.859   8.047  70.236  1.00  0.00    -0.184 C  
BRANCH   4  12
HETATM   12  O   UNL     1      -6.930   8.149  73.348  1.00  0.00    -0.115 OA 
HETATM   13  C   UNL     1      -6.478   6.848  73.702  1.00  0.00    -0.067 C  
ENDBRANCH   4  12
BRANCH   9  14
HETATM   14  C   UNL     1     -11.391   6.748  71.750  1.00  0.00    -0.307 C  
BRANCH  14  15
HETATM   15  C   UNL     1     -12.720   7.455  71.471  1.00  0.00    -0.409 C  
BRANCH  15  16
HETATM   16  C   UNL     1     -12.864   8.733  72.297  1.00  0.00    -0.465 C  
BRANCH  16  17
HETATM   17  C   UNL     1     -13.628   9.807  71.531  1.00  0.00    -0.351 C  
BRANCH  17  18
HETATM   18  C   UNL     1     -12.822  11.084  71.380  1.00  0.00    -0.548 C  
BRANCH  18  19
HETATM   19  C   UNL     1     -12.016  11.011  70.089  1.00  0.00    -0.443 C  
BRANCH  19  20
HETATM   20  C   UNL     1     -11.907  12.385  69.453  1.00  0.00    -0.365 C  
BRANCH  20  21
HETATM   21  C   UNL     1     -11.350  12.276  68.042  1.00  0.00    -0.348 C  
BRANCH  21  22
HETATM   22  C   UNL     1     -11.788  13.477  67.216  1.00  0.00    -0.427 C  
BRANCH  22  23
HETATM   23  C   UNL     1     -10.888  13.657  66.001  1.00  0.00    -0.275 C  
BRANCH  23  24
HETATM   24  C   UNL     1     -10.919  15.101  65.521  1.00  0.00    -0.370 C  
BRANCH  24  25
HETATM   25  C   UNL     1     -11.781  15.247  64.277  1.00  0.00    -0.215 C  
HETATM   26  O   UNL     1     -11.653  16.563  63.759  1.00  0.00    -1.617 OA 
HETATM   27  H   UNL     1     -12.191  16.655  62.982  1.00  0.00     0.000 HD 
ENDBRANCH  24  25
ENDBRANCH  23  24
ENDBRANCH  22  23
ENDBRANCH  21  22
ENDBRANCH  20  21
ENDBRANCH  19  20
ENDBRANCH  18  19
ENDBRANCH  17  18
ENDBRANCH  16  17
ENDBRANCH  15  16
ENDBRANCH  14  15
ENDBRANCH   9  14
ENDBRANCH   2   3
TORSDOF 14
ENDMDL
MODEL      151
REMARK 921   NORMALIZED FREE ENERGY PREDICTED BY IDOCK:   -3.96 KCAL/MOL
REMARK 922        TOTAL FREE ENERGY PREDICTED BY IDOCK:   -9.02 KCAL/MOL
REMARK 923 INTER-LIGAND FREE ENERGY PREDICTED BY IDOCK:   -7.26 KCAL/MOL
REMARK 924 INTRA-LIGAND FREE ENERGY PREDICTED BY IDOCK:   -1.76 KCAL/MOL
REMARK 927      BINDING AFFINITY PREDICTED BY RF-SCORE:    0.00 PKD
ROOT
HETATM    1  C   UNL     1      -9.131   5.442  65.514  1.00  0.00    -0.118 C  
HETATM    2  O   UNL     1      -8.469   6.233  66.492  1.00  0.00    -0.114 OA 
ENDROOT
BRANCH   2   3
HETATM    3  C   UNL     1      -8.881   7.560  66.606  1.00  0.00    -0.146 C  
HETATM    4  C   UNL     1      -9.465   7.951  67.753  1.00  0.00    -0.144 C  
HETATM    5  C   UNL     1      -9.933   9.364  67.877  1.00  0.00    -0.182 C  
HETATM    6  O   UNL     1      -7.962   8.354  64.534  1.00  0.00    -0.131 OA 
HETATM    7  O   UNL     1     -10.121   9.918  68.955  1.00  0.00    -0.169 OA 
HETATM    8  C   UNL     1      -8.733   8.531  65.470  1.00  0.00    -0.174 C  
HETATM    9  C   UNL     1     -10.219  10.096  66.610  1.00  0.00    -0.287 C  
HETATM   10  C   UNL     1      -9.752  10.420  64.146  1.00  0.00    -0.387 C  
HETATM   11  C   UNL     1      -9.619   9.721  65.469  1.00  0.00    -0.348 C  
BRANCH   4  12
HETATM   12  O   UNL     1      -9.600   7.020  68.783  1.00  0.00    -0.140 OA 
HETATM   13  C   UNL     1     -10.866   6.402  68.976  1.00  0.00    -0.327 C  
ENDBRANCH   4  12
BRANCH   9  14
HETATM   14  C   UNL     1     -11.204  11.218  66.726  1.00  0.00    -0.265 C  
BRANCH  14  15
HETATM   15  C   UNL     1     -10.624  12.454  67.415  1.00  0.00    -0.237 C  
BRANCH  15  16
HETATM   16  C   UNL     1      -9.574  13.147  66.546  1.00  0.00    -0.268 C  
BRANCH  16  17
HETATM   17  C   UNL     1     -10.216  13.872  65.369  1.00  0.00    -0.356 C  
BRANCH  17  18
HETATM   18  C   UNL     1     -11.114  15.009  65.818  1.00  0.00    -0.346 C  
BRANCH  18  19
HETATM   19  C   UNL     1     -10.321  16.309  65.790  1.00  0.00    -0.393 C  
BRANCH  19  20
HETATM   20  C   UNL     1     -10.343  16.975  67.153  1.00  0.00    -0.305 C  
BRANCH  20  21
HETATM   21  C   UNL     1      -9.168  16.501  67.996  1.00  0.00    -0.214 C  
BRANCH  21  22
HETATM   22  C   UNL     1      -9.673  15.899  69.299  1.00  0.00    -0.263 C  
BRANCH  22  23
HETATM   23  C   UNL     1     -11.134  16.260  69.533  1.00  0.00    -0.330 C  
BRANCH  23  24
HETATM   24  C   UNL     1     -11.929  15.029  69.948  1.00  0.00    -0.374 C  
BRANCH  24  25
HETATM   25  C   UNL     1     -12.863  15.344  71.105  1.00  0.00    -0.455 C  
HETATM   26  O   UNL     1     -14.206  15.363  70.643  1.00  0.00    -0.781 OA 
HETATM   27  H   UNL     1     -14.790  15.560  71.367  1.00  0.00     0.000 HD 
ENDBRANCH  24  25
ENDBRANCH  23  24
ENDBRANCH  22  23
ENDBRANCH  21  22
ENDBRANCH  20  21
ENDBRANCH  19  20
ENDBRANCH  18  19
ENDBRANCH  17  18
ENDBRANCH  16  17
ENDBRANCH  15  16
ENDBRANCH  14  15
ENDBRANCH   9  14
ENDBRANCH   2   3
TORSDOF 14
ENDMDL
MODEL      152
REMARK 921   NORMALIZED FREE ENERGY PREDICTED BY IDOCK:   -3.96 KCAL/MOL
REMARK 922        TOTAL FREE ENERGY PREDICTED BY IDOCK:   -9.02 KCAL/MOL
REMARK 923 INTER-LIGAND FREE ENERGY PREDICTED BY IDOCK:   -5.94 KCAL/MOL
REMARK 924 INTRA-LIGAND FREE ENERGY PREDICTED BY IDOCK:   -3.07 KCAL/MOL
REMARK 927      BINDING AFFINITY PREDICTED BY RF-SCORE:    0.00 PKD
ROOT
HETATM    1  C   UNL     1     -11.716   9.187  70.740  1.00  0.00    -0.256 C  
HETATM    2  O   UNL     1     -10.679   9.873  70.053  1.00  0.00    -0.249 OA 
ENDROOT
BRANCH   2   3
HETATM    3  C   UNL     1     -10.556   9.616  68.689  1.00  0.00    -0.217 C  
HETATM    4  C   UNL     1      -9.878   8.520  68.304  1.00  0.00    -0.169 C  
HETATM    5  C   UNL     1      -9.718   8.248  66.843  1.00  0.00    -0.225 C  
HETATM    6  O   UNL     1     -11.981  11.385  67.906  1.00  0.00    -0.626 OA 
HETATM    7  O   UNL     1      -9.469   7.136  66.390  1.00  0.00    -0.173 OA 
HETATM    8  C   UNL     1     -11.114  10.555  67.657  1.00  0.00    -0.309 C  
HETATM    9  C   UNL     1      -9.831   9.414  65.922  1.00  0.00    -0.362 C  
HETATM   10  C   UNL     1     -10.787  11.704  65.436  1.00  0.00    -0.336 C  
HETATM   11  C   UNL     1     -10.525  10.500  66.296  1.00  0.00    -0.250 C  
BRANCH   4  12
HETATM   12  O   UNL     1      -9.361   7.677  69.287  1.00  0.00    -0.149 OA 
HETATM   13  C   UNL     1      -7.960   7.702  69.532  1.00  0.00    -0.125 C  
ENDBRANCH   4  12
BRANCH   9  14
HETATM   14  C   UNL     1      -9.113   9.270  64.616  1.00  0.00    -0.177 C  
BRANCH  14  15
HETATM   15  C   UNL     1      -7.743   9.953  64.608  1.00  0.00    -0.142 C  
BRANCH  15  16
HETATM   16  C   UNL     1      -6.642   9.018  65.107  1.00  0.00    -0.072 C  
BRANCH  16  17
HETATM   17  C   UNL     1      -6.104   9.463  66.462  1.00  0.00    -0.064 C  
BRANCH  17  18
HETATM   18  C   UNL     1      -6.517  10.883  66.804  1.00  0.00    -0.115 C  
BRANCH  18  19
HETATM   19  C   UNL     1      -7.014  10.922  68.243  1.00  0.00    -0.069 C  
BRANCH  19  20
HETATM   20  C   UNL     1      -7.887  12.142  68.470  1.00  0.00    -0.122 C  
BRANCH  20  21
HETATM   21  C   UNL     1      -7.599  13.207  67.422  1.00  0.00    -0.137 C  
BRANCH  21  22
HETATM   22  C   UNL     1      -8.824  14.087  67.225  1.00  0.00    -0.225 C  
BRANCH  22  23
HETATM   23  C   UNL     1      -9.575  14.272  68.537  1.00  0.00    -0.220 C  
BRANCH  23  24
HETATM   24  C   UNL     1     -10.748  15.225  68.352  1.00  0.00    -0.250 C  
BRANCH  24  25
HETATM   25  C   UNL     1     -11.383  15.054  66.981  1.00  0.00    -0.318 C  
HETATM   26  O   UNL     1     -12.526  14.218  67.085  1.00  0.00    -0.588 OA 
HETATM   27  H   UNL     1     -12.923  14.111  66.229  1.00  0.00     0.000 HD 
ENDBRANCH  24  25
ENDBRANCH  23  24
ENDBRANCH  22  23
ENDBRANCH  21  22
ENDBRANCH  20  21
ENDBRANCH  19  20
ENDBRANCH  18  19
ENDBRANCH  17  18
ENDBRANCH  16  17
ENDBRANCH  15  16
ENDBRANCH  14  15
ENDBRANCH   9  14
ENDBRANCH   2   3
TORSDOF 14
ENDMDL
MODEL      153
REMARK 921   NORMALIZED FREE ENERGY PREDICTED BY IDOCK:   -3.95 KCAL/MOL
REMARK 922        TOTAL FREE ENERGY PREDICTED BY IDOCK:   -9.01 KCAL/MOL
REMARK 923 INTER-LIGAND FREE ENERGY PREDICTED BY IDOCK:   -7.35 KCAL/MOL
REMARK 924 INTRA-LIGAND FREE ENERGY PREDICTED BY IDOCK:   -1.66 KCAL/MOL
REMARK 927      BINDING AFFINITY PREDICTED BY RF-SCORE:    0.00 PKD
ROOT
HETATM    1  C   UNL     1     -11.802  14.464  67.219  1.00  0.00    -0.405 C  
HETATM    2  O   UNL     1     -12.288  13.242  66.679  1.00  0.00    -0.338 OA 
ENDROOT
BRANCH   2   3
HETATM    3  C   UNL     1     -11.372  12.198  66.568  1.00  0.00    -0.350 C  
HETATM    4  C   UNL     1     -10.866  11.918  65.354  1.00  0.00    -0.294 C  
HETATM    5  C   UNL     1      -9.902  10.785  65.219  1.00  0.00    -0.272 C  
HETATM    6  O   UNL     1     -11.152  11.724  68.913  1.00  0.00    -0.215 OA 
HETATM    7  O   UNL     1      -9.115  10.679  64.285  1.00  0.00    -0.200 OA 
HETATM    8  C   UNL     1     -10.985  11.361  67.754  1.00  0.00    -0.247 C  
HETATM    9  C   UNL     1      -9.954   9.725  66.265  1.00  0.00    -0.331 C  
HETATM   10  C   UNL     1     -10.470   9.061  68.650  1.00  0.00    -0.229 C  
HETATM   11  C   UNL     1     -10.438  10.008  67.485  1.00  0.00    -0.307 C  
BRANCH   4  12
HETATM   12  O   UNL     1     -11.257  12.707  64.272  1.00  0.00    -0.320 OA 
HETATM   13  C   UNL     1     -12.210  12.178  63.358  1.00  0.00    -0.530 C  
ENDBRANCH   4  12
BRANCH   9  14
HETATM   14  C   UNL     1      -9.460   8.377  65.838  1.00  0.00    -0.169 C  
BRANCH  14  15
HETATM   15  C   UNL     1      -8.071   8.048  66.388  1.00  0.00    -0.107 C  
BRANCH  15  16
HETATM   16  C   UNL     1      -7.863   6.540  66.532  1.00  0.00    -0.104 C  
BRANCH  16  17
HETATM   17  C   UNL     1      -8.946   5.755  65.802  1.00  0.00    -0.144 C  
BRANCH  17  18
HETATM   18  C   UNL     1      -9.950   5.141  66.758  1.00  0.00    -0.231 C  
BRANCH  18  19
HETATM   19  C   UNL     1      -9.315   3.934  67.437  1.00  0.00    -0.225 C  
BRANCH  19  20
HETATM   20  C   UNL     1      -9.559   3.977  68.934  1.00  0.00    -0.213 C  
BRANCH  20  21
HETATM   21  C   UNL     1     -10.111   5.334  69.346  1.00  0.00    -0.311 C  
BRANCH  21  22
HETATM   22  C   UNL     1      -9.586   5.713  70.722  1.00  0.00    -0.213 C  
BRANCH  22  23
HETATM   23  C   UNL     1     -10.726   6.137  71.640  1.00  0.00    -0.294 C  
BRANCH  23  24
HETATM   24  C   UNL     1     -11.954   6.519  70.825  1.00  0.00    -0.351 C  
BRANCH  24  25
HETATM   25  C   UNL     1     -12.768   7.591  71.531  1.00  0.00    -0.359 C  
HETATM   26  O   UNL     1     -12.198   7.864  72.803  1.00  0.00    -0.595 OA 
HETATM   27  H   UNL     1     -12.707   8.534  73.244  1.00  0.00     0.000 HD 
ENDBRANCH  24  25
ENDBRANCH  23  24
ENDBRANCH  22  23
ENDBRANCH  21  22
ENDBRANCH  20  21
ENDBRANCH  19  20
ENDBRANCH  18  19
ENDBRANCH  17  18
ENDBRANCH  16  17
ENDBRANCH  15  16
ENDBRANCH  14  15
ENDBRANCH   9  14
ENDBRANCH   2   3
TORSDOF 14
ENDMDL
MODEL      154
REMARK 921   NORMALIZED FREE ENERGY PREDICTED BY IDOCK:   -3.94 KCAL/MOL
REMARK 922        TOTAL FREE ENERGY PREDICTED BY IDOCK:   -8.98 KCAL/MOL
REMARK 923 INTER-LIGAND FREE ENERGY PREDICTED BY IDOCK:   -7.25 KCAL/MOL
REMARK 924 INTRA-LIGAND FREE ENERGY PREDICTED BY IDOCK:   -1.73 KCAL/MOL
REMARK 927      BINDING AFFINITY PREDICTED BY RF-SCORE:    0.00 PKD
ROOT
HETATM    1  C   UNL     1     -10.740   7.733  73.122  1.00  0.00    -0.351 C  
HETATM    2  O   UNL     1     -11.580   7.549  71.990  1.00  0.00    -0.268 OA 
ENDROOT
BRANCH   2   3
HETATM    3  C   UNL     1     -11.598   8.579  71.051  1.00  0.00    -0.279 C  
HETATM    4  C   UNL     1     -10.820   8.463  69.960  1.00  0.00    -0.225 C  
HETATM    5  C   UNL     1     -10.813   9.572  68.960  1.00  0.00    -0.160 C  
HETATM    6  O   UNL     1     -13.361   9.877  72.042  1.00  0.00    -0.423 OA 
HETATM    7  O   UNL     1     -10.461   9.424  67.795  1.00  0.00    -0.227 OA 
HETATM    8  C   UNL     1     -12.419   9.820  71.259  1.00  0.00    -0.367 C  
HETATM    9  C   UNL     1     -11.217  10.923  69.444  1.00  0.00    -0.335 C  
HETATM   10  C   UNL     1     -12.559  12.330  71.060  1.00  0.00    -0.352 C  
HETATM   11  C   UNL     1     -12.011  11.040  70.519  1.00  0.00    -0.474 C  
BRANCH   4  12
HETATM   12  O   UNL     1     -10.060   7.304  69.805  1.00  0.00    -0.187 OA 
HETATM   13  C   UNL     1      -8.653   7.387  69.996  1.00  0.00    -0.140 C  
ENDBRANCH   4  12
BRANCH   9  14
HETATM   14  C   UNL     1     -10.661  12.075  68.666  1.00  0.00    -0.253 C  
BRANCH  14  15
HETATM   15  C   UNL     1     -11.497  12.424  67.434  1.00  0.00    -0.418 C  
BRANCH  15  16
HETATM   16  C   UNL     1     -12.031  13.855  67.499  1.00  0.00    -0.421 C  
BRANCH  16  17
HETATM   17  C   UNL     1     -10.998  14.808  68.089  1.00  0.00    -0.274 C  
BRANCH  17  18
HETATM   18  C   UNL     1     -10.678  15.958  67.152  1.00  0.00    -0.301 C  
BRANCH  18  19
HETATM   19  C   UNL     1     -10.348  17.194  67.979  1.00  0.00    -0.353 C  
BRANCH  19  20
HETATM   20  C   UNL     1      -8.852  17.293  68.213  1.00  0.00    -0.258 C  
BRANCH  20  21
HETATM   21  C   UNL     1      -8.089  16.897  66.957  1.00  0.00    -0.228 C  
BRANCH  21  22
HETATM   22  C   UNL     1      -7.022  15.868  67.300  1.00  0.00    -0.241 C  
BRANCH  22  23
HETATM   23  C   UNL     1      -7.176  15.386  68.737  1.00  0.00    -0.128 C  
BRANCH  23  24
HETATM   24  C   UNL     1      -7.191  13.864  68.792  1.00  0.00    -0.106 C  
BRANCH  24  25
HETATM   25  C   UNL     1      -6.156  13.341  69.774  1.00  0.00    -0.128 C  
HETATM   26  O   UNL     1      -6.164  14.139  70.948  1.00  0.00    -0.351 OA 
HETATM   27  H   UNL     1      -5.518  13.812  71.562  1.00  0.00     0.000 HD 
ENDBRANCH  24  25
ENDBRANCH  23  24
ENDBRANCH  22  23
ENDBRANCH  21  22
ENDBRANCH  20  21
ENDBRANCH  19  20
ENDBRANCH  18  19
ENDBRANCH  17  18
ENDBRANCH  16  17
ENDBRANCH  15  16
ENDBRANCH  14  15
ENDBRANCH   9  14
ENDBRANCH   2   3
TORSDOF 14
ENDMDL
MODEL      155
REMARK 921   NORMALIZED FREE ENERGY PREDICTED BY IDOCK:   -3.93 KCAL/MOL
REMARK 922        TOTAL FREE ENERGY PREDICTED BY IDOCK:   -8.98 KCAL/MOL
REMARK 923 INTER-LIGAND FREE ENERGY PREDICTED BY IDOCK:   -7.51 KCAL/MOL
REMARK 924 INTRA-LIGAND FREE ENERGY PREDICTED BY IDOCK:   -1.46 KCAL/MOL
REMARK 927      BINDING AFFINITY PREDICTED BY RF-SCORE:    0.00 PKD
ROOT
HETATM    1  C   UNL     1     -12.153  13.940  67.232  1.00  0.00    -0.368 C  
HETATM    2  O   UNL     1     -12.337  12.770  66.446  1.00  0.00    -0.500 OA 
ENDROOT
BRANCH   2   3
HETATM    3  C   UNL     1     -11.344  11.796  66.533  1.00  0.00    -0.305 C  
HETATM    4  C   UNL     1     -10.395  11.764  65.580  1.00  0.00    -0.262 C  
HETATM    5  C   UNL     1      -9.340  10.709  65.649  1.00  0.00    -0.201 C  
HETATM    6  O   UNL     1     -11.968  10.900  68.673  1.00  0.00    -0.484 OA 
HETATM    7  O   UNL     1      -8.255  10.805  65.087  1.00  0.00    -0.137 OA 
HETATM    8  C   UNL     1     -11.344  10.765  67.627  1.00  0.00    -0.252 C  
HETATM    9  C   UNL     1      -9.671   9.471  66.410  1.00  0.00    -0.295 C  
HETATM   10  C   UNL     1     -10.969   8.357  68.273  1.00  0.00     0.154 C  
HETATM   11  C   UNL     1     -10.601   9.506  67.377  1.00  0.00    -0.337 C  
BRANCH   4  12
HETATM   12  O   UNL     1     -10.432  12.727  64.572  1.00  0.00    -0.330 OA 
HETATM   13  C   UNL     1     -11.091  12.405  63.353  1.00  0.00    -0.402 C  
ENDBRANCH   4  12
BRANCH   9  14
HETATM   14  C   UNL     1      -8.917   8.244  65.998  1.00  0.00    -0.224 C  
BRANCH  14  15
HETATM   15  C   UNL     1      -8.153   7.595  67.153  1.00  0.00    -0.118 C  
BRANCH  15  16
HETATM   16  C   UNL     1      -7.064   8.518  67.701  1.00  0.00    -0.080 C  
BRANCH  16  17
HETATM   17  C   UNL     1      -7.113   8.595  69.222  1.00  0.00    -0.062 C  
BRANCH  17  18
HETATM   18  C   UNL     1      -7.825   7.403  69.834  1.00  0.00    -0.115 C  
BRANCH  18  19
HETATM   19  C   UNL     1      -8.103   7.692  71.303  1.00  0.00    -0.095 C  
BRANCH  19  20
HETATM   20  C   UNL     1      -9.598   7.729  71.563  1.00  0.00    -0.187 C  
BRANCH  20  21
HETATM   21  C   UNL     1      -9.969   6.763  72.679  1.00  0.00    -0.186 C  
BRANCH  21  22
HETATM   22  C   UNL     1     -11.292   6.083  72.359  1.00  0.00    -0.349 C  
BRANCH  22  23
HETATM   23  C   UNL     1     -12.010   6.800  71.223  1.00  0.00    -0.414 C  
BRANCH  23  24
HETATM   24  C   UNL     1     -13.400   7.240  71.661  1.00  0.00    -0.421 C  
BRANCH  24  25
HETATM   25  C   UNL     1     -13.415   8.711  72.042  1.00  0.00    -0.403 C  
HETATM   26  O   UNL     1     -14.302   8.912  73.133  1.00  0.00    -1.143 OA 
HETATM   27  H   UNL     1     -14.311   9.832  73.372  1.00  0.00     0.000 HD 
ENDBRANCH  24  25
ENDBRANCH  23  24
ENDBRANCH  22  23
ENDBRANCH  21  22
ENDBRANCH  20  21
ENDBRANCH  19  20
ENDBRANCH  18  19
ENDBRANCH  17  18
ENDBRANCH  16  17
ENDBRANCH  15  16
ENDBRANCH  14  15
ENDBRANCH   9  14
ENDBRANCH   2   3
TORSDOF 14
ENDMDL
MODEL      156
REMARK 921   NORMALIZED FREE ENERGY PREDICTED BY IDOCK:   -3.93 KCAL/MOL
REMARK 922        TOTAL FREE ENERGY PREDICTED BY IDOCK:   -8.97 KCAL/MOL
REMARK 923 INTER-LIGAND FREE ENERGY PREDICTED BY IDOCK:   -7.11 KCAL/MOL
REMARK 924 INTRA-LIGAND FREE ENERGY PREDICTED BY IDOCK:   -1.86 KCAL/MOL
REMARK 927      BINDING AFFINITY PREDICTED BY RF-SCORE:    0.00 PKD
ROOT
HETATM    1  C   UNL     1     -10.951   9.258  71.493  1.00  0.00    -0.375 C  
HETATM    2  O   UNL     1      -9.976   8.224  71.460  1.00  0.00    -0.175 OA 
ENDROOT
BRANCH   2   3
HETATM    3  C   UNL     1      -9.502   7.852  70.203  1.00  0.00    -0.160 C  
HETATM    4  C   UNL     1      -8.340   8.379  69.777  1.00  0.00    -0.125 C  
HETATM    5  C   UNL     1      -7.834   8.006  68.421  1.00  0.00    -0.122 C  
HETATM    6  O   UNL     1     -11.163   6.184  69.722  1.00  0.00    -0.384 OA 
HETATM    7  O   UNL     1      -6.658   8.110  68.091  1.00  0.00    -0.054 OA 
HETATM    8  C   UNL     1     -10.279   6.928  69.310  1.00  0.00    -0.186 C  
HETATM    9  C   UNL     1      -8.842   7.530  67.432  1.00  0.00    -0.127 C  
HETATM   10  C   UNL     1     -11.051   6.389  66.970  1.00  0.00    -0.405 C  
HETATM   11  C   UNL     1      -9.992   6.984  67.855  1.00  0.00    -0.183 C  
BRANCH   4  12
HETATM   12  O   UNL     1      -7.650   9.244  70.626  1.00  0.00    -0.120 OA 
HETATM   13  C   UNL     1      -7.106  10.439  70.078  1.00  0.00    -0.150 C  
ENDBRANCH   4  12
BRANCH   9  14
HETATM   14  C   UNL     1      -8.472   7.730  65.994  1.00  0.00    -0.146 C  
BRANCH  14  15
HETATM   15  C   UNL     1      -9.256   8.862  65.327  1.00  0.00    -0.158 C  
BRANCH  15  16
HETATM   16  C   UNL     1      -8.571  10.215  65.520  1.00  0.00    -0.162 C  
BRANCH  16  17
HETATM   17  C   UNL     1      -9.414  11.149  66.379  1.00  0.00    -0.216 C  
BRANCH  17  18
HETATM   18  C   UNL     1     -10.848  10.672  66.506  1.00  0.00    -0.168 C  
BRANCH  18  19
HETATM   19  C   UNL     1     -11.443  11.225  67.794  1.00  0.00    -0.350 C  
BRANCH  19  20
HETATM   20  C   UNL     1     -10.461  12.164  68.472  1.00  0.00    -0.248 C  
BRANCH  20  21
HETATM   21  C   UNL     1     -11.178  13.401  68.992  1.00  0.00    -0.323 C  
BRANCH  21  22
HETATM   22  C   UNL     1     -12.101  13.957  67.918  1.00  0.00    -0.318 C  
BRANCH  22  23
HETATM   23  C   UNL     1     -11.347  14.905  66.994  1.00  0.00    -0.345 C  
BRANCH  23  24
HETATM   24  C   UNL     1     -11.723  14.647  65.542  1.00  0.00    -0.316 C  
BRANCH  24  25
HETATM   25  C   UNL     1     -10.829  15.432  64.596  1.00  0.00    -0.258 C  
HETATM   26  O   UNL     1     -11.627  16.247  63.750  1.00  0.00    -1.539 OA 
HETATM   27  H   UNL     1     -11.069  16.738  63.159  1.00  0.00     0.000 HD 
ENDBRANCH  24  25
ENDBRANCH  23  24
ENDBRANCH  22  23
ENDBRANCH  21  22
ENDBRANCH  20  21
ENDBRANCH  19  20
ENDBRANCH  18  19
ENDBRANCH  17  18
ENDBRANCH  16  17
ENDBRANCH  15  16
ENDBRANCH  14  15
ENDBRANCH   9  14
ENDBRANCH   2   3
TORSDOF 14
ENDMDL
MODEL      157
REMARK 921   NORMALIZED FREE ENERGY PREDICTED BY IDOCK:   -3.93 KCAL/MOL
REMARK 922        TOTAL FREE ENERGY PREDICTED BY IDOCK:   -8.96 KCAL/MOL
REMARK 923 INTER-LIGAND FREE ENERGY PREDICTED BY IDOCK:   -7.92 KCAL/MOL
REMARK 924 INTRA-LIGAND FREE ENERGY PREDICTED BY IDOCK:   -1.05 KCAL/MOL
REMARK 927      BINDING AFFINITY PREDICTED BY RF-SCORE:    0.00 PKD
ROOT
HETATM    1  C   UNL     1      -6.720  17.141  68.407  1.00  0.00    -0.170 C  
HETATM    2  O   UNL     1      -7.060  16.809  67.067  1.00  0.00    -0.161 OA 
ENDROOT
BRANCH   2   3
HETATM    3  C   UNL     1      -7.981  15.778  66.893  1.00  0.00    -0.250 C  
HETATM    4  C   UNL     1      -9.206  16.088  66.431  1.00  0.00    -0.305 C  
HETATM    5  C   UNL     1     -10.210  14.993  66.264  1.00  0.00    -0.294 C  
HETATM    6  O   UNL     1      -6.503  13.949  67.385  1.00  0.00    -0.299 OA 
HETATM    7  O   UNL     1     -11.185  15.083  65.525  1.00  0.00    -0.344 OA 
HETATM    8  C   UNL     1      -7.652  14.358  67.254  1.00  0.00    -0.108 C  
HETATM    9  C   UNL     1     -10.012  13.763  67.082  1.00  0.00    -0.243 C  
HETATM   10  C   UNL     1      -8.436  12.193  68.282  1.00  0.00    -0.176 C  
HETATM   11  C   UNL     1      -8.787  13.442  67.524  1.00  0.00    -0.210 C  
BRANCH   4  12
HETATM   12  O   UNL     1      -9.484  17.418  66.118  1.00  0.00    -0.409 OA 
HETATM   13  C   UNL     1     -10.462  18.104  66.890  1.00  0.00    -0.357 C  
ENDBRANCH   4  12
BRANCH   9  14
HETATM   14  C   UNL     1     -11.254  12.975  67.364  1.00  0.00    -0.325 C  
BRANCH  14  15
HETATM   15  C   UNL     1     -11.859  13.283  68.736  1.00  0.00    -0.371 C  
BRANCH  15  16
HETATM   16  C   UNL     1     -11.834  12.060  69.652  1.00  0.00    -0.401 C  
BRANCH  16  17
HETATM   17  C   UNL     1     -12.506  12.351  70.989  1.00  0.00    -0.353 C  
BRANCH  17  18
HETATM   18  C   UNL     1     -13.117  11.107  71.605  1.00  0.00    -0.529 C  
BRANCH  18  19
HETATM   19  C   UNL     1     -12.182   9.928  71.373  1.00  0.00    -0.499 C  
BRANCH  19  20
HETATM   20  C   UNL     1     -12.643   8.720  72.168  1.00  0.00    -0.463 C  
BRANCH  20  21
HETATM   21  C   UNL     1     -12.999   7.572  71.236  1.00  0.00    -0.323 C  
BRANCH  21  22
HETATM   22  C   UNL     1     -11.747   7.058  70.541  1.00  0.00    -0.359 C  
BRANCH  22  23
HETATM   23  C   UNL     1     -10.643   6.777  71.552  1.00  0.00    -0.245 C  
BRANCH  23  24
HETATM   24  C   UNL     1     -10.360   5.284  71.634  1.00  0.00    -0.281 C  
BRANCH  24  25
HETATM   25  C   UNL     1     -10.591   4.759  73.042  1.00  0.00    -0.218 C  
HETATM   26  O   UNL     1     -11.982   4.577  73.261  1.00  0.00    -0.226 OA 
HETATM   27  H   UNL     1     -12.127   4.248  74.141  1.00  0.00     0.000 HD 
ENDBRANCH  24  25
ENDBRANCH  23  24
ENDBRANCH  22  23
ENDBRANCH  21  22
ENDBRANCH  20  21
ENDBRANCH  19  20
ENDBRANCH  18  19
ENDBRANCH  17  18
ENDBRANCH  16  17
ENDBRANCH  15  16
ENDBRANCH  14  15
ENDBRANCH   9  14
ENDBRANCH   2   3
TORSDOF 14
ENDMDL
MODEL      158
REMARK 921   NORMALIZED FREE ENERGY PREDICTED BY IDOCK:   -3.92 KCAL/MOL
REMARK 922        TOTAL FREE ENERGY PREDICTED BY IDOCK:   -8.95 KCAL/MOL
REMARK 923 INTER-LIGAND FREE ENERGY PREDICTED BY IDOCK:   -8.13 KCAL/MOL
REMARK 924 INTRA-LIGAND FREE ENERGY PREDICTED BY IDOCK:   -0.83 KCAL/MOL
REMARK 927      BINDING AFFINITY PREDICTED BY RF-SCORE:    0.00 PKD
ROOT
HETATM    1  C   UNL     1      -7.989  10.458  62.963  1.00  0.00    -0.138 C  
HETATM    2  O   UNL     1      -9.334  10.090  63.238  1.00  0.00    -0.281 OA 
ENDROOT
BRANCH   2   3
HETATM    3  C   UNL     1      -9.771  10.254  64.551  1.00  0.00    -0.329 C  
HETATM    4  C   UNL     1     -10.579  11.293  64.831  1.00  0.00    -0.300 C  
HETATM    5  C   UNL     1     -11.033  11.492  66.240  1.00  0.00    -0.275 C  
HETATM    6  O   UNL     1      -8.853   8.221  65.444  1.00  0.00    -0.157 OA 
HETATM    7  O   UNL     1     -12.030  12.142  66.539  1.00  0.00    -0.618 OA 
HETATM    8  C   UNL     1      -9.322   9.335  65.652  1.00  0.00    -0.244 C  
HETATM    9  C   UNL     1     -10.188  10.898  67.314  1.00  0.00    -0.242 C  
HETATM   10  C   UNL     1      -8.565   9.102  68.046  1.00  0.00    -0.125 C  
HETATM   11  C   UNL     1      -9.399   9.847  67.042  1.00  0.00    -0.175 C  
BRANCH   4  12
HETATM   12  O   UNL     1     -10.965  12.135  63.788  1.00  0.00    -0.353 OA 
HETATM   13  C   UNL     1     -12.312  12.073  63.333  1.00  0.00    -0.523 C  
ENDBRANCH   4  12
BRANCH   9  14
HETATM   14  C   UNL     1     -10.286  11.566  68.650  1.00  0.00    -0.226 C  
BRANCH  14  15
HETATM   15  C   UNL     1     -11.263  10.867  69.599  1.00  0.00    -0.348 C  
BRANCH  15  16
HETATM   16  C   UNL     1     -12.183  11.866  70.300  1.00  0.00    -0.353 C  
BRANCH  16  17
HETATM   17  C   UNL     1     -12.793  11.270  71.563  1.00  0.00    -0.519 C  
BRANCH  17  18
HETATM   18  C   UNL     1     -13.367   9.886  71.323  1.00  0.00    -0.419 C  
BRANCH  18  19
HETATM   19  C   UNL     1     -12.848   8.941  72.398  1.00  0.00    -0.446 C  
BRANCH  19  20
HETATM   20  C   UNL     1     -11.426   8.512  72.086  1.00  0.00    -0.446 C  
BRANCH  20  21
HETATM   21  C   UNL     1     -10.994   7.385  73.013  1.00  0.00    -0.422 C  
BRANCH  21  22
HETATM   22  C   UNL     1     -11.388   6.042  72.418  1.00  0.00    -0.349 C  
BRANCH  22  23
HETATM   23  C   UNL     1     -10.970   4.899  73.335  1.00  0.00    -0.394 C  
BRANCH  23  24
HETATM   24  C   UNL     1      -9.681   4.260  72.839  1.00  0.00    -0.172 C  
BRANCH  24  25
HETATM   25  C   UNL     1      -9.696   2.756  73.053  1.00  0.00    -0.108 C  
HETATM   26  O   UNL     1     -11.005   2.338  73.413  1.00  0.00    -0.161 OA 
HETATM   27  H   UNL     1     -11.015   1.398  73.547  1.00  0.00     0.000 HD 
ENDBRANCH  24  25
ENDBRANCH  23  24
ENDBRANCH  22  23
ENDBRANCH  21  22
ENDBRANCH  20  21
ENDBRANCH  19  20
ENDBRANCH  18  19
ENDBRANCH  17  18
ENDBRANCH  16  17
ENDBRANCH  15  16
ENDBRANCH  14  15
ENDBRANCH   9  14
ENDBRANCH   2   3
TORSDOF 14
ENDMDL
MODEL      159
REMARK 921   NORMALIZED FREE ENERGY PREDICTED BY IDOCK:   -3.91 KCAL/MOL
REMARK 922        TOTAL FREE ENERGY PREDICTED BY IDOCK:   -8.93 KCAL/MOL
REMARK 923 INTER-LIGAND FREE ENERGY PREDICTED BY IDOCK:   -7.27 KCAL/MOL
REMARK 924 INTRA-LIGAND FREE ENERGY PREDICTED BY IDOCK:   -1.67 KCAL/MOL
REMARK 927      BINDING AFFINITY PREDICTED BY RF-SCORE:    0.00 PKD
ROOT
HETATM    1  C   UNL     1      -5.474  19.038  70.336  1.00  0.00    -0.234 C  
HETATM    2  O   UNL     1      -5.330  18.465  69.043  1.00  0.00    -0.190 OA 
ENDROOT
BRANCH   2   3
HETATM    3  C   UNL     1      -6.473  17.903  68.478  1.00  0.00    -0.211 C  
HETATM    4  C   UNL     1      -7.052  18.537  67.443  1.00  0.00    -0.205 C  
HETATM    5  C   UNL     1      -8.292  17.956  66.845  1.00  0.00    -0.242 C  
HETATM    6  O   UNL     1      -6.480  15.863  69.747  1.00  0.00    -0.182 OA 
HETATM    7  O   UNL     1      -8.676  18.216  65.710  1.00  0.00    -0.466 OA 
HETATM    8  C   UNL     1      -7.089  16.648  69.030  1.00  0.00    -0.216 C  
HETATM    9  C   UNL     1      -9.103  17.055  67.713  1.00  0.00    -0.228 C  
HETATM   10  C   UNL     1      -9.201  15.407  69.628  1.00  0.00    -0.188 C  
HETATM   11  C   UNL     1      -8.522  16.405  68.733  1.00  0.00    -0.249 C  
BRANCH   4  12
HETATM   12  O   UNL     1      -6.462  19.706  66.964  1.00  0.00    -0.192 OA 
HETATM   13  C   UNL     1      -5.561  19.609  65.868  1.00  0.00    -0.155 C  
ENDBRANCH   4  12
BRANCH   9  14
HETATM   14  C   UNL     1     -10.557  16.969  67.365  1.00  0.00    -0.289 C  
BRANCH  14  15
HETATM   15  C   UNL     1     -11.012  15.544  67.044  1.00  0.00    -0.283 C  
BRANCH  15  16
HETATM   16  C   UNL     1     -10.574  15.112  65.644  1.00  0.00    -0.370 C  
BRANCH  16  17
HETATM   17  C   UNL     1     -11.188  13.772  65.257  1.00  0.00    -0.311 C  
BRANCH  17  18
HETATM   18  C   UNL     1     -10.134  12.720  64.972  1.00  0.00    -0.239 C  
BRANCH  18  19
HETATM   19  C   UNL     1      -9.734  12.051  66.281  1.00  0.00    -0.251 C  
BRANCH  19  20
HETATM   20  C   UNL     1     -10.967  11.630  67.060  1.00  0.00    -0.338 C  
BRANCH  20  21
HETATM   21  C   UNL     1     -10.850  12.056  68.516  1.00  0.00    -0.267 C  
BRANCH  21  22
HETATM   22  C   UNL     1     -12.120  12.771  68.952  1.00  0.00    -0.175 C  
BRANCH  22  23
HETATM   23  C   UNL     1     -12.040  13.169  70.420  1.00  0.00    -0.392 C  
BRANCH  23  24
HETATM   24  C   UNL     1     -12.366  14.646  70.593  1.00  0.00    -0.398 C  
BRANCH  24  25
HETATM   25  C   UNL     1     -12.055  15.116  72.004  1.00  0.00    -0.379 C  
HETATM   26  O   UNL     1     -12.077  16.535  72.051  1.00  0.00    -0.616 OA 
HETATM   27  H   UNL     1     -11.883  16.829  72.933  1.00  0.00     0.000 HD 
ENDBRANCH  24  25
ENDBRANCH  23  24
ENDBRANCH  22  23
ENDBRANCH  21  22
ENDBRANCH  20  21
ENDBRANCH  19  20
ENDBRANCH  18  19
ENDBRANCH  17  18
ENDBRANCH  16  17
ENDBRANCH  15  16
ENDBRANCH  14  15
ENDBRANCH   9  14
ENDBRANCH   2   3
TORSDOF 14
ENDMDL
MODEL      160
REMARK 921   NORMALIZED FREE ENERGY PREDICTED BY IDOCK:   -3.91 KCAL/MOL
REMARK 922        TOTAL FREE ENERGY PREDICTED BY IDOCK:   -8.93 KCAL/MOL
REMARK 923 INTER-LIGAND FREE ENERGY PREDICTED BY IDOCK:   -6.76 KCAL/MOL
REMARK 924 INTRA-LIGAND FREE ENERGY PREDICTED BY IDOCK:   -2.18 KCAL/MOL
REMARK 927      BINDING AFFINITY PREDICTED BY RF-SCORE:    0.00 PKD
ROOT
HETATM    1  C   UNL     1     -11.645  15.178  68.517  1.00  0.00    -0.335 C  
HETATM    2  O   UNL     1     -12.282  13.913  68.639  1.00  0.00    -0.345 OA 
ENDROOT
BRANCH   2   3
HETATM    3  C   UNL     1     -11.905  12.932  67.723  1.00  0.00    -0.339 C  
HETATM    4  C   UNL     1     -11.478  11.748  68.195  1.00  0.00    -0.316 C  
HETATM    5  C   UNL     1     -11.048  10.698  67.223  1.00  0.00    -0.243 C  
HETATM    6  O   UNL     1     -12.561  14.098  65.727  1.00  0.00    -0.488 OA 
HETATM    7  O   UNL     1     -11.007   9.504  67.498  1.00  0.00    -0.241 OA 
HETATM    8  C   UNL     1     -11.919  13.190  66.243  1.00  0.00    -0.415 C  
HETATM    9  C   UNL     1     -10.612  11.162  65.875  1.00  0.00    -0.294 C  
HETATM   10  C   UNL     1     -10.762  12.878  64.023  1.00  0.00    -0.429 C  
HETATM   11  C   UNL     1     -11.055  12.334  65.393  1.00  0.00    -0.353 C  
BRANCH   4  12
HETATM   12  O   UNL     1     -11.465  11.546  69.575  1.00  0.00    -0.268 OA 
HETATM   13  C   UNL     1     -12.545  10.834  70.165  1.00  0.00    -0.240 C  
ENDBRANCH   4  12
BRANCH   9  14
HETATM   14  C   UNL     1      -9.664  10.250  65.159  1.00  0.00    -0.364 C  
BRANCH  14  15
HETATM   15  C   UNL     1      -8.204  10.467  65.563  1.00  0.00    -0.162 C  
BRANCH  15  16
HETATM   16  C   UNL     1      -7.600   9.213  66.194  1.00  0.00    -0.095 C  
BRANCH  16  17
HETATM   17  C   UNL     1      -6.856   9.541  67.484  1.00  0.00    -0.083 C  
BRANCH  17  18
HETATM   18  C   UNL     1      -7.801   9.739  68.654  1.00  0.00    -0.081 C  
BRANCH  18  19
HETATM   19  C   UNL     1      -7.904  11.227  68.962  1.00  0.00    -0.079 C  
BRANCH  19  20
HETATM   20  C   UNL     1      -6.538  11.883  68.874  1.00  0.00    -0.087 C  
BRANCH  20  21
HETATM   21  C   UNL     1      -6.523  12.938  67.778  1.00  0.00    -0.143 C  
BRANCH  21  22
HETATM   22  C   UNL     1      -7.939  13.417  67.498  1.00  0.00    -0.186 C  
BRANCH  22  23
HETATM   23  C   UNL     1      -8.108  14.877  67.900  1.00  0.00    -0.148 C  
BRANCH  23  24
HETATM   24  C   UNL     1      -8.263  15.757  66.668  1.00  0.00    -0.305 C  
BRANCH  24  25
HETATM   25  C   UNL     1      -8.481  17.210  67.055  1.00  0.00    -0.211 C  
HETATM   26  O   UNL     1      -8.634  17.999  65.884  1.00  0.00    -0.507 OA 
HETATM   27  H   UNL     1      -8.771  18.907  66.126  1.00  0.00     0.000 HD 
ENDBRANCH  24  25
ENDBRANCH  23  24
ENDBRANCH  22  23
ENDBRANCH  21  22
ENDBRANCH  20  21
ENDBRANCH  19  20
ENDBRANCH  18  19
ENDBRANCH  17  18
ENDBRANCH  16  17
ENDBRANCH  15  16
ENDBRANCH  14  15
ENDBRANCH   9  14
ENDBRANCH   2   3
TORSDOF 14
ENDMDL
MODEL      161
REMARK 921   NORMALIZED FREE ENERGY PREDICTED BY IDOCK:   -3.91 KCAL/MOL
REMARK 922        TOTAL FREE ENERGY PREDICTED BY IDOCK:   -8.93 KCAL/MOL
REMARK 923 INTER-LIGAND FREE ENERGY PREDICTED BY IDOCK:   -7.46 KCAL/MOL
REMARK 924 INTRA-LIGAND FREE ENERGY PREDICTED BY IDOCK:   -1.47 KCAL/MOL
REMARK 927      BINDING AFFINITY PREDICTED BY RF-SCORE:    0.00 PKD
ROOT
HETATM    1  C   UNL     1      -8.134  10.231  63.019  1.00  0.00    -0.157 C  
HETATM    2  O   UNL     1      -9.519  10.075  63.301  1.00  0.00    -0.295 OA 
ENDROOT
BRANCH   2   3
HETATM    3  C   UNL     1      -9.910  10.251  64.627  1.00  0.00    -0.327 C  
HETATM    4  C   UNL     1     -10.688  11.307  64.928  1.00  0.00    -0.271 C  
HETATM    5  C   UNL     1     -11.093  11.519  66.351  1.00  0.00    -0.269 C  
HETATM    6  O   UNL     1      -9.003   8.204  65.498  1.00  0.00    -0.137 OA 
HETATM    7  O   UNL     1     -12.066  12.189  66.679  1.00  0.00    -0.622 OA 
HETATM    8  C   UNL     1      -9.443   9.327  65.716  1.00  0.00    -0.262 C  
HETATM    9  C   UNL     1     -10.225  10.912  67.399  1.00  0.00    -0.236 C  
HETATM   10  C   UNL     1      -8.614   9.087  68.085  1.00  0.00    -0.130 C  
HETATM   11  C   UNL     1      -9.465   9.845  67.106  1.00  0.00    -0.190 C  
BRANCH   4  12
HETATM   12  O   UNL     1     -11.092  12.152  63.896  1.00  0.00    -0.333 OA 
HETATM   13  C   UNL     1     -10.730  13.526  63.966  1.00  0.00    -0.051 C  
ENDBRANCH   4  12
BRANCH   9  14
HETATM   14  C   UNL     1     -10.266  11.586  68.735  1.00  0.00    -0.204 C  
BRANCH  14  15
HETATM   15  C   UNL     1     -11.127  10.839  69.756  1.00  0.00    -0.346 C  
BRANCH  15  16
HETATM   16  C   UNL     1     -12.104  11.776  70.466  1.00  0.00    -0.439 C  
BRANCH  16  17
HETATM   17  C   UNL     1     -12.880  11.049  71.558  1.00  0.00    -0.555 C  
BRANCH  17  18
HETATM   18  C   UNL     1     -13.210   9.620  71.171  1.00  0.00    -0.373 C  
BRANCH  18  19
HETATM   19  C   UNL     1     -12.804   8.692  72.309  1.00  0.00    -0.438 C  
BRANCH  19  20
HETATM   20  C   UNL     1     -12.293   7.372  71.760  1.00  0.00    -0.365 C  
BRANCH  20  21
HETATM   21  C   UNL     1     -11.018   7.586  70.958  1.00  0.00    -0.266 C  
BRANCH  21  22
HETATM   22  C   UNL     1     -11.081   6.794  69.660  1.00  0.00    -0.343 C  
BRANCH  22  23
HETATM   23  C   UNL     1      -9.775   6.050  69.415  1.00  0.00    -0.176 C  
BRANCH  23  24
HETATM   24  C   UNL     1     -10.017   4.548  69.361  1.00  0.00    -0.212 C  
BRANCH  24  25
HETATM   25  C   UNL     1      -9.076   3.876  68.374  1.00  0.00    -0.138 C  
HETATM   26  O   UNL     1      -9.752   2.811  67.720  1.00  0.00    -0.325 OA 
HETATM   27  H   UNL     1      -9.164   2.391  67.103  1.00  0.00     0.000 HD 
ENDBRANCH  24  25
ENDBRANCH  23  24
ENDBRANCH  22  23
ENDBRANCH  21  22
ENDBRANCH  20  21
ENDBRANCH  19  20
ENDBRANCH  18  19
ENDBRANCH  17  18
ENDBRANCH  16  17
ENDBRANCH  15  16
ENDBRANCH  14  15
ENDBRANCH   9  14
ENDBRANCH   2   3
TORSDOF 14
ENDMDL
MODEL      162
REMARK 921   NORMALIZED FREE ENERGY PREDICTED BY IDOCK:   -3.90 KCAL/MOL
REMARK 922        TOTAL FREE ENERGY PREDICTED BY IDOCK:   -8.91 KCAL/MOL
REMARK 923 INTER-LIGAND FREE ENERGY PREDICTED BY IDOCK:   -7.74 KCAL/MOL
REMARK 924 INTRA-LIGAND FREE ENERGY PREDICTED BY IDOCK:   -1.17 KCAL/MOL
REMARK 927      BINDING AFFINITY PREDICTED BY RF-SCORE:    0.00 PKD
ROOT
HETATM    1  C   UNL     1      -5.501  19.740  68.710  1.00  0.00    -0.203 C  
HETATM    2  O   UNL     1      -6.421  18.999  69.501  1.00  0.00    -0.286 OA 
ENDROOT
BRANCH   2   3
HETATM    3  C   UNL     1      -7.294  18.154  68.819  1.00  0.00    -0.276 C  
HETATM    4  C   UNL     1      -6.885  16.903  68.540  1.00  0.00    -0.172 C  
HETATM    5  C   UNL     1      -7.804  15.997  67.787  1.00  0.00    -0.140 C  
HETATM    6  O   UNL     1      -9.202  19.615  68.811  1.00  0.00    -0.348 OA 
HETATM    7  O   UNL     1      -7.708  14.775  67.808  1.00  0.00    -0.128 OA 
HETATM    8  C   UNL     1      -8.641  18.626  68.351  1.00  0.00    -0.337 C  
HETATM    9  C   UNL     1      -8.849  16.643  66.944  1.00  0.00    -0.235 C  
HETATM   10  C   UNL     1     -10.376  18.614  66.520  1.00  0.00    -0.462 C  
HETATM   11  C   UNL     1      -9.274  17.883  67.233  1.00  0.00    -0.254 C  
BRANCH   4  12
HETATM   12  O   UNL     1      -5.623  16.502  68.977  1.00  0.00    -0.125 OA 
HETATM   13  C   UNL     1      -5.533  15.743  70.177  1.00  0.00    -0.150 C  
ENDBRANCH   4  12
BRANCH   9  14
HETATM   14  C   UNL     1      -9.338  15.823  65.790  1.00  0.00    -0.298 C  
BRANCH  14  15
HETATM   15  C   UNL     1     -10.649  15.093  66.087  1.00  0.00    -0.318 C  
BRANCH  15  16
HETATM   16  C   UNL     1     -11.547  15.015  64.853  1.00  0.00    -0.374 C  
BRANCH  16  17
HETATM   17  C   UNL     1     -12.772  14.146  65.108  1.00  0.00    -0.387 C  
BRANCH  17  18
HETATM   18  C   UNL     1     -12.464  12.667  64.968  1.00  0.00    -0.556 C  
BRANCH  18  19
HETATM   19  C   UNL     1     -12.022  12.385  63.538  1.00  0.00    -0.627 C  
BRANCH  19  20
HETATM   20  C   UNL     1     -10.644  11.750  63.523  1.00  0.00    -0.499 C  
BRANCH  20  21
HETATM   21  C   UNL     1     -10.460  10.846  64.734  1.00  0.00    -0.373 C  
BRANCH  21  22
HETATM   22  C   UNL     1      -9.309  11.352  65.590  1.00  0.00    -0.242 C  
BRANCH  22  23
HETATM   23  C   UNL     1      -8.322  10.231  65.888  1.00  0.00    -0.145 C  
BRANCH  23  24
HETATM   24  C   UNL     1      -8.855   8.899  65.378  1.00  0.00    -0.234 C  
BRANCH  24  25
HETATM   25  C   UNL     1      -9.308   8.014  66.527  1.00  0.00    -0.205 C  
HETATM   26  O   UNL     1      -9.504   6.687  66.059  1.00  0.00    -0.366 OA 
HETATM   27  H   UNL     1      -9.787   6.133  66.777  1.00  0.00     0.000 HD 
ENDBRANCH  24  25
ENDBRANCH  23  24
ENDBRANCH  22  23
ENDBRANCH  21  22
ENDBRANCH  20  21
ENDBRANCH  19  20
ENDBRANCH  18  19
ENDBRANCH  17  18
ENDBRANCH  16  17
ENDBRANCH  15  16
ENDBRANCH  14  15
ENDBRANCH   9  14
ENDBRANCH   2   3
TORSDOF 14
ENDMDL
MODEL      163
REMARK 921   NORMALIZED FREE ENERGY PREDICTED BY IDOCK:   -3.87 KCAL/MOL
REMARK 922        TOTAL FREE ENERGY PREDICTED BY IDOCK:   -8.86 KCAL/MOL
REMARK 923 INTER-LIGAND FREE ENERGY PREDICTED BY IDOCK:   -6.62 KCAL/MOL
REMARK 924 INTRA-LIGAND FREE ENERGY PREDICTED BY IDOCK:   -2.24 KCAL/MOL
REMARK 927      BINDING AFFINITY PREDICTED BY RF-SCORE:    0.00 PKD
ROOT
HETATM    1  C   UNL     1     -11.774  15.580  68.594  1.00  0.00    -0.348 C  
HETATM    2  O   UNL     1     -11.057  15.370  67.384  1.00  0.00    -0.321 OA 
ENDROOT
BRANCH   2   3
HETATM    3  C   UNL     1     -10.686  14.058  67.097  1.00  0.00    -0.283 C  
HETATM    4  C   UNL     1     -11.425  13.365  66.211  1.00  0.00    -0.325 C  
HETATM    5  C   UNL     1     -11.051  11.949  65.914  1.00  0.00    -0.316 C  
HETATM    6  O   UNL     1      -8.641  14.026  68.356  1.00  0.00    -0.170 OA 
HETATM    7  O   UNL     1     -11.393  11.364  64.892  1.00  0.00    -0.176 OA 
HETATM    8  C   UNL     1      -9.526  13.398  67.786  1.00  0.00    -0.210 C  
HETATM    9  C   UNL     1     -10.262  11.226  66.951  1.00  0.00    -0.254 C  
HETATM   10  C   UNL     1      -8.601  11.311  68.857  1.00  0.00    -0.056 C  
HETATM   11  C   UNL     1      -9.507  11.915  67.821  1.00  0.00    -0.184 C  
BRANCH   4  12
HETATM   12  O   UNL     1     -12.503  14.003  65.600  1.00  0.00    -0.459 OA 
HETATM   13  C   UNL     1     -12.314  14.560  64.305  1.00  0.00    -0.369 C  
ENDBRANCH   4  12
BRANCH   9  14
HETATM   14  C   UNL     1     -10.403   9.735  66.941  1.00  0.00    -0.301 C  
BRANCH  14  15
HETATM   15  C   UNL     1      -9.335   9.039  66.094  1.00  0.00    -0.294 C  
BRANCH  15  16
HETATM   16  C   UNL     1      -8.675   7.887  66.850  1.00  0.00    -0.136 C  
BRANCH  16  17
HETATM   17  C   UNL     1      -7.215   8.190  67.164  1.00  0.00    -0.084 C  
BRANCH  17  18
HETATM   18  C   UNL     1      -6.918   8.103  68.649  1.00  0.00    -0.068 C  
BRANCH  18  19
HETATM   19  C   UNL     1      -7.723   6.958  69.250  1.00  0.00    -0.105 C  
BRANCH  19  20
HETATM   20  C   UNL     1      -7.852   7.130  70.752  1.00  0.00    -0.095 C  
BRANCH  20  21
HETATM   21  C   UNL     1      -8.432   8.496  71.084  1.00  0.00    -0.191 C  
BRANCH  21  22
HETATM   22  C   UNL     1      -9.554   8.351  72.102  1.00  0.00    -0.367 C  
BRANCH  22  23
HETATM   23  C   UNL     1     -10.810   9.074  71.632  1.00  0.00    -0.437 C  
BRANCH  23  24
HETATM   24  C   UNL     1     -11.246   8.557  70.268  1.00  0.00    -0.185 C  
BRANCH  24  25
HETATM   25  C   UNL     1     -11.629   7.088  70.335  1.00  0.00    -0.295 C  
HETATM   26  O   UNL     1     -11.413   6.480  69.070  1.00  0.00    -0.587 OA 
HETATM   27  H   UNL     1     -11.652   5.561  69.112  1.00  0.00     0.000 HD 
ENDBRANCH  24  25
ENDBRANCH  23  24
ENDBRANCH  22  23
ENDBRANCH  21  22
ENDBRANCH  20  21
ENDBRANCH  19  20
ENDBRANCH  18  19
ENDBRANCH  17  18
ENDBRANCH  16  17
ENDBRANCH  15  16
ENDBRANCH  14  15
ENDBRANCH   9  14
ENDBRANCH   2   3
TORSDOF 14
ENDMDL
MODEL      164
REMARK 921   NORMALIZED FREE ENERGY PREDICTED BY IDOCK:   -3.87 KCAL/MOL
REMARK 922        TOTAL FREE ENERGY PREDICTED BY IDOCK:   -8.85 KCAL/MOL
REMARK 923 INTER-LIGAND FREE ENERGY PREDICTED BY IDOCK:   -7.15 KCAL/MOL
REMARK 924 INTRA-LIGAND FREE ENERGY PREDICTED BY IDOCK:   -1.71 KCAL/MOL
REMARK 927      BINDING AFFINITY PREDICTED BY RF-SCORE:    0.00 PKD
ROOT
HETATM    1  C   UNL     1      -8.119  10.656  63.757  1.00  0.00     0.044 C  
HETATM    2  O   UNL     1      -9.338  10.684  64.488  1.00  0.00    -0.206 OA 
ENDROOT
BRANCH   2   3
HETATM    3  C   UNL     1      -9.619  11.855  65.190  1.00  0.00    -0.114 C  
HETATM    4  C   UNL     1     -10.516  12.712  64.671  1.00  0.00    -0.337 C  
HETATM    5  C   UNL     1     -10.806  13.982  65.403  1.00  0.00    -0.328 C  
HETATM    6  O   UNL     1      -8.327  11.359  67.154  1.00  0.00    -0.143 OA 
HETATM    7  O   UNL     1     -11.834  14.631  65.241  1.00  0.00    -0.355 OA 
HETATM    8  C   UNL     1      -8.911  12.193  66.471  1.00  0.00    -0.179 C  
HETATM    9  C   UNL     1      -9.756  14.479  66.337  1.00  0.00    -0.314 C  
HETATM   10  C   UNL     1      -7.825  13.974  67.889  1.00  0.00    -0.161 C  
HETATM   11  C   UNL     1      -8.875  13.621  66.874  1.00  0.00    -0.201 C  
BRANCH   4  12
HETATM   12  O   UNL     1     -11.145  12.373  63.473  1.00  0.00    -0.435 OA 
HETATM   13  C   UNL     1     -12.505  11.960  63.517  1.00  0.00    -0.492 C  
ENDBRANCH   4  12
BRANCH   9  14
HETATM   14  C   UNL     1      -9.769  15.955  66.587  1.00  0.00    -0.270 C  
BRANCH  14  15
HETATM   15  C   UNL     1     -10.836  16.382  67.597  1.00  0.00    -0.280 C  
BRANCH  15  16
HETATM   16  C   UNL     1     -10.368  16.175  69.037  1.00  0.00    -0.258 C  
BRANCH  16  17
HETATM   17  C   UNL     1     -11.416  15.439  69.864  1.00  0.00    -0.329 C  
BRANCH  17  18
HETATM   18  C   UNL     1     -11.674  14.037  69.344  1.00  0.00    -0.365 C  
BRANCH  18  19
HETATM   19  C   UNL     1     -12.361  13.223  70.433  1.00  0.00    -0.365 C  
BRANCH  19  20
HETATM   20  C   UNL     1     -11.879  11.784  70.404  1.00  0.00    -0.362 C  
BRANCH  20  21
HETATM   21  C   UNL     1     -11.606  11.342  68.974  1.00  0.00    -0.383 C  
BRANCH  21  22
HETATM   22  C   UNL     1     -10.973   9.959  68.970  1.00  0.00    -0.223 C  
BRANCH  22  23
HETATM   23  C   UNL     1     -11.027   9.342  67.578  1.00  0.00    -0.088 C  
BRANCH  23  24
HETATM   24  C   UNL     1     -10.187   8.074  67.522  1.00  0.00    -0.311 C  
BRANCH  24  25
HETATM   25  C   UNL     1     -11.064   6.842  67.366  1.00  0.00    -0.295 C  
HETATM   26  O   UNL     1     -10.481   5.958  66.419  1.00  0.00    -0.395 OA 
HETATM   27  H   UNL     1     -11.029   5.188  66.322  1.00  0.00     0.000 HD 
ENDBRANCH  24  25
ENDBRANCH  23  24
ENDBRANCH  22  23
ENDBRANCH  21  22
ENDBRANCH  20  21
ENDBRANCH  19  20
ENDBRANCH  18  19
ENDBRANCH  17  18
ENDBRANCH  16  17
ENDBRANCH  15  16
ENDBRANCH  14  15
ENDBRANCH   9  14
ENDBRANCH   2   3
TORSDOF 14
ENDMDL
MODEL      165
REMARK 921   NORMALIZED FREE ENERGY PREDICTED BY IDOCK:   -3.87 KCAL/MOL
REMARK 922        TOTAL FREE ENERGY PREDICTED BY IDOCK:   -8.85 KCAL/MOL
REMARK 923 INTER-LIGAND FREE ENERGY PREDICTED BY IDOCK:   -5.94 KCAL/MOL
REMARK 924 INTRA-LIGAND FREE ENERGY PREDICTED BY IDOCK:   -2.91 KCAL/MOL
REMARK 927      BINDING AFFINITY PREDICTED BY RF-SCORE:    0.00 PKD
ROOT
HETATM    1  C   UNL     1     -10.657   5.140  66.415  1.00  0.00    -0.276 C  
HETATM    2  O   UNL     1     -10.872   6.499  66.772  1.00  0.00    -0.323 OA 
ENDROOT
BRANCH   2   3
HETATM    3  C   UNL     1      -9.805   7.164  67.372  1.00  0.00    -0.155 C  
HETATM    4  C   UNL     1      -9.890   7.458  68.681  1.00  0.00    -0.163 C  
HETATM    5  C   UNL     1      -8.762   8.193  69.329  1.00  0.00    -0.140 C  
HETATM    6  O   UNL     1      -8.310   7.120  65.491  1.00  0.00    -0.131 OA 
HETATM    7  O   UNL     1      -8.558   8.181  70.538  1.00  0.00    -0.125 OA 
HETATM    8  C   UNL     1      -8.602   7.598  66.582  1.00  0.00    -0.133 C  
HETATM    9  C   UNL     1      -7.887   9.008  68.440  1.00  0.00    -0.103 C  
HETATM   10  C   UNL     1      -6.877   9.386  66.153  1.00  0.00    -0.085 C  
HETATM   11  C   UNL     1      -7.783   8.703  67.137  1.00  0.00    -0.096 C  
BRANCH   4  12
HETATM   12  O   UNL     1     -11.026   7.054  69.382  1.00  0.00    -0.239 OA 
HETATM   13  C   UNL     1     -10.988   5.811  70.073  1.00  0.00    -0.311 C  
ENDBRANCH   4  12
BRANCH   9  14
HETATM   14  C   UNL     1      -7.188  10.154  69.104  1.00  0.00    -0.081 C  
BRANCH  14  15
HETATM   15  C   UNL     1      -8.001  11.450  69.074  1.00  0.00    -0.026 C  
BRANCH  15  16
HETATM   16  C   UNL     1      -7.362  12.498  68.163  1.00  0.00    -0.110 C  
BRANCH  16  17
HETATM   17  C   UNL     1      -8.172  12.696  66.887  1.00  0.00    -0.048 C  
BRANCH  17  18
HETATM   18  C   UNL     1      -9.666  12.642  67.143  1.00  0.00    -0.211 C  
BRANCH  18  19
HETATM   19  C   UNL     1     -10.256  11.459  66.387  1.00  0.00    -0.270 C  
BRANCH  19  20
HETATM   20  C   UNL     1     -11.138  10.630  67.302  1.00  0.00    -0.313 C  
BRANCH  20  21
HETATM   21  C   UNL     1     -11.652  11.476  68.457  1.00  0.00    -0.377 C  
BRANCH  21  22
HETATM   22  C   UNL     1     -11.554  10.694  69.759  1.00  0.00    -0.385 C  
BRANCH  22  23
HETATM   23  C   UNL     1     -12.261  11.431  70.889  1.00  0.00    -0.447 C  
BRANCH  23  24
HETATM   24  C   UNL     1     -13.167  10.483  71.662  1.00  0.00    -0.493 C  
BRANCH  24  25
HETATM   25  C   UNL     1     -12.577   9.083  71.717  1.00  0.00    -0.367 C  
HETATM   26  O   UNL     1     -13.459   8.168  71.083  1.00  0.00    -0.532 OA 
HETATM   27  H   UNL     1     -13.090   7.293  71.117  1.00  0.00     0.000 HD 
ENDBRANCH  24  25
ENDBRANCH  23  24
ENDBRANCH  22  23
ENDBRANCH  21  22
ENDBRANCH  20  21
ENDBRANCH  19  20
ENDBRANCH  18  19
ENDBRANCH  17  18
ENDBRANCH  16  17
ENDBRANCH  15  16
ENDBRANCH  14  15
ENDBRANCH   9  14
ENDBRANCH   2   3
TORSDOF 14
ENDMDL
MODEL      166
REMARK 921   NORMALIZED FREE ENERGY PREDICTED BY IDOCK:   -3.86 KCAL/MOL
REMARK 922        TOTAL FREE ENERGY PREDICTED BY IDOCK:   -8.84 KCAL/MOL
REMARK 923 INTER-LIGAND FREE ENERGY PREDICTED BY IDOCK:   -5.63 KCAL/MOL
REMARK 924 INTRA-LIGAND FREE ENERGY PREDICTED BY IDOCK:   -3.21 KCAL/MOL
REMARK 927      BINDING AFFINITY PREDICTED BY RF-SCORE:    0.00 PKD
ROOT
HETATM    1  C   UNL     1     -12.379  13.975  65.954  1.00  0.00    -0.486 C  
HETATM    2  O   UNL     1     -11.009  13.718  66.235  1.00  0.00    -0.295 OA 
ENDROOT
BRANCH   2   3
HETATM    3  C   UNL     1     -10.684  12.421  66.627  1.00  0.00    -0.235 C  
HETATM    4  C   UNL     1     -10.241  11.563  65.691  1.00  0.00    -0.248 C  
HETATM    5  C   UNL     1      -9.913  10.162  66.096  1.00  0.00    -0.246 C  
HETATM    6  O   UNL     1     -10.965  12.729  68.993  1.00  0.00    -0.242 OA 
HETATM    7  O   UNL     1      -9.173   9.431  65.447  1.00  0.00    -0.217 OA 
HETATM    8  C   UNL     1     -10.865  11.958  68.045  1.00  0.00    -0.216 C  
HETATM    9  C   UNL     1     -10.569   9.644  67.329  1.00  0.00    -0.315 C  
HETATM   10  C   UNL     1     -11.589  10.107  69.597  1.00  0.00    -0.216 C  
HETATM   11  C   UNL     1     -10.991  10.498  68.275  1.00  0.00    -0.314 C  
BRANCH   4  12
HETATM   12  O   UNL     1     -10.098  12.021  64.382  1.00  0.00    -0.274 OA 
HETATM   13  C   UNL     1     -11.077  11.645  63.422  1.00  0.00    -0.337 C  
ENDBRANCH   4  12
BRANCH   9  14
HETATM   14  C   UNL     1     -10.722   8.156  67.397  1.00  0.00    -0.247 C  
BRANCH  14  15
HETATM   15  C   UNL     1      -9.858   7.514  68.484  1.00  0.00    -0.170 C  
BRANCH  15  16
HETATM   16  C   UNL     1      -8.447   7.211  67.980  1.00  0.00    -0.122 C  
BRANCH  16  17
HETATM   17  C   UNL     1      -7.415   8.129  68.625  1.00  0.00    -0.098 C  
BRANCH  17  18
HETATM   18  C   UNL     1      -7.897   8.690  69.950  1.00  0.00    -0.093 C  
BRANCH  18  19
HETATM   19  C   UNL     1      -7.581  10.179  70.002  1.00  0.00    -0.164 C  
BRANCH  19  20
HETATM   20  C   UNL     1      -7.331  10.718  68.605  1.00  0.00    -0.097 C  
BRANCH  20  21
HETATM   21  C   UNL     1      -6.801  12.143  68.670  1.00  0.00    -0.089 C  
BRANCH  21  22
HETATM   22  C   UNL     1      -7.033  12.845  67.341  1.00  0.00    -0.129 C  
BRANCH  22  23
HETATM   23  C   UNL     1      -7.345  14.320  67.554  1.00  0.00    -0.199 C  
BRANCH  23  24
HETATM   24  C   UNL     1      -8.208  14.510  68.794  1.00  0.00    -0.146 C  
BRANCH  24  25
HETATM   25  C   UNL     1      -9.016  15.795  68.709  1.00  0.00    -0.214 C  
HETATM   26  O   UNL     1     -10.377  15.486  68.444  1.00  0.00    -0.224 OA 
HETATM   27  H   UNL     1     -10.882  16.288  68.391  1.00  0.00     0.000 HD 
ENDBRANCH  24  25
ENDBRANCH  23  24
ENDBRANCH  22  23
ENDBRANCH  21  22
ENDBRANCH  20  21
ENDBRANCH  19  20
ENDBRANCH  18  19
ENDBRANCH  17  18
ENDBRANCH  16  17
ENDBRANCH  15  16
ENDBRANCH  14  15
ENDBRANCH   9  14
ENDBRANCH   2   3
TORSDOF 14
ENDMDL
MODEL      167
REMARK 921   NORMALIZED FREE ENERGY PREDICTED BY IDOCK:   -3.84 KCAL/MOL
REMARK 922        TOTAL FREE ENERGY PREDICTED BY IDOCK:   -8.81 KCAL/MOL
REMARK 923 INTER-LIGAND FREE ENERGY PREDICTED BY IDOCK:   -7.09 KCAL/MOL
REMARK 924 INTRA-LIGAND FREE ENERGY PREDICTED BY IDOCK:   -1.72 KCAL/MOL
REMARK 927      BINDING AFFINITY PREDICTED BY RF-SCORE:    0.00 PKD
ROOT
HETATM    1  C   UNL     1      -8.133   6.466  64.589  1.00  0.00    -0.100 C  
HETATM    2  O   UNL     1      -7.369   7.541  65.121  1.00  0.00    -0.066 OA 
ENDROOT
BRANCH   2   3
HETATM    3  C   UNL     1      -8.081   8.644  65.586  1.00  0.00    -0.110 C  
HETATM    4  C   UNL     1      -8.249   8.783  66.913  1.00  0.00    -0.108 C  
HETATM    5  C   UNL     1      -9.032   9.949  67.422  1.00  0.00    -0.135 C  
HETATM    6  O   UNL     1      -8.351   9.757  63.474  1.00  0.00    -0.142 OA 
HETATM    7  O   UNL     1      -8.933  10.377  68.567  1.00  0.00    -0.127 OA 
HETATM    8  C   UNL     1      -8.700   9.637  64.643  1.00  0.00    -0.201 C  
HETATM    9  C   UNL     1     -10.005  10.572  66.481  1.00  0.00    -0.266 C  
HETATM   10  C   UNL     1     -10.682  11.100  64.102  1.00  0.00    -0.415 C  
HETATM   11  C   UNL     1      -9.828  10.453  65.156  1.00  0.00    -0.378 C  
BRANCH   4  12
HETATM   12  O   UNL     1      -7.673   7.836  67.760  1.00  0.00    -0.116 OA 
HETATM   13  C   UNL     1      -8.526   6.902  68.410  1.00  0.00    -0.123 C  
ENDBRANCH   4  12
BRANCH   9  14
HETATM   14  C   UNL     1     -11.152  11.288  67.125  1.00  0.00    -0.364 C  
BRANCH  14  15
HETATM   15  C   UNL     1     -10.866  12.770  67.377  1.00  0.00    -0.265 C  
BRANCH  15  16
HETATM   16  C   UNL     1     -12.111  13.631  67.160  1.00  0.00    -0.404 C  
BRANCH  16  17
HETATM   17  C   UNL     1     -12.215  14.105  65.715  1.00  0.00    -0.458 C  
BRANCH  17  18
HETATM   18  C   UNL     1     -10.881  14.579  65.170  1.00  0.00    -0.407 C  
BRANCH  18  19
HETATM   19  C   UNL     1     -10.996  16.050  64.790  1.00  0.00    -0.373 C  
BRANCH  19  20
HETATM   20  C   UNL     1     -10.337  16.923  65.843  1.00  0.00    -0.327 C  
BRANCH  20  21
HETATM   21  C   UNL     1      -8.992  16.341  66.252  1.00  0.00    -0.366 C  
BRANCH  21  22
HETATM   22  C   UNL     1      -8.036  17.461  66.635  1.00  0.00    -0.293 C  
BRANCH  22  23
HETATM   23  C   UNL     1      -8.110  17.750  68.128  1.00  0.00    -0.265 C  
BRANCH  23  24
HETATM   24  C   UNL     1      -8.373  19.230  68.374  1.00  0.00    -0.383 C  
BRANCH  24  25
HETATM   25  C   UNL     1      -9.824  19.473  68.753  1.00  0.00    -0.451 C  
HETATM   26  O   UNL     1     -10.426  18.249  69.150  1.00  0.00    -0.445 OA 
HETATM   27  H   UNL     1     -11.333  18.401  69.388  1.00  0.00     0.000 HD 
ENDBRANCH  24  25
ENDBRANCH  23  24
ENDBRANCH  22  23
ENDBRANCH  21  22
ENDBRANCH  20  21
ENDBRANCH  19  20
ENDBRANCH  18  19
ENDBRANCH  17  18
ENDBRANCH  16  17
ENDBRANCH  15  16
ENDBRANCH  14  15
ENDBRANCH   9  14
ENDBRANCH   2   3
TORSDOF 14
ENDMDL
MODEL      168
REMARK 921   NORMALIZED FREE ENERGY PREDICTED BY IDOCK:   -3.84 KCAL/MOL
REMARK 922        TOTAL FREE ENERGY PREDICTED BY IDOCK:   -8.80 KCAL/MOL
REMARK 923 INTER-LIGAND FREE ENERGY PREDICTED BY IDOCK:   -8.21 KCAL/MOL
REMARK 924 INTRA-LIGAND FREE ENERGY PREDICTED BY IDOCK:   -0.59 KCAL/MOL
REMARK 927      BINDING AFFINITY PREDICTED BY RF-SCORE:    0.00 PKD
ROOT
HETATM    1  C   UNL     1     -12.012  15.797  63.902  1.00  0.00     0.351 C  
HETATM    2  O   UNL     1     -10.799  15.972  64.622  1.00  0.00    -0.608 OA 
ENDROOT
BRANCH   2   3
HETATM    3  C   UNL     1     -10.882  15.902  66.012  1.00  0.00    -0.225 C  
HETATM    4  C   UNL     1     -10.449  16.953  66.731  1.00  0.00    -0.260 C  
HETATM    5  C   UNL     1     -10.510  16.879  68.222  1.00  0.00    -0.352 C  
HETATM    6  O   UNL     1     -12.070  13.818  66.152  1.00  0.00    -0.391 OA 
HETATM    7  O   UNL     1     -10.506  17.870  68.944  1.00  0.00    -0.322 OA 
HETATM    8  C   UNL     1     -11.391  14.673  66.710  1.00  0.00    -0.356 C  
HETATM    9  C   UNL     1     -10.531  15.519  68.831  1.00  0.00    -0.223 C  
HETATM   10  C   UNL     1     -11.137  13.072  68.641  1.00  0.00    -0.305 C  
HETATM   11  C   UNL     1     -10.984  14.473  68.122  1.00  0.00    -0.261 C  
BRANCH   4  12
HETATM   12  O   UNL     1      -9.970  18.073  66.051  1.00  0.00    -0.499 OA 
HETATM   13  C   UNL     1     -10.715  19.282  66.131  1.00  0.00    -0.386 C  
ENDBRANCH   4  12
BRANCH   9  14
HETATM   14  C   UNL     1     -10.005  15.436  70.231  1.00  0.00     0.033 C  
BRANCH  14  15
HETATM   15  C   UNL     1     -11.111  15.453  71.288  1.00  0.00    -0.341 C  
BRANCH  15  16
HETATM   16  C   UNL     1     -12.490  15.659  70.660  1.00  0.00    -0.463 C  
BRANCH  16  17
HETATM   17  C   UNL     1     -13.494  14.634  71.173  1.00  0.00    -0.425 C  
BRANCH  17  18
HETATM   18  C   UNL     1     -12.818  13.381  71.695  1.00  0.00    -0.414 C  
BRANCH  18  19
HETATM   19  C   UNL     1     -13.879  12.437  72.245  1.00  0.00    -0.126 C  
BRANCH  19  20
HETATM   20  C   UNL     1     -13.409  10.997  72.152  1.00  0.00    -0.285 C  
BRANCH  20  21
HETATM   21  C   UNL     1     -12.346  10.852  71.073  1.00  0.00    -0.498 C  
BRANCH  21  22
HETATM   22  C   UNL     1     -11.663   9.498  71.196  1.00  0.00    -0.438 C  
BRANCH  22  23
HETATM   23  C   UNL     1     -12.285   8.676  72.317  1.00  0.00    -0.447 C  
BRANCH  23  24
HETATM   24  C   UNL     1     -11.430   7.454  72.622  1.00  0.00    -0.337 C  
BRANCH  24  25
HETATM   25  C   UNL     1      -9.962   7.828  72.745  1.00  0.00    -0.260 C  
HETATM   26  O   UNL     1      -9.574   7.792  74.111  1.00  0.00    -0.370 OA 
HETATM   27  H   UNL     1      -8.656   8.026  74.188  1.00  0.00     0.000 HD 
ENDBRANCH  24  25
ENDBRANCH  23  24
ENDBRANCH  22  23
ENDBRANCH  21  22
ENDBRANCH  20  21
ENDBRANCH  19  20
ENDBRANCH  18  19
ENDBRANCH  17  18
ENDBRANCH  16  17
ENDBRANCH  15  16
ENDBRANCH  14  15
ENDBRANCH   9  14
ENDBRANCH   2   3
TORSDOF 14
ENDMDL
MODEL      169
REMARK 921   NORMALIZED FREE ENERGY PREDICTED BY IDOCK:   -3.84 KCAL/MOL
REMARK 922        TOTAL FREE ENERGY PREDICTED BY IDOCK:   -8.80 KCAL/MOL
REMARK 923 INTER-LIGAND FREE ENERGY PREDICTED BY IDOCK:   -7.40 KCAL/MOL
REMARK 924 INTRA-LIGAND FREE ENERGY PREDICTED BY IDOCK:   -1.40 KCAL/MOL
REMARK 927      BINDING AFFINITY PREDICTED BY RF-SCORE:    0.00 PKD
ROOT
HETATM    1  C   UNL     1     -11.661   9.176  71.609  1.00  0.00    -0.378 C  
HETATM    2  O   UNL     1     -10.602   8.231  71.682  1.00  0.00    -0.216 OA 
ENDROOT
BRANCH   2   3
HETATM    3  C   UNL     1      -9.972   7.904  70.482  1.00  0.00    -0.191 C  
HETATM    4  C   UNL     1      -8.777   8.460  70.216  1.00  0.00    -0.140 C  
HETATM    5  C   UNL     1      -8.104   8.136  68.922  1.00  0.00    -0.116 C  
HETATM    6  O   UNL     1     -11.532   6.226  69.756  1.00  0.00    -0.430 OA 
HETATM    7  O   UNL     1      -6.899   8.267  68.740  1.00  0.00    -0.059 OA 
HETATM    8  C   UNL     1     -10.619   6.995  69.476  1.00  0.00    -0.234 C  
HETATM    9  C   UNL     1      -8.975   7.674  67.804  1.00  0.00    -0.131 C  
HETATM   10  C   UNL     1     -11.091   6.515  67.046  1.00  0.00    -0.411 C  
HETATM   11  C   UNL     1     -10.158   7.098  68.069  1.00  0.00    -0.201 C  
BRANCH   4  12
HETATM   12  O   UNL     1      -8.211   9.310  71.166  1.00  0.00    -0.298 OA 
HETATM   13  C   UNL     1      -7.226   8.781  72.045  1.00  0.00     0.014 C  
ENDBRANCH   4  12
BRANCH   9  14
HETATM   14  C   UNL     1      -8.438   7.922  66.429  1.00  0.00    -0.139 C  
BRANCH  14  15
HETATM   15  C   UNL     1      -9.241   8.968  65.653  1.00  0.00    -0.288 C  
BRANCH  15  16
HETATM   16  C   UNL     1      -9.201  10.334  66.338  1.00  0.00    -0.186 C  
BRANCH  16  17
HETATM   17  C   UNL     1     -10.255  11.275  65.766  1.00  0.00    -0.301 C  
BRANCH  17  18
HETATM   18  C   UNL     1     -10.256  11.281  64.249  1.00  0.00    -0.383 C  
BRANCH  18  19
HETATM   19  C   UNL     1     -11.149  12.413  63.758  1.00  0.00    -0.506 C  
BRANCH  19  20
HETATM   20  C   UNL     1     -12.512  12.340  64.421  1.00  0.00    -0.484 C  
BRANCH  20  21
HETATM   21  C   UNL     1     -12.775  13.595  65.240  1.00  0.00    -0.478 C  
BRANCH  21  22
HETATM   22  C   UNL     1     -11.658  14.604  65.018  1.00  0.00    -0.385 C  
BRANCH  22  23
HETATM   23  C   UNL     1     -11.068  15.061  66.346  1.00  0.00    -0.329 C  
BRANCH  23  24
HETATM   24  C   UNL     1     -11.685  14.285  67.501  1.00  0.00    -0.415 C  
BRANCH  24  25
HETATM   25  C   UNL     1     -11.783  15.146  68.750  1.00  0.00    -0.342 C  
HETATM   26  O   UNL     1     -11.297  16.451  68.470  1.00  0.00    -0.371 OA 
HETATM   27  H   UNL     1     -11.359  16.989  69.250  1.00  0.00     0.000 HD 
ENDBRANCH  24  25
ENDBRANCH  23  24
ENDBRANCH  22  23
ENDBRANCH  21  22
ENDBRANCH  20  21
ENDBRANCH  19  20
ENDBRANCH  18  19
ENDBRANCH  17  18
ENDBRANCH  16  17
ENDBRANCH  15  16
ENDBRANCH  14  15
ENDBRANCH   9  14
ENDBRANCH   2   3
TORSDOF 14
ENDMDL
MODEL      170
REMARK 921   NORMALIZED FREE ENERGY PREDICTED BY IDOCK:   -3.83 KCAL/MOL
REMARK 922        TOTAL FREE ENERGY PREDICTED BY IDOCK:   -8.79 KCAL/MOL
REMARK 923 INTER-LIGAND FREE ENERGY PREDICTED BY IDOCK:   -6.71 KCAL/MOL
REMARK 924 INTRA-LIGAND FREE ENERGY PREDICTED BY IDOCK:   -2.08 KCAL/MOL
REMARK 927      BINDING AFFINITY PREDICTED BY RF-SCORE:    0.00 PKD
ROOT
HETATM    1  C   UNL     1     -11.063  11.032  67.184  1.00  0.00    -0.267 C  
HETATM    2  O   UNL     1     -10.309  11.490  68.298  1.00  0.00    -0.183 OA 
ENDROOT
BRANCH   2   3
HETATM    3  C   UNL     1     -10.476  10.795  69.495  1.00  0.00    -0.170 C  
HETATM    4  C   UNL     1      -9.530   9.911  69.857  1.00  0.00    -0.220 C  
HETATM    5  C   UNL     1      -9.712   9.142  71.126  1.00  0.00    -0.290 C  
HETATM    6  O   UNL     1     -12.441  11.950  70.256  1.00  0.00    -0.217 OA 
HETATM    7  O   UNL     1      -8.785   8.616  71.732  1.00  0.00    -0.184 OA 
HETATM    8  C   UNL     1     -11.701  10.977  70.346  1.00  0.00    -0.343 C  
HETATM    9  C   UNL     1     -11.106   8.988  71.629  1.00  0.00    -0.433 C  
HETATM   10  C   UNL     1     -13.462   9.892  71.788  1.00  0.00    -0.444 C  
HETATM   11  C   UNL     1     -12.046   9.882  71.286  1.00  0.00    -0.485 C  
BRANCH   4  12
HETATM   12  O   UNL     1      -8.413   9.757  69.038  1.00  0.00    -0.122 OA 
HETATM   13  C   UNL     1      -7.296  10.613  69.249  1.00  0.00    -0.119 C  
ENDBRANCH   4  12
BRANCH   9  14
HETATM   14  C   UNL     1     -11.347   7.788  72.492  1.00  0.00    -0.429 C  
BRANCH  14  15
HETATM   15  C   UNL     1     -11.773   6.553  71.696  1.00  0.00    -0.374 C  
BRANCH  15  16
HETATM   16  C   UNL     1     -10.596   5.614  71.435  1.00  0.00    -0.317 C  
BRANCH  16  17
HETATM   17  C   UNL     1     -10.411   5.351  69.945  1.00  0.00    -0.378 C  
BRANCH  17  18
HETATM   18  C   UNL     1     -11.211   6.316  69.091  1.00  0.00    -0.439 C  
BRANCH  18  19
HETATM   19  C   UNL     1     -10.331   6.814  67.950  1.00  0.00    -0.236 C  
BRANCH  19  20
HETATM   20  C   UNL     1      -8.893   6.379  68.161  1.00  0.00    -0.114 C  
BRANCH  20  21
HETATM   21  C   UNL     1      -7.997   6.954  67.074  1.00  0.00    -0.116 C  
BRANCH  21  22
HETATM   22  C   UNL     1      -8.838   7.697  66.047  1.00  0.00    -0.186 C  
BRANCH  22  23
HETATM   23  C   UNL     1      -8.081   7.851  64.734  1.00  0.00    -0.141 C  
BRANCH  23  24
HETATM   24  C   UNL     1      -6.747   8.547  64.965  1.00  0.00    -0.064 C  
BRANCH  24  25
HETATM   25  C   UNL     1      -6.805  10.002  64.531  1.00  0.00    -0.127 C  
HETATM   26  O   UNL     1      -7.633  10.733  65.424  1.00  0.00    -0.313 OA 
HETATM   27  H   UNL     1      -7.669  11.643  65.153  1.00  0.00     0.000 HD 
ENDBRANCH  24  25
ENDBRANCH  23  24
ENDBRANCH  22  23
ENDBRANCH  21  22
ENDBRANCH  20  21
ENDBRANCH  19  20
ENDBRANCH  18  19
ENDBRANCH  17  18
ENDBRANCH  16  17
ENDBRANCH  15  16
ENDBRANCH  14  15
ENDBRANCH   9  14
ENDBRANCH   2   3
TORSDOF 14
ENDMDL
MODEL      171
REMARK 921   NORMALIZED FREE ENERGY PREDICTED BY IDOCK:   -3.82 KCAL/MOL
REMARK 922        TOTAL FREE ENERGY PREDICTED BY IDOCK:   -8.77 KCAL/MOL
REMARK 923 INTER-LIGAND FREE ENERGY PREDICTED BY IDOCK:   -7.71 KCAL/MOL
REMARK 924 INTRA-LIGAND FREE ENERGY PREDICTED BY IDOCK:   -1.07 KCAL/MOL
REMARK 927      BINDING AFFINITY PREDICTED BY RF-SCORE:    0.00 PKD
ROOT
HETATM    1  C   UNL     1     -12.056  14.881  64.948  1.00  0.00    -0.274 C  
HETATM    2  O   UNL     1     -12.680  13.743  65.528  1.00  0.00    -0.515 OA 
ENDROOT
BRANCH   2   3
HETATM    3  C   UNL     1     -11.965  12.548  65.483  1.00  0.00    -0.442 C  
HETATM    4  C   UNL     1     -11.672  11.936  66.645  1.00  0.00    -0.186 C  
HETATM    5  C   UNL     1     -10.884  10.666  66.610  1.00  0.00    -0.131 C  
HETATM    6  O   UNL     1     -11.947  12.281  63.096  1.00  0.00    -0.406 OA 
HETATM    7  O   UNL     1     -10.884   9.851  67.526  1.00  0.00    -0.279 OA 
HETATM    8  C   UNL     1     -11.480  11.968  64.185  1.00  0.00    -0.383 C  
HETATM    9  C   UNL     1     -10.033  10.431  65.410  1.00  0.00    -0.362 C  
HETATM   10  C   UNL     1      -9.616  10.807  62.944  1.00  0.00    -0.366 C  
HETATM   11  C   UNL     1     -10.337  11.024  64.245  1.00  0.00    -0.430 C  
BRANCH   4  12
HETATM   12  O   UNL     1     -12.126  12.508  67.832  1.00  0.00    -0.384 OA 
HETATM   13  C   UNL     1     -11.662  11.968  69.064  1.00  0.00    -0.325 C  
ENDBRANCH   4  12
BRANCH   9  14
HETATM   14  C   UNL     1      -8.855   9.532  65.626  1.00  0.00    -0.194 C  
BRANCH  14  15
HETATM   15  C   UNL     1      -7.525  10.288  65.667  1.00  0.00    -0.149 C  
BRANCH  15  16
HETATM   16  C   UNL     1      -7.215  10.813  67.069  1.00  0.00    -0.109 C  
BRANCH  16  17
HETATM   17  C   UNL     1      -7.213  12.336  67.106  1.00  0.00    -0.100 C  
BRANCH  17  18
HETATM   18  C   UNL     1      -8.228  12.886  68.089  1.00  0.00    -0.163 C  
BRANCH  18  19
HETATM   19  C   UNL     1      -7.857  14.322  68.435  1.00  0.00    -0.140 C  
BRANCH  19  20
HETATM   20  C   UNL     1      -8.320  15.268  67.342  1.00  0.00    -0.202 C  
BRANCH  20  21
HETATM   21  C   UNL     1      -9.338  16.258  67.889  1.00  0.00    -0.209 C  
BRANCH  21  22
HETATM   22  C   UNL     1     -10.678  15.567  68.091  1.00  0.00    -0.282 C  
BRANCH  22  23
HETATM   23  C   UNL     1     -11.424  16.165  69.276  1.00  0.00    -0.304 C  
BRANCH  23  24
HETATM   24  C   UNL     1     -11.025  15.465  70.568  1.00  0.00    -0.350 C  
BRANCH  24  25
HETATM   25  C   UNL     1     -12.218  14.776  71.210  1.00  0.00    -0.333 C  
HETATM   26  O   UNL     1     -13.421  15.302  70.669  1.00  0.00    -0.690 OA 
HETATM   27  H   UNL     1     -14.167  14.871  71.069  1.00  0.00     0.000 HD 
ENDBRANCH  24  25
ENDBRANCH  23  24
ENDBRANCH  22  23
ENDBRANCH  21  22
ENDBRANCH  20  21
ENDBRANCH  19  20
ENDBRANCH  18  19
ENDBRANCH  17  18
ENDBRANCH  16  17
ENDBRANCH  15  16
ENDBRANCH  14  15
ENDBRANCH   9  14
ENDBRANCH   2   3
TORSDOF 14
ENDMDL
MODEL      172
REMARK 921   NORMALIZED FREE ENERGY PREDICTED BY IDOCK:   -3.82 KCAL/MOL
REMARK 922        TOTAL FREE ENERGY PREDICTED BY IDOCK:   -8.77 KCAL/MOL
REMARK 923 INTER-LIGAND FREE ENERGY PREDICTED BY IDOCK:   -7.03 KCAL/MOL
REMARK 924 INTRA-LIGAND FREE ENERGY PREDICTED BY IDOCK:   -1.74 KCAL/MOL
REMARK 927      BINDING AFFINITY PREDICTED BY RF-SCORE:    0.00 PKD
ROOT
HETATM    1  C   UNL     1     -11.824  13.977  69.338  1.00  0.00    -0.333 C  
HETATM    2  O   UNL     1     -12.255  12.677  68.958  1.00  0.00    -0.185 OA 
ENDROOT
BRANCH   2   3
HETATM    3  C   UNL     1     -11.710  11.606  69.663  1.00  0.00    -0.350 C  
HETATM    4  C   UNL     1     -10.620  10.999  69.159  1.00  0.00    -0.219 C  
HETATM    5  C   UNL     1     -10.041   9.834  69.894  1.00  0.00    -0.251 C  
HETATM    6  O   UNL     1     -13.122  11.753  71.601  1.00  0.00    -0.441 OA 
HETATM    7  O   UNL     1      -8.883   9.457  69.751  1.00  0.00    -0.152 OA 
HETATM    8  C   UNL     1     -12.338  11.093  70.928  1.00  0.00    -0.399 C  
HETATM    9  C   UNL     1     -10.955   9.086  70.804  1.00  0.00    -0.315 C  
HETATM   10  C   UNL     1     -12.982   9.090  72.316  1.00  0.00    -0.490 C  
HETATM   11  C   UNL     1     -12.031   9.697  71.325  1.00  0.00    -0.462 C  
BRANCH   4  12
HETATM   12  O   UNL     1     -10.070  11.491  67.976  1.00  0.00    -0.177 OA 
HETATM   13  C   UNL     1     -10.736  11.210  66.752  1.00  0.00    -0.276 C  
ENDBRANCH   4  12
BRANCH   9  14
HETATM   14  C   UNL     1     -10.586   7.656  71.050  1.00  0.00    -0.226 C  
BRANCH  14  15
HETATM   15  C   UNL     1     -11.401   6.674  70.206  1.00  0.00    -0.431 C  
BRANCH  15  16
HETATM   16  C   UNL     1     -10.604   6.163  69.006  1.00  0.00    -0.341 C  
BRANCH  16  17
HETATM   17  C   UNL     1     -11.248   6.584  67.690  1.00  0.00    -0.274 C  
BRANCH  17  18
HETATM   18  C   UNL     1     -10.515   7.742  67.039  1.00  0.00    -0.419 C  
BRANCH  18  19
HETATM   19  C   UNL     1      -9.216   7.229  66.431  1.00  0.00    -0.201 C  
BRANCH  19  20
HETATM   20  C   UNL     1      -8.530   8.328  65.640  1.00  0.00    -0.173 C  
BRANCH  20  21
HETATM   21  C   UNL     1      -7.372   8.913  66.435  1.00  0.00    -0.088 C  
BRANCH  21  22
HETATM   22  C   UNL     1      -7.255  10.405  66.161  1.00  0.00    -0.131 C  
BRANCH  22  23
HETATM   23  C   UNL     1      -6.168  11.032  67.024  1.00  0.00    -0.084 C  
BRANCH  23  24
HETATM   24  C   UNL     1      -6.738  12.169  67.860  1.00  0.00    -0.085 C  
BRANCH  24  25
HETATM   25  C   UNL     1      -6.054  12.251  69.215  1.00  0.00    -0.094 C  
HETATM   26  O   UNL     1      -6.876  11.645  70.202  1.00  0.00    -0.436 OA 
HETATM   27  H   UNL     1      -6.449  11.696  71.049  1.00  0.00     0.000 HD 
ENDBRANCH  24  25
ENDBRANCH  23  24
ENDBRANCH  22  23
ENDBRANCH  21  22
ENDBRANCH  20  21
ENDBRANCH  19  20
ENDBRANCH  18  19
ENDBRANCH  17  18
ENDBRANCH  16  17
ENDBRANCH  15  16
ENDBRANCH  14  15
ENDBRANCH   9  14
ENDBRANCH   2   3
TORSDOF 14
ENDMDL
MODEL      173
REMARK 921   NORMALIZED FREE ENERGY PREDICTED BY IDOCK:   -3.82 KCAL/MOL
REMARK 922        TOTAL FREE ENERGY PREDICTED BY IDOCK:   -8.76 KCAL/MOL
REMARK 923 INTER-LIGAND FREE ENERGY PREDICTED BY IDOCK:   -6.73 KCAL/MOL
REMARK 924 INTRA-LIGAND FREE ENERGY PREDICTED BY IDOCK:   -2.03 KCAL/MOL
REMARK 927      BINDING AFFINITY PREDICTED BY RF-SCORE:    0.00 PKD
ROOT
HETATM    1  C   UNL     1      -8.116   7.494  67.735  1.00  0.00    -0.119 C  
HETATM    2  O   UNL     1      -8.462   8.655  68.479  1.00  0.00    -0.128 OA 
ENDROOT
BRANCH   2   3
HETATM    3  C   UNL     1      -8.516   9.856  67.774  1.00  0.00    -0.118 C  
HETATM    4  C   UNL     1      -7.506  10.732  67.926  1.00  0.00    -0.090 C  
HETATM    5  C   UNL     1      -7.566  12.033  67.195  1.00  0.00    -0.146 C  
HETATM    6  O   UNL     1     -10.479   9.370  66.477  1.00  0.00    -0.215 OA 
HETATM    7  O   UNL     1      -6.577  12.717  66.958  1.00  0.00    -0.140 OA 
HETATM    8  C   UNL     1      -9.689  10.205  66.903  1.00  0.00    -0.187 C  
HETATM    9  C   UNL     1      -8.915  12.517  66.785  1.00  0.00    -0.198 C  
HETATM   10  C   UNL     1     -11.297  11.984  66.122  1.00  0.00    -0.407 C  
HETATM   11  C   UNL     1      -9.918  11.642  66.612  1.00  0.00    -0.230 C  
BRANCH   4  12
HETATM   12  O   UNL     1      -6.440  10.381  68.753  1.00  0.00    -0.050 OA 
HETATM   13  C   UNL     1      -6.347  10.993  70.033  1.00  0.00    -0.146 C  
ENDBRANCH   4  12
BRANCH   9  14
HETATM   14  C   UNL     1      -9.040  14.000  66.616  1.00  0.00    -0.221 C  
BRANCH  14  15
HETATM   15  C   UNL     1      -9.553  14.704  67.874  1.00  0.00    -0.212 C  
BRANCH  15  16
HETATM   16  C   UNL     1     -10.933  15.322  67.653  1.00  0.00    -0.311 C  
BRANCH  16  17
HETATM   17  C   UNL     1     -12.013  14.561  68.413  1.00  0.00    -0.309 C  
BRANCH  17  18
HETATM   18  C   UNL     1     -11.476  13.914  69.676  1.00  0.00    -0.310 C  
BRANCH  18  19
HETATM   19  C   UNL     1     -12.014  12.493  69.772  1.00  0.00    -0.359 C  
BRANCH  19  20
HETATM   20  C   UNL     1     -12.551  12.221  71.165  1.00  0.00    -0.353 C  
BRANCH  20  21
HETATM   21  C   UNL     1     -12.467  10.737  71.489  1.00  0.00    -0.447 C  
BRANCH  21  22
HETATM   22  C   UNL     1     -11.540  10.041  70.504  1.00  0.00    -0.403 C  
BRANCH  22  23
HETATM   23  C   UNL     1     -10.651   9.030  71.218  1.00  0.00    -0.378 C  
BRANCH  23  24
HETATM   24  C   UNL     1     -11.451   8.253  72.254  1.00  0.00    -0.452 C  
BRANCH  24  25
HETATM   25  C   UNL     1     -11.626   6.802  71.836  1.00  0.00    -0.292 C  
HETATM   26  O   UNL     1     -12.042   6.743  70.479  1.00  0.00    -0.514 OA 
HETATM   27  H   UNL     1     -12.151   5.836  70.217  1.00  0.00     0.000 HD 
ENDBRANCH  24  25
ENDBRANCH  23  24
ENDBRANCH  22  23
ENDBRANCH  21  22
ENDBRANCH  20  21
ENDBRANCH  19  20
ENDBRANCH  18  19
ENDBRANCH  17  18
ENDBRANCH  16  17
ENDBRANCH  15  16
ENDBRANCH  14  15
ENDBRANCH   9  14
ENDBRANCH   2   3
TORSDOF 14
ENDMDL
MODEL      174
REMARK 921   NORMALIZED FREE ENERGY PREDICTED BY IDOCK:   -3.82 KCAL/MOL
REMARK 922        TOTAL FREE ENERGY PREDICTED BY IDOCK:   -8.76 KCAL/MOL
REMARK 923 INTER-LIGAND FREE ENERGY PREDICTED BY IDOCK:   -6.95 KCAL/MOL
REMARK 924 INTRA-LIGAND FREE ENERGY PREDICTED BY IDOCK:   -1.82 KCAL/MOL
REMARK 927      BINDING AFFINITY PREDICTED BY RF-SCORE:    0.00 PKD
ROOT
HETATM    1  C   UNL     1     -10.549  11.203  63.835  1.00  0.00    -0.364 C  
HETATM    2  O   UNL     1      -9.627  11.445  64.890  1.00  0.00    -0.233 OA 
ENDROOT
BRANCH   2   3
HETATM    3  C   UNL     1      -9.182  10.330  65.598  1.00  0.00    -0.184 C  
HETATM    4  C   UNL     1      -7.954   9.851  65.330  1.00  0.00    -0.137 C  
HETATM    5  C   UNL     1      -7.476   8.642  66.065  1.00  0.00    -0.085 C  
HETATM    6  O   UNL     1     -11.035  10.163  67.118  1.00  0.00    -0.235 OA 
HETATM    7  O   UNL     1      -6.290   8.353  66.184  1.00  0.00    -0.048 OA 
HETATM    8  C   UNL     1     -10.056   9.635  66.603  1.00  0.00    -0.239 C  
HETATM    9  C   UNL     1      -8.518   7.740  66.633  1.00  0.00    -0.129 C  
HETATM   10  C   UNL     1     -10.847   7.446  67.573  1.00  0.00    -0.257 C  
HETATM   11  C   UNL     1      -9.737   8.221  66.922  1.00  0.00    -0.291 C  
BRANCH   4  12
HETATM   12  O   UNL     1      -7.174  10.513  64.381  1.00  0.00    -0.045 OA 
HETATM   13  C   UNL     1      -7.059   9.943  63.083  1.00  0.00    -0.126 C  
ENDBRANCH   4  12
BRANCH   9  14
HETATM   14  C   UNL     1      -8.099   6.314  66.819  1.00  0.00    -0.109 C  
BRANCH  14  15
HETATM   15  C   UNL     1      -7.573   6.024  68.226  1.00  0.00    -0.091 C  
BRANCH  15  16
HETATM   16  C   UNL     1      -8.002   4.641  68.716  1.00  0.00    -0.079 C  
BRANCH  16  17
HETATM   17  C   UNL     1      -9.457   4.637  69.169  1.00  0.00    -0.224 C  
BRANCH  17  18
HETATM   18  C   UNL     1      -9.627   4.016  70.543  1.00  0.00    -0.261 C  
BRANCH  18  19
HETATM   19  C   UNL     1      -9.884   5.121  71.559  1.00  0.00    -0.234 C  
BRANCH  19  20
HETATM   20  C   UNL     1     -10.484   6.338  70.878  1.00  0.00    -0.274 C  
BRANCH  20  21
HETATM   21  C   UNL     1      -9.806   7.610  71.367  1.00  0.00    -0.195 C  
BRANCH  21  22
HETATM   22  C   UNL     1     -10.816   8.496  72.081  1.00  0.00    -0.427 C  
BRANCH  22  23
HETATM   23  C   UNL     1     -11.468   9.468  71.106  1.00  0.00    -0.430 C  
BRANCH  23  24
HETATM   24  C   UNL     1     -12.767  10.013  71.684  1.00  0.00    -0.535 C  
BRANCH  24  25
HETATM   25  C   UNL     1     -13.758   8.893  71.959  1.00  0.00    -0.459 C  
HETATM   26  O   UNL     1     -14.118   8.901  73.333  1.00  0.00    -1.256 OA 
HETATM   27  H   UNL     1     -14.737   8.201  73.505  1.00  0.00     0.000 HD 
ENDBRANCH  24  25
ENDBRANCH  23  24
ENDBRANCH  22  23
ENDBRANCH  21  22
ENDBRANCH  20  21
ENDBRANCH  19  20
ENDBRANCH  18  19
ENDBRANCH  17  18
ENDBRANCH  16  17
ENDBRANCH  15  16
ENDBRANCH  14  15
ENDBRANCH   9  14
ENDBRANCH   2   3
TORSDOF 14
ENDMDL
MODEL      175
REMARK 921   NORMALIZED FREE ENERGY PREDICTED BY IDOCK:   -3.81 KCAL/MOL
REMARK 922        TOTAL FREE ENERGY PREDICTED BY IDOCK:   -8.75 KCAL/MOL
REMARK 923 INTER-LIGAND FREE ENERGY PREDICTED BY IDOCK:   -7.25 KCAL/MOL
REMARK 924 INTRA-LIGAND FREE ENERGY PREDICTED BY IDOCK:   -1.50 KCAL/MOL
REMARK 927      BINDING AFFINITY PREDICTED BY RF-SCORE:    0.00 PKD
ROOT
HETATM    1  C   UNL     1      -9.053   5.526  69.057  1.00  0.00    -0.114 C  
HETATM    2  O   UNL     1      -8.419   6.782  68.853  1.00  0.00    -0.120 OA 
ENDROOT
BRANCH   2   3
HETATM    3  C   UNL     1      -9.226   7.821  68.391  1.00  0.00    -0.137 C  
HETATM    4  C   UNL     1      -9.050   8.252  67.129  1.00  0.00    -0.139 C  
HETATM    5  C   UNL     1      -9.891   9.382  66.631  1.00  0.00    -0.245 C  
HETATM    6  O   UNL     1     -10.665   7.979  70.308  1.00  0.00    -0.231 OA 
HETATM    7  O   UNL     1     -10.086   9.601  65.440  1.00  0.00    -0.272 OA 
HETATM    8  C   UNL     1     -10.235   8.490  69.280  1.00  0.00    -0.208 C  
HETATM    9  C   UNL     1     -10.472  10.296  67.655  1.00  0.00    -0.285 C  
HETATM   10  C   UNL     1     -11.320  10.645  70.012  1.00  0.00    -0.400 C  
HETATM   11  C   UNL     1     -10.668   9.859  68.909  1.00  0.00    -0.244 C  
BRANCH   4  12
HETATM   12  O   UNL     1      -8.095   7.618  66.335  1.00  0.00    -0.106 OA 
HETATM   13  C   UNL     1      -6.895   8.319  66.030  1.00  0.00    -0.064 C  
ENDBRANCH   4  12
BRANCH   9  14
HETATM   14  C   UNL     1     -10.778  11.682  67.178  1.00  0.00    -0.288 C  
BRANCH  14  15
HETATM   15  C   UNL     1      -9.539  12.577  67.106  1.00  0.00    -0.208 C  
BRANCH  15  16
HETATM   16  C   UNL     1      -9.447  13.515  68.309  1.00  0.00    -0.212 C  
BRANCH  16  17
HETATM   17  C   UNL     1      -9.044  14.923  67.888  1.00  0.00    -0.182 C  
BRANCH  17  18
HETATM   18  C   UNL     1      -9.966  15.980  68.465  1.00  0.00    -0.222 C  
BRANCH  18  19
HETATM   19  C   UNL     1     -11.410  15.529  68.286  1.00  0.00    -0.360 C  
BRANCH  19  20
HETATM   20  C   UNL     1     -12.122  15.482  69.626  1.00  0.00    -0.352 C  
BRANCH  20  21
HETATM   21  C   UNL     1     -12.448  14.045  70.006  1.00  0.00    -0.339 C  
BRANCH  21  22
HETATM   22  C   UNL     1     -12.692  13.946  71.504  1.00  0.00    -0.440 C  
BRANCH  22  23
HETATM   23  C   UNL     1     -14.068  14.491  71.867  1.00  0.00    -0.595 C  
BRANCH  23  24
HETATM   24  C   UNL     1     -13.941  15.676  72.815  1.00  0.00    -0.563 C  
BRANCH  24  25
HETATM   25  C   UNL     1     -12.592  15.676  73.515  1.00  0.00    -0.557 C  
HETATM   26  O   UNL     1     -11.991  16.957  73.393  1.00  0.00    -0.364 OA 
HETATM   27  H   UNL     1     -11.148  16.958  73.831  1.00  0.00     0.000 HD 
ENDBRANCH  24  25
ENDBRANCH  23  24
ENDBRANCH  22  23
ENDBRANCH  21  22
ENDBRANCH  20  21
ENDBRANCH  19  20
ENDBRANCH  18  19
ENDBRANCH  17  18
ENDBRANCH  16  17
ENDBRANCH  15  16
ENDBRANCH  14  15
ENDBRANCH   9  14
ENDBRANCH   2   3
TORSDOF 14
ENDMDL
MODEL      176
REMARK 921   NORMALIZED FREE ENERGY PREDICTED BY IDOCK:   -3.77 KCAL/MOL
REMARK 922        TOTAL FREE ENERGY PREDICTED BY IDOCK:   -8.67 KCAL/MOL
REMARK 923 INTER-LIGAND FREE ENERGY PREDICTED BY IDOCK:   -7.07 KCAL/MOL
REMARK 924 INTRA-LIGAND FREE ENERGY PREDICTED BY IDOCK:   -1.60 KCAL/MOL
REMARK 927      BINDING AFFINITY PREDICTED BY RF-SCORE:    0.00 PKD
ROOT
HETATM    1  C   UNL     1     -13.015  15.609  71.393  1.00  0.00    -0.487 C  
HETATM    2  O   UNL     1     -13.157  14.990  70.121  1.00  0.00    -0.155 OA 
ENDROOT
BRANCH   2   3
HETATM    3  C   UNL     1     -12.074  14.240  69.666  1.00  0.00    -0.346 C  
HETATM    4  C   UNL     1     -11.219  14.813  68.800  1.00  0.00    -0.270 C  
HETATM    5  C   UNL     1     -10.069  14.009  68.287  1.00  0.00    -0.246 C  
HETATM    6  O   UNL     1     -12.411  12.319  71.070  1.00  0.00    -0.370 OA 
HETATM    7  O   UNL     1      -9.054  14.512  67.817  1.00  0.00    -0.181 OA 
HETATM    8  C   UNL     1     -11.878  12.809  70.081  1.00  0.00    -0.251 C  
HETATM    9  C   UNL     1     -10.211  12.526  68.320  1.00  0.00    -0.235 C  
HETATM   10  C   UNL     1     -11.222  10.473  69.396  1.00  0.00    -0.327 C  
HETATM   11  C   UNL     1     -11.047  11.952  69.200  1.00  0.00    -0.285 C  
BRANCH   4  12
HETATM   12  O   UNL     1     -11.438  16.138  68.425  1.00  0.00    -0.369 OA 
HETATM   13  C   UNL     1     -10.488  17.119  68.823  1.00  0.00    -0.351 C  
ENDBRANCH   4  12
BRANCH   9  14
HETATM   14  C   UNL     1      -9.389  11.780  67.315  1.00  0.00    -0.171 C  
BRANCH  14  15
HETATM   15  C   UNL     1     -10.072  11.665  65.951  1.00  0.00    -0.267 C  
BRANCH  15  16
HETATM   16  C   UNL     1     -10.224  10.208  65.515  1.00  0.00    -0.288 C  
BRANCH  16  17
HETATM   17  C   UNL     1      -8.929   9.430  65.711  1.00  0.00    -0.227 C  
BRANCH  17  18
HETATM   18  C   UNL     1      -9.138   8.164  66.521  1.00  0.00    -0.216 C  
BRANCH  18  19
HETATM   19  C   UNL     1     -10.631   7.964  66.750  1.00  0.00    -0.234 C  
BRANCH  19  20
HETATM   20  C   UNL     1     -10.889   6.634  67.436  1.00  0.00    -0.434 C  
BRANCH  20  21
HETATM   21  C   UNL     1     -10.480   5.480  66.533  1.00  0.00    -0.331 C  
BRANCH  21  22
HETATM   22  C   UNL     1      -9.836   4.377  67.359  1.00  0.00    -0.193 C  
BRANCH  22  23
HETATM   23  C   UNL     1      -9.186   4.948  68.613  1.00  0.00    -0.159 C  
BRANCH  23  24
HETATM   24  C   UNL     1      -9.582   4.134  69.838  1.00  0.00    -0.282 C  
BRANCH  24  25
HETATM   25  C   UNL     1     -10.231   5.014  70.894  1.00  0.00    -0.217 C  
HETATM   26  O   UNL     1      -9.747   6.343  70.771  1.00  0.00    -0.178 OA 
HETATM   27  H   UNL     1     -10.152   6.894  71.431  1.00  0.00     0.000 HD 
ENDBRANCH  24  25
ENDBRANCH  23  24
ENDBRANCH  22  23
ENDBRANCH  21  22
ENDBRANCH  20  21
ENDBRANCH  19  20
ENDBRANCH  18  19
ENDBRANCH  17  18
ENDBRANCH  16  17
ENDBRANCH  15  16
ENDBRANCH  14  15
ENDBRANCH   9  14
ENDBRANCH   2   3
TORSDOF 14
ENDMDL
MODEL      177
REMARK 921   NORMALIZED FREE ENERGY PREDICTED BY IDOCK:   -3.75 KCAL/MOL
REMARK 922        TOTAL FREE ENERGY PREDICTED BY IDOCK:   -8.64 KCAL/MOL
REMARK 923 INTER-LIGAND FREE ENERGY PREDICTED BY IDOCK:   -7.13 KCAL/MOL
REMARK 924 INTRA-LIGAND FREE ENERGY PREDICTED BY IDOCK:   -1.51 KCAL/MOL
REMARK 927      BINDING AFFINITY PREDICTED BY RF-SCORE:    0.00 PKD
ROOT
HETATM    1  C   UNL     1      -7.027   7.870  66.762  1.00  0.00    -0.073 C  
HETATM    2  O   UNL     1      -6.711   9.254  66.824  1.00  0.00    -0.074 OA 
ENDROOT
BRANCH   2   3
HETATM    3  C   UNL     1      -7.784  10.143  66.778  1.00  0.00    -0.105 C  
HETATM    4  C   UNL     1      -8.267  10.621  67.939  1.00  0.00    -0.112 C  
HETATM    5  C   UNL     1      -9.433  11.556  67.902  1.00  0.00    -0.178 C  
HETATM    6  O   UNL     1      -7.883  10.391  64.390  1.00  0.00    -0.144 OA 
HETATM    7  O   UNL     1      -9.707  12.324  68.818  1.00  0.00    -0.112 OA 
HETATM    8  C   UNL     1      -8.431  10.530  65.479  1.00  0.00    -0.173 C  
HETATM    9  C   UNL     1     -10.311  11.495  66.699  1.00  0.00    -0.262 C  
HETATM   10  C   UNL     1     -10.572  11.004  64.233  1.00  0.00    -0.402 C  
HETATM   11  C   UNL     1      -9.823  11.039  65.535  1.00  0.00    -0.292 C  
BRANCH   4  12
HETATM   12  O   UNL     1      -7.652  10.232  69.128  1.00  0.00    -0.089 OA 
HETATM   13  C   UNL     1      -6.652  11.079  69.681  1.00  0.00    -0.132 C  
ENDBRANCH   4  12
BRANCH   9  14
HETATM   14  C   UNL     1     -11.722  11.949  66.912  1.00  0.00    -0.291 C  
BRANCH  14  15
HETATM   15  C   UNL     1     -11.900  13.457  66.722  1.00  0.00    -0.452 C  
BRANCH  15  16
HETATM   16  C   UNL     1     -12.792  13.774  65.522  1.00  0.00    -0.464 C  
BRANCH  16  17
HETATM   17  C   UNL     1     -11.992  14.388  64.379  1.00  0.00    -0.471 C  
BRANCH  17  18
HETATM   18  C   UNL     1     -10.736  15.083  64.868  1.00  0.00    -0.420 C  
BRANCH  18  19
HETATM   19  C   UNL     1     -10.960  16.589  64.839  1.00  0.00    -0.223 C  
BRANCH  19  20
HETATM   20  C   UNL     1     -10.315  17.246  66.047  1.00  0.00    -0.312 C  
BRANCH  20  21
HETATM   21  C   UNL     1     -10.444  18.759  65.963  1.00  0.00    -0.483 C  
BRANCH  21  22
HETATM   22  C   UNL     1     -10.548  19.350  67.361  1.00  0.00    -0.603 C  
BRANCH  22  23
HETATM   23  C   UNL     1      -9.311  20.173  67.696  1.00  0.00    -0.487 C  
BRANCH  23  24
HETATM   24  C   UNL     1      -8.330  19.352  68.521  1.00  0.00    -0.399 C  
BRANCH  24  25
HETATM   25  C   UNL     1      -7.105  18.977  67.703  1.00  0.00    -0.218 C  
HETATM   26  O   UNL     1      -7.048  17.567  67.546  1.00  0.00    -0.163 OA 
HETATM   27  H   UNL     1      -6.283  17.332  67.035  1.00  0.00     0.000 HD 
ENDBRANCH  24  25
ENDBRANCH  23  24
ENDBRANCH  22  23
ENDBRANCH  21  22
ENDBRANCH  20  21
ENDBRANCH  19  20
ENDBRANCH  18  19
ENDBRANCH  17  18
ENDBRANCH  16  17
ENDBRANCH  15  16
ENDBRANCH  14  15
ENDBRANCH   9  14
ENDBRANCH   2   3
TORSDOF 14
ENDMDL
MODEL      178
REMARK 921   NORMALIZED FREE ENERGY PREDICTED BY IDOCK:   -3.74 KCAL/MOL
REMARK 922        TOTAL FREE ENERGY PREDICTED BY IDOCK:   -8.62 KCAL/MOL
REMARK 923 INTER-LIGAND FREE ENERGY PREDICTED BY IDOCK:   -7.12 KCAL/MOL
REMARK 924 INTRA-LIGAND FREE ENERGY PREDICTED BY IDOCK:   -1.50 KCAL/MOL
REMARK 927      BINDING AFFINITY PREDICTED BY RF-SCORE:    0.00 PKD
ROOT
HETATM    1  C   UNL     1     -10.699   5.751  68.469  1.00  0.00    -0.217 C  
HETATM    2  O   UNL     1      -9.898   6.603  69.276  1.00  0.00    -0.148 OA 
ENDROOT
BRANCH   2   3
HETATM    3  C   UNL     1     -10.325   7.923  69.408  1.00  0.00    -0.220 C  
HETATM    4  C   UNL     1     -11.052   8.254  70.490  1.00  0.00    -0.249 C  
HETATM    5  C   UNL     1     -11.537   9.660  70.630  1.00  0.00    -0.299 C  
HETATM    6  O   UNL     1      -9.151   8.824  67.515  1.00  0.00    -0.133 OA 
HETATM    7  O   UNL     1     -11.863  10.156  71.703  1.00  0.00    -0.333 OA 
HETATM    8  C   UNL     1     -10.036   8.954  68.354  1.00  0.00    -0.189 C  
HETATM    9  C   UNL     1     -11.661  10.460  69.378  1.00  0.00    -0.272 C  
HETATM   10  C   UNL     1     -10.885  10.915  67.015  1.00  0.00    -0.323 C  
HETATM   11  C   UNL     1     -10.919  10.145  68.304  1.00  0.00    -0.299 C  
BRANCH   4  12
HETATM   12  O   UNL     1     -11.314   7.270  71.443  1.00  0.00    -0.245 OA 
HETATM   13  C   UNL     1     -12.656   6.833  71.614  1.00  0.00    -0.333 C  
ENDBRANCH   4  12
BRANCH   9  14
HETATM   14  C   UNL     1     -12.656  11.577  69.427  1.00  0.00     0.197 C  
BRANCH  14  15
HETATM   15  C   UNL     1     -12.106  12.840  70.093  1.00  0.00    -0.370 C  
BRANCH  15  16
HETATM   16  C   UNL     1     -11.527  13.814  69.067  1.00  0.00    -0.349 C  
BRANCH  16  17
HETATM   17  C   UNL     1     -10.325  14.566  69.627  1.00  0.00     0.043 C  
BRANCH  17  18
HETATM   18  C   UNL     1      -9.316  14.915  68.550  1.00  0.00    -0.196 C  
BRANCH  18  19
HETATM   19  C   UNL     1      -9.791  16.158  67.809  1.00  0.00    -0.232 C  
BRANCH  19  20
HETATM   20  C   UNL     1      -9.515  16.028  66.322  1.00  0.00    -0.347 C  
BRANCH  20  21
HETATM   21  C   UNL     1     -10.546  16.807  65.519  1.00  0.00    -0.243 C  
BRANCH  21  22
HETATM   22  C   UNL     1     -11.280  15.871  64.570  1.00  0.00    -0.324 C  
BRANCH  22  23
HETATM   23  C   UNL     1     -11.189  14.429  65.051  1.00  0.00    -0.376 C  
BRANCH  23  24
HETATM   24  C   UNL     1     -12.519  13.715  64.859  1.00  0.00    -0.423 C  
BRANCH  24  25
HETATM   25  C   UNL     1     -12.349  12.449  64.035  1.00  0.00    -0.488 C  
HETATM   26  O   UNL     1     -11.356  12.657  63.041  1.00  0.00    -0.753 OA 
HETATM   27  H   UNL     1     -11.248  11.866  62.526  1.00  0.00     0.000 HD 
ENDBRANCH  24  25
ENDBRANCH  23  24
ENDBRANCH  22  23
ENDBRANCH  21  22
ENDBRANCH  20  21
ENDBRANCH  19  20
ENDBRANCH  18  19
ENDBRANCH  17  18
ENDBRANCH  16  17
ENDBRANCH  15  16
ENDBRANCH  14  15
ENDBRANCH   9  14
ENDBRANCH   2   3
TORSDOF 14
ENDMDL
MODEL      179
REMARK 921   NORMALIZED FREE ENERGY PREDICTED BY IDOCK:   -3.74 KCAL/MOL
REMARK 922        TOTAL FREE ENERGY PREDICTED BY IDOCK:   -8.62 KCAL/MOL
REMARK 923 INTER-LIGAND FREE ENERGY PREDICTED BY IDOCK:   -6.69 KCAL/MOL
REMARK 924 INTRA-LIGAND FREE ENERGY PREDICTED BY IDOCK:   -1.93 KCAL/MOL
REMARK 927      BINDING AFFINITY PREDICTED BY RF-SCORE:    0.00 PKD
ROOT
HETATM    1  C   UNL     1     -11.972  14.004  69.508  1.00  0.00    -0.339 C  
HETATM    2  O   UNL     1     -12.192  12.718  68.943  1.00  0.00    -0.195 OA 
ENDROOT
BRANCH   2   3
HETATM    3  C   UNL     1     -11.792  11.623  69.706  1.00  0.00    -0.357 C  
HETATM    4  C   UNL     1     -10.768  10.873  69.260  1.00  0.00    -0.231 C  
HETATM    5  C   UNL     1     -10.347   9.682  70.058  1.00  0.00    -0.257 C  
HETATM    6  O   UNL     1     -13.225  12.016  71.594  1.00  0.00    -0.410 OA 
HETATM    7  O   UNL     1      -9.237   9.169  69.965  1.00  0.00    -0.165 OA 
HETATM    8  C   UNL     1     -12.506  11.242  70.972  1.00  0.00    -0.400 C  
HETATM    9  C   UNL     1     -11.364   9.085  70.970  1.00  0.00    -0.362 C  
HETATM   10  C   UNL     1     -13.413   9.388  72.421  1.00  0.00    -0.506 C  
HETATM   11  C   UNL     1     -12.374   9.838  71.434  1.00  0.00    -0.480 C  
BRANCH   4  12
HETATM   12  O   UNL     1     -10.136  11.247  68.075  1.00  0.00    -0.169 OA 
HETATM   13  C   UNL     1     -10.392  10.484  66.902  1.00  0.00    -0.239 C  
ENDBRANCH   4  12
BRANCH   9  14
HETATM   14  C   UNL     1     -11.170   7.634  71.285  1.00  0.00    -0.277 C  
BRANCH  14  15
HETATM   15  C   UNL     1     -11.898   6.708  70.308  1.00  0.00    -0.378 C  
BRANCH  15  16
HETATM   16  C   UNL     1     -10.931   6.053  69.322  1.00  0.00    -0.436 C  
BRANCH  16  17
HETATM   17  C   UNL     1     -11.017   6.699  67.945  1.00  0.00    -0.342 C  
BRANCH  17  18
HETATM   18  C   UNL     1     -10.204   5.947  66.908  1.00  0.00    -0.262 C  
BRANCH  18  19
HETATM   19  C   UNL     1      -8.987   6.782  66.531  1.00  0.00    -0.162 C  
BRANCH  19  20
HETATM   20  C   UNL     1      -7.724   6.170  67.107  1.00  0.00    -0.101 C  
BRANCH  20  21
HETATM   21  C   UNL     1      -7.214   7.001  68.275  1.00  0.00    -0.091 C  
BRANCH  21  22
HETATM   22  C   UNL     1      -7.427   6.249  69.581  1.00  0.00    -0.085 C  
BRANCH  22  23
HETATM   23  C   UNL     1      -6.126   6.150  70.368  1.00  0.00    -0.030 C  
BRANCH  23  24
HETATM   24  C   UNL     1      -6.298   6.744  71.759  1.00  0.00    -0.042 C  
BRANCH  24  25
HETATM   25  C   UNL     1      -6.146   8.256  71.733  1.00  0.00    -0.047 C  
HETATM   26  O   UNL     1      -7.291   8.861  72.317  1.00  0.00    -0.328 OA 
HETATM   27  H   UNL     1      -7.196   9.806  72.301  1.00  0.00     0.000 HD 
ENDBRANCH  24  25
ENDBRANCH  23  24
ENDBRANCH  22  23
ENDBRANCH  21  22
ENDBRANCH  20  21
ENDBRANCH  19  20
ENDBRANCH  18  19
ENDBRANCH  17  18
ENDBRANCH  16  17
ENDBRANCH  15  16
ENDBRANCH  14  15
ENDBRANCH   9  14
ENDBRANCH   2   3
TORSDOF 14
ENDMDL
MODEL      180
REMARK 921   NORMALIZED FREE ENERGY PREDICTED BY IDOCK:   -3.72 KCAL/MOL
REMARK 922        TOTAL FREE ENERGY PREDICTED BY IDOCK:   -8.59 KCAL/MOL
REMARK 923 INTER-LIGAND FREE ENERGY PREDICTED BY IDOCK:   -6.58 KCAL/MOL
REMARK 924 INTRA-LIGAND FREE ENERGY PREDICTED BY IDOCK:   -2.02 KCAL/MOL
REMARK 927      BINDING AFFINITY PREDICTED BY RF-SCORE:    0.00 PKD
ROOT
HETATM    1  C   UNL     1      -5.344  19.079  66.046  1.00  0.00    -0.152 C  
HETATM    2  O   UNL     1      -5.750  18.665  67.343  1.00  0.00    -0.154 OA 
ENDROOT
BRANCH   2   3
HETATM    3  C   UNL     1      -7.014  18.086  67.448  1.00  0.00    -0.191 C  
HETATM    4  C   UNL     1      -7.096  16.748  67.559  1.00  0.00    -0.147 C  
HETATM    5  C   UNL     1      -8.446  16.115  67.647  1.00  0.00    -0.168 C  
HETATM    6  O   UNL     1      -8.281  20.122  67.590  1.00  0.00    -0.306 OA 
HETATM    7  O   UNL     1      -8.635  14.998  68.116  1.00  0.00    -0.149 OA 
HETATM    8  C   UNL     1      -8.266  18.913  67.387  1.00  0.00    -0.270 C  
HETATM    9  C   UNL     1      -9.592  16.886  67.089  1.00  0.00    -0.245 C  
HETATM   10  C   UNL     1     -10.630  19.124  66.535  1.00  0.00    -0.523 C  
HETATM   11  C   UNL     1      -9.521  18.223  66.997  1.00  0.00    -0.274 C  
BRANCH   4  12
HETATM   12  O   UNL     1      -5.913  16.009  67.599  1.00  0.00    -0.131 OA 
HETATM   13  C   UNL     1      -5.320  15.750  68.865  1.00  0.00    -0.103 C  
ENDBRANCH   4  12
BRANCH   9  14
HETATM   14  C   UNL     1     -10.762  16.064  66.643  1.00  0.00    -0.247 C  
BRANCH  14  15
HETATM   15  C   UNL     1     -10.594  15.501  65.230  1.00  0.00    -0.446 C  
BRANCH  15  16
HETATM   16  C   UNL     1     -11.943  15.269  64.550  1.00  0.00    -0.276 C  
BRANCH  16  17
HETATM   17  C   UNL     1     -12.725  14.152  65.231  1.00  0.00    -0.425 C  
BRANCH  17  18
HETATM   18  C   UNL     1     -12.155  12.781  64.921  1.00  0.00    -0.490 C  
BRANCH  18  19
HETATM   19  C   UNL     1     -11.537  12.203  66.188  1.00  0.00    -0.418 C  
BRANCH  19  20
HETATM   20  C   UNL     1     -10.088  11.822  65.946  1.00  0.00    -0.267 C  
BRANCH  20  21
HETATM   21  C   UNL     1      -9.918  10.311  65.997  1.00  0.00    -0.308 C  
BRANCH  21  22
HETATM   22  C   UNL     1      -8.748   9.950  66.900  1.00  0.00    -0.135 C  
BRANCH  22  23
HETATM   23  C   UNL     1      -7.457  10.579  66.392  1.00  0.00    -0.133 C  
BRANCH  23  24
HETATM   24  C   UNL     1      -6.517  10.880  67.551  1.00  0.00    -0.058 C  
BRANCH  24  25
HETATM   25  C   UNL     1      -5.805  12.208  67.348  1.00  0.00    -0.137 C  
HETATM   26  O   UNL     1      -6.739  13.192  66.928  1.00  0.00    -0.420 OA 
HETATM   27  H   UNL     1      -6.294  14.022  66.802  1.00  0.00     0.000 HD 
ENDBRANCH  24  25
ENDBRANCH  23  24
ENDBRANCH  22  23
ENDBRANCH  21  22
ENDBRANCH  20  21
ENDBRANCH  19  20
ENDBRANCH  18  19
ENDBRANCH  17  18
ENDBRANCH  16  17
ENDBRANCH  15  16
ENDBRANCH  14  15
ENDBRANCH   9  14
ENDBRANCH   2   3
TORSDOF 14
ENDMDL
MODEL      181
REMARK 921   NORMALIZED FREE ENERGY PREDICTED BY IDOCK:   -3.72 KCAL/MOL
REMARK 922        TOTAL FREE ENERGY PREDICTED BY IDOCK:   -8.58 KCAL/MOL
REMARK 923 INTER-LIGAND FREE ENERGY PREDICTED BY IDOCK:   -7.29 KCAL/MOL
REMARK 924 INTRA-LIGAND FREE ENERGY PREDICTED BY IDOCK:   -1.29 KCAL/MOL
REMARK 927      BINDING AFFINITY PREDICTED BY RF-SCORE:    0.00 PKD
ROOT
HETATM    1  C   UNL     1      -8.782  10.127  63.847  1.00  0.00    -0.210 C  
HETATM    2  O   UNL     1     -10.085  10.379  64.355  1.00  0.00    -0.343 OA 
ENDROOT
BRANCH   2   3
HETATM    3  C   UNL     1     -10.207  11.417  65.277  1.00  0.00    -0.270 C  
HETATM    4  C   UNL     1     -10.891  12.517  64.913  1.00  0.00    -0.293 C  
HETATM    5  C   UNL     1     -11.007  13.646  65.885  1.00  0.00    -0.282 C  
HETATM    6  O   UNL     1      -9.185  10.301  67.143  1.00  0.00    -0.144 OA 
HETATM    7  O   UNL     1     -11.885  14.499  65.821  1.00  0.00    -0.362 OA 
HETATM    8  C   UNL     1      -9.554  11.351  66.628  1.00  0.00    -0.191 C  
HETATM    9  C   UNL     1      -9.963  13.736  66.944  1.00  0.00    -0.264 C  
HETATM   10  C   UNL     1      -8.283  12.571  68.433  1.00  0.00    -0.136 C  
HETATM   11  C   UNL     1      -9.295  12.635  67.324  1.00  0.00    -0.195 C  
BRANCH   4  12
HETATM   12  O   UNL     1     -11.473  12.551  63.647  1.00  0.00    -0.421 OA 
HETATM   13  C   UNL     1     -12.769  11.987  63.482  1.00  0.00    -0.443 C  
ENDBRANCH   4  12
BRANCH   9  14
HETATM   14  C   UNL     1      -9.731  15.107  67.500  1.00  0.00    -0.205 C  
BRANCH  14  15
HETATM   15  C   UNL     1     -10.874  15.592  68.394  1.00  0.00    -0.290 C  
BRANCH  15  16
HETATM   16  C   UNL     1     -10.983  14.762  69.673  1.00  0.00    -0.285 C  
BRANCH  16  17
HETATM   17  C   UNL     1     -12.366  14.138  69.816  1.00  0.00    -0.350 C  
BRANCH  17  18
HETATM   18  C   UNL     1     -12.340  12.873  70.652  1.00  0.00    -0.385 C  
BRANCH  18  19
HETATM   19  C   UNL     1     -11.583  11.792  69.892  1.00  0.00    -0.351 C  
BRANCH  19  20
HETATM   20  C   UNL     1     -11.970  10.415  70.400  1.00  0.00    -0.409 C  
BRANCH  20  21
HETATM   21  C   UNL     1     -10.838   9.424  70.171  1.00  0.00    -0.287 C  
BRANCH  21  22
HETATM   22  C   UNL     1     -10.481   8.732  71.478  1.00  0.00    -0.373 C  
BRANCH  22  23
HETATM   23  C   UNL     1     -10.139   7.267  71.239  1.00  0.00    -0.195 C  
BRANCH  23  24
HETATM   24  C   UNL     1      -9.929   6.544  72.563  1.00  0.00    -0.184 C  
BRANCH  24  25
HETATM   25  C   UNL     1      -9.585   7.523  73.673  1.00  0.00    -0.293 C  
HETATM   26  O   UNL     1      -8.184   7.505  73.909  1.00  0.00    -0.132 OA 
HETATM   27  H   UNL     1      -7.969   8.117  74.603  1.00  0.00     0.000 HD 
ENDBRANCH  24  25
ENDBRANCH  23  24
ENDBRANCH  22  23
ENDBRANCH  21  22
ENDBRANCH  20  21
ENDBRANCH  19  20
ENDBRANCH  18  19
ENDBRANCH  17  18
ENDBRANCH  16  17
ENDBRANCH  15  16
ENDBRANCH  14  15
ENDBRANCH   9  14
ENDBRANCH   2   3
TORSDOF 14
ENDMDL
MODEL      182
REMARK 921   NORMALIZED FREE ENERGY PREDICTED BY IDOCK:   -3.72 KCAL/MOL
REMARK 922        TOTAL FREE ENERGY PREDICTED BY IDOCK:   -8.58 KCAL/MOL
REMARK 923 INTER-LIGAND FREE ENERGY PREDICTED BY IDOCK:   -7.03 KCAL/MOL
REMARK 924 INTRA-LIGAND FREE ENERGY PREDICTED BY IDOCK:   -1.54 KCAL/MOL
REMARK 927      BINDING AFFINITY PREDICTED BY RF-SCORE:    0.00 PKD
ROOT
HETATM    1  C   UNL     1      -6.974  15.601  68.571  1.00  0.00    -0.115 C  
HETATM    2  O   UNL     1      -7.615  15.366  67.324  1.00  0.00    -0.182 OA 
ENDROOT
BRANCH   2   3
HETATM    3  C   UNL     1      -8.618  14.399  67.309  1.00  0.00    -0.215 C  
HETATM    4  C   UNL     1      -9.896  14.806  67.202  1.00  0.00    -0.232 C  
HETATM    5  C   UNL     1     -10.981  13.779  67.209  1.00  0.00    -0.292 C  
HETATM    6  O   UNL     1      -7.191  12.467  67.258  1.00  0.00    -0.143 OA 
HETATM    7  O   UNL     1     -12.101  13.982  66.754  1.00  0.00    -0.428 OA 
HETATM    8  C   UNL     1      -8.305  12.937  67.458  1.00  0.00    -0.183 C  
HETATM    9  C   UNL     1     -10.669  12.469  67.848  1.00  0.00    -0.239 C  
HETATM   10  C   UNL     1      -8.951  10.722  68.476  1.00  0.00    -0.160 C  
HETATM   11  C   UNL     1      -9.396  12.052  67.935  1.00  0.00    -0.190 C  
BRANCH   4  12
HETATM   12  O   UNL     1     -10.152  16.171  67.079  1.00  0.00    -0.257 OA 
HETATM   13  C   UNL     1     -10.613  16.879  68.223  1.00  0.00    -0.363 C  
ENDBRANCH   4  12
BRANCH   9  14
HETATM   14  C   UNL     1     -11.850  11.714  68.374  1.00  0.00    -0.346 C  
BRANCH  14  15
HETATM   15  C   UNL     1     -12.036  11.872  69.885  1.00  0.00    -0.398 C  
BRANCH  15  16
HETATM   16  C   UNL     1     -12.286  10.527  70.567  1.00  0.00    -0.435 C  
BRANCH  16  17
HETATM   17  C   UNL     1     -13.158  10.685  71.807  1.00  0.00    -0.571 C  
BRANCH  17  18
HETATM   18  C   UNL     1     -13.638   9.349  72.343  1.00  0.00    -0.498 C  
BRANCH  18  19
HETATM   19  C   UNL     1     -12.920   8.230  71.601  1.00  0.00    -0.357 C  
BRANCH  19  20
HETATM   20  C   UNL     1     -11.718   7.752  72.394  1.00  0.00    -0.394 C  
BRANCH  20  21
HETATM   21  C   UNL     1     -10.941   6.706  71.608  1.00  0.00    -0.280 C  
BRANCH  21  22
HETATM   22  C   UNL     1      -9.764   7.357  70.898  1.00  0.00    -0.169 C  
BRANCH  22  23
HETATM   23  C   UNL     1      -9.278   8.580  71.665  1.00  0.00    -0.304 C  
BRANCH  23  24
HETATM   24  C   UNL     1      -7.818   8.416  72.065  1.00  0.00    -0.171 C  
BRANCH  24  25
HETATM   25  C   UNL     1      -7.188   7.225  71.362  1.00  0.00    -0.076 C  
HETATM   26  O   UNL     1      -5.794   7.193  71.634  1.00  0.00    -0.036 OA 
HETATM   27  H   UNL     1      -5.400   6.448  71.195  1.00  0.00     0.000 HD 
ENDBRANCH  24  25
ENDBRANCH  23  24
ENDBRANCH  22  23
ENDBRANCH  21  22
ENDBRANCH  20  21
ENDBRANCH  19  20
ENDBRANCH  18  19
ENDBRANCH  17  18
ENDBRANCH  16  17
ENDBRANCH  15  16
ENDBRANCH  14  15
ENDBRANCH   9  14
ENDBRANCH   2   3
TORSDOF 14
ENDMDL
MODEL      183
REMARK 921   NORMALIZED FREE ENERGY PREDICTED BY IDOCK:   -3.71 KCAL/MOL
REMARK 922        TOTAL FREE ENERGY PREDICTED BY IDOCK:   -8.57 KCAL/MOL
REMARK 923 INTER-LIGAND FREE ENERGY PREDICTED BY IDOCK:   -7.00 KCAL/MOL
REMARK 924 INTRA-LIGAND FREE ENERGY PREDICTED BY IDOCK:   -1.57 KCAL/MOL
REMARK 927      BINDING AFFINITY PREDICTED BY RF-SCORE:    0.00 PKD
ROOT
HETATM    1  C   UNL     1      -5.354  19.184  66.125  1.00  0.00    -0.155 C  
HETATM    2  O   UNL     1      -5.755  19.245  67.487  1.00  0.00    -0.178 OA 
ENDROOT
BRANCH   2   3
HETATM    3  C   UNL     1      -7.018  18.740  67.791  1.00  0.00    -0.215 C  
HETATM    4  C   UNL     1      -7.099  17.522  68.355  1.00  0.00    -0.222 C  
HETATM    5  C   UNL     1      -8.449  16.959  68.662  1.00  0.00    -0.260 C  
HETATM    6  O   UNL     1      -8.285  20.703  67.231  1.00  0.00    -0.336 OA 
HETATM    7  O   UNL     1      -8.636  16.072  69.487  1.00  0.00    -0.211 OA 
HETATM    8  C   UNL     1      -8.271  19.498  67.456  1.00  0.00    -0.293 C  
HETATM    9  C   UNL     1      -9.599  17.494  67.878  1.00  0.00    -0.277 C  
HETATM   10  C   UNL     1     -10.639  19.408  66.594  1.00  0.00    -0.566 C  
HETATM   11  C   UNL     1      -9.527  18.718  67.333  1.00  0.00    -0.324 C  
BRANCH   4  12
HETATM   12  O   UNL     1      -5.917  16.839  68.640  1.00  0.00    -0.131 OA 
HETATM   13  C   UNL     1      -5.565  15.727  67.827  1.00  0.00    -0.137 C  
ENDBRANCH   4  12
BRANCH   9  14
HETATM   14  C   UNL     1     -10.770  16.571  67.748  1.00  0.00    -0.329 C  
BRANCH  14  15
HETATM   15  C   UNL     1     -10.429  15.270  67.017  1.00  0.00    -0.292 C  
BRANCH  15  16
HETATM   16  C   UNL     1     -10.155  15.511  65.533  1.00  0.00    -0.406 C  
BRANCH  16  17
HETATM   17  C   UNL     1     -11.147  14.760  64.654  1.00  0.00    -0.337 C  
BRANCH  17  18
HETATM   18  C   UNL     1     -10.740  13.315  64.436  1.00  0.00    -0.432 C  
BRANCH  18  19
HETATM   19  C   UNL     1     -11.843  12.405  64.961  1.00  0.00    -0.440 C  
BRANCH  19  20
HETATM   20  C   UNL     1     -11.534  11.959  66.379  1.00  0.00    -0.371 C  
BRANCH  20  21
HETATM   21  C   UNL     1     -10.921  10.567  66.378  1.00  0.00    -0.019 C  
BRANCH  21  22
HETATM   22  C   UNL     1      -9.466  10.639  66.815  1.00  0.00    -0.189 C  
BRANCH  22  23
HETATM   23  C   UNL     1      -8.577   9.833  65.876  1.00  0.00    -0.149 C  
BRANCH  23  24
HETATM   24  C   UNL     1      -8.277  10.627  64.611  1.00  0.00    -0.017 C  
BRANCH  24  25
HETATM   25  C   UNL     1      -8.443   9.764  63.371  1.00  0.00    -0.186 C  
HETATM   26  O   UNL     1      -9.755   9.922  62.852  1.00  0.00    -0.534 OA 
HETATM   27  H   UNL     1      -9.859   9.383  62.076  1.00  0.00     0.000 HD 
ENDBRANCH  24  25
ENDBRANCH  23  24
ENDBRANCH  22  23
ENDBRANCH  21  22
ENDBRANCH  20  21
ENDBRANCH  19  20
ENDBRANCH  18  19
ENDBRANCH  17  18
ENDBRANCH  16  17
ENDBRANCH  15  16
ENDBRANCH  14  15
ENDBRANCH   9  14
ENDBRANCH   2   3
TORSDOF 14
ENDMDL
MODEL      184
REMARK 921   NORMALIZED FREE ENERGY PREDICTED BY IDOCK:   -3.70 KCAL/MOL
REMARK 922        TOTAL FREE ENERGY PREDICTED BY IDOCK:   -8.55 KCAL/MOL
REMARK 923 INTER-LIGAND FREE ENERGY PREDICTED BY IDOCK:   -5.67 KCAL/MOL
REMARK 924 INTRA-LIGAND FREE ENERGY PREDICTED BY IDOCK:   -2.88 KCAL/MOL
REMARK 927      BINDING AFFINITY PREDICTED BY RF-SCORE:    0.00 PKD
ROOT
HETATM    1  C   UNL     1      -8.304   3.774  65.605  1.00  0.00    -0.105 C  
HETATM    2  O   UNL     1      -8.407   5.134  65.206  1.00  0.00    -0.126 OA 
ENDROOT
BRANCH   2   3
HETATM    3  C   UNL     1      -8.596   6.071  66.220  1.00  0.00    -0.137 C  
HETATM    4  C   UNL     1      -7.553   6.836  66.586  1.00  0.00    -0.086 C  
HETATM    5  C   UNL     1      -7.738   7.826  67.690  1.00  0.00    -0.121 C  
HETATM    6  O   UNL     1     -10.967   5.778  66.479  1.00  0.00    -0.253 OA 
HETATM    7  O   UNL     1      -7.011   8.801  67.847  1.00  0.00    -0.076 OA 
HETATM    8  C   UNL     1      -9.911   6.202  66.935  1.00  0.00    -0.168 C  
HETATM    9  C   UNL     1      -8.842   7.563  68.656  1.00  0.00    -0.127 C  
HETATM   10  C   UNL     1     -11.109   6.548  69.127  1.00  0.00    -0.387 C  
HETATM   11  C   UNL     1      -9.895   6.818  68.285  1.00  0.00    -0.144 C  
BRANCH   4  12
HETATM   12  O   UNL     1      -6.343   6.680  65.911  1.00  0.00    -0.042 OA 
HETATM   13  C   UNL     1      -6.041   7.574  64.846  1.00  0.00    -0.038 C  
ENDBRANCH   4  12
BRANCH   9  14
HETATM   14  C   UNL     1      -8.660   8.163  70.016  1.00  0.00    -0.129 C  
BRANCH  14  15
HETATM   15  C   UNL     1      -8.201   7.146  71.062  1.00  0.00    -0.109 C  
BRANCH  15  16
HETATM   16  C   UNL     1      -9.195   7.034  72.217  1.00  0.00    -0.147 C  
BRANCH  16  17
HETATM   17  C   UNL     1     -10.029   8.301  72.360  1.00  0.00    -0.379 C  
BRANCH  17  18
HETATM   18  C   UNL     1     -11.508   8.000  72.508  1.00  0.00    -0.471 C  
BRANCH  18  19
HETATM   19  C   UNL     1     -12.306   9.028  71.717  1.00  0.00    -0.438 C  
BRANCH  19  20
HETATM   20  C   UNL     1     -11.373  10.004  71.023  1.00  0.00    -0.434 C  
BRANCH  20  21
HETATM   21  C   UNL     1     -12.144  11.221  70.532  1.00  0.00    -0.481 C  
BRANCH  21  22
HETATM   22  C   UNL     1     -11.790  11.509  69.081  1.00  0.00    -0.406 C  
BRANCH  22  23
HETATM   23  C   UNL     1     -11.171  10.284  68.420  1.00  0.00    -0.284 C  
BRANCH  23  24
HETATM   24  C   UNL     1     -10.247  10.699  67.283  1.00  0.00    -0.250 C  
BRANCH  24  25
HETATM   25  C   UNL     1      -9.394  11.893  67.679  1.00  0.00    -0.183 C  
HETATM   26  O   UNL     1      -8.306  11.457  68.481  1.00  0.00    -0.146 OA 
HETATM   27  H   UNL     1      -7.772  12.203  68.728  1.00  0.00     0.000 HD 
ENDBRANCH  24  25
ENDBRANCH  23  24
ENDBRANCH  22  23
ENDBRANCH  21  22
ENDBRANCH  20  21
ENDBRANCH  19  20
ENDBRANCH  18  19
ENDBRANCH  17  18
ENDBRANCH  16  17
ENDBRANCH  15  16
ENDBRANCH  14  15
ENDBRANCH   9  14
ENDBRANCH   2   3
TORSDOF 14
ENDMDL
MODEL      185
REMARK 921   NORMALIZED FREE ENERGY PREDICTED BY IDOCK:   -3.69 KCAL/MOL
REMARK 922        TOTAL FREE ENERGY PREDICTED BY IDOCK:   -8.54 KCAL/MOL
REMARK 923 INTER-LIGAND FREE ENERGY PREDICTED BY IDOCK:   -7.01 KCAL/MOL
REMARK 924 INTRA-LIGAND FREE ENERGY PREDICTED BY IDOCK:   -1.53 KCAL/MOL
REMARK 927      BINDING AFFINITY PREDICTED BY RF-SCORE:    0.00 PKD
ROOT
HETATM    1  C   UNL     1     -11.042  15.719  70.619  1.00  0.00    -0.354 C  
HETATM    2  O   UNL     1     -10.014  15.618  69.642  1.00  0.00    -0.266 OA 
ENDROOT
BRANCH   2   3
HETATM    3  C   UNL     1     -10.368  15.052  68.418  1.00  0.00    -0.231 C  
HETATM    4  C   UNL     1     -10.624  15.874  67.385  1.00  0.00    -0.315 C  
HETATM    5  C   UNL     1     -11.029  15.280  66.075  1.00  0.00    -0.317 C  
HETATM    6  O   UNL     1     -10.023  12.753  69.024  1.00  0.00     0.039 OA 
HETATM    7  O   UNL     1     -10.919  15.871  65.007  1.00  0.00    -0.425 OA 
HETATM    8  C   UNL     1     -10.517  13.566  68.251  1.00  0.00    -0.253 C  
HETATM    9  C   UNL     1     -11.632  13.917  66.109  1.00  0.00    -0.371 C  
HETATM   10  C   UNL     1     -11.832  11.666  67.242  1.00  0.00    -0.133 C  
HETATM   11  C   UNL     1     -11.361  13.088  67.128  1.00  0.00    -0.348 C  
BRANCH   4  12
HETATM   12  O   UNL     1     -10.490  17.249  67.578  1.00  0.00    -0.345 OA 
HETATM   13  C   UNL     1      -9.260  17.866  67.217  1.00  0.00    -0.254 C  
ENDBRANCH   4  12
BRANCH   9  14
HETATM   14  C   UNL     1     -12.541  13.591  64.964  1.00  0.00    -0.441 C  
BRANCH  14  15
HETATM   15  C   UNL     1     -12.087  12.363  64.171  1.00  0.00    -0.539 C  
BRANCH  15  16
HETATM   16  C   UNL     1     -10.674  12.541  63.615  1.00  0.00    -0.469 C  
BRANCH  16  17
HETATM   17  C   UNL     1     -10.049  11.201  63.243  1.00  0.00    -0.426 C  
BRANCH  17  18
HETATM   18  C   UNL     1      -9.891  10.290  64.445  1.00  0.00    -0.374 C  
BRANCH  18  19
HETATM   19  C   UNL     1      -8.743   9.323  64.187  1.00  0.00    -0.201 C  
BRANCH  19  20
HETATM   20  C   UNL     1      -7.542  10.062  63.625  1.00  0.00    -0.143 C  
BRANCH  20  21
HETATM   21  C   UNL     1      -6.312   9.812  64.485  1.00  0.00    -0.111 C  
BRANCH  21  22
HETATM   22  C   UNL     1      -6.581  10.251  65.916  1.00  0.00    -0.113 C  
BRANCH  22  23
HETATM   23  C   UNL     1      -5.295  10.708  66.593  1.00  0.00    -0.058 C  
BRANCH  23  24
HETATM   24  C   UNL     1      -5.442  12.130  67.116  1.00  0.00    -0.105 C  
BRANCH  24  25
HETATM   25  C   UNL     1      -6.879  12.422  67.515  1.00  0.00    -0.143 C  
HETATM   26  O   UNL     1      -7.303  13.639  66.916  1.00  0.00    -0.310 OA 
HETATM   27  H   UNL     1      -8.202  13.821  67.165  1.00  0.00     0.000 HD 
ENDBRANCH  24  25
ENDBRANCH  23  24
ENDBRANCH  22  23
ENDBRANCH  21  22
ENDBRANCH  20  21
ENDBRANCH  19  20
ENDBRANCH  18  19
ENDBRANCH  17  18
ENDBRANCH  16  17
ENDBRANCH  15  16
ENDBRANCH  14  15
ENDBRANCH   9  14
ENDBRANCH   2   3
TORSDOF 14
ENDMDL
MODEL      186
REMARK 921   NORMALIZED FREE ENERGY PREDICTED BY IDOCK:   -3.69 KCAL/MOL
REMARK 922        TOTAL FREE ENERGY PREDICTED BY IDOCK:   -8.54 KCAL/MOL
REMARK 923 INTER-LIGAND FREE ENERGY PREDICTED BY IDOCK:   -7.52 KCAL/MOL
REMARK 924 INTRA-LIGAND FREE ENERGY PREDICTED BY IDOCK:   -1.01 KCAL/MOL
REMARK 927      BINDING AFFINITY PREDICTED BY RF-SCORE:    0.00 PKD
ROOT
HETATM    1  C   UNL     1     -11.116  15.455  71.757  1.00  0.00    -0.181 C  
HETATM    2  O   UNL     1     -12.226  14.706  71.281  1.00  0.00    -0.313 OA 
ENDROOT
BRANCH   2   3
HETATM    3  C   UNL     1     -12.072  14.078  70.046  1.00  0.00    -0.348 C  
HETATM    4  C   UNL     1     -12.154  12.736  69.997  1.00  0.00    -0.285 C  
HETATM    5  C   UNL     1     -11.966  12.051  68.683  1.00  0.00    -0.235 C  
HETATM    6  O   UNL     1     -11.977  16.062  68.694  1.00  0.00    -0.306 OA 
HETATM    7  O   UNL     1     -12.378  10.920  68.450  1.00  0.00    -0.477 OA 
HETATM    8  C   UNL     1     -11.771  14.858  68.798  1.00  0.00    -0.325 C  
HETATM    9  C   UNL     1     -11.197  12.787  67.640  1.00  0.00    -0.323 C  
HETATM   10  C   UNL     1     -10.467  14.994  66.644  1.00  0.00    -0.284 C  
HETATM   11  C   UNL     1     -11.133  14.128  67.675  1.00  0.00    -0.296 C  
BRANCH   4  12
HETATM   12  O   UNL     1     -12.421  12.042  71.177  1.00  0.00    -0.348 OA 
HETATM   13  C   UNL     1     -13.350  12.603  72.096  1.00  0.00    -0.466 C  
ENDBRANCH   4  12
BRANCH   9  14
HETATM   14  C   UNL     1     -10.521  11.929  66.616  1.00  0.00    -0.250 C  
BRANCH  14  15
HETATM   15  C   UNL     1      -9.261  11.243  67.149  1.00  0.00    -0.169 C  
BRANCH  15  16
HETATM   16  C   UNL     1      -9.188   9.779  66.717  1.00  0.00    -0.179 C  
BRANCH  16  17
HETATM   17  C   UNL     1      -7.980   9.077  67.326  1.00  0.00    -0.099 C  
BRANCH  17  18
HETATM   18  C   UNL     1      -8.381   7.918  68.218  1.00  0.00    -0.124 C  
BRANCH  18  19
HETATM   19  C   UNL     1      -8.847   8.463  69.561  1.00  0.00    -0.145 C  
BRANCH  19  20
HETATM   20  C   UNL     1     -10.307   8.120  69.796  1.00  0.00    -0.216 C  
BRANCH  20  21
HETATM   21  C   UNL     1     -10.431   6.949  70.759  1.00  0.00    -0.238 C  
BRANCH  21  22
HETATM   22  C   UNL     1     -10.884   7.445  72.124  1.00  0.00    -0.273 C  
BRANCH  22  23
HETATM   23  C   UNL     1     -11.573   8.798  72.009  1.00  0.00    -0.436 C  
BRANCH  23  24
HETATM   24  C   UNL     1     -12.970   8.740  72.613  1.00  0.00    -0.305 C  
BRANCH  24  25
HETATM   25  C   UNL     1     -14.034   8.685  71.529  1.00  0.00    -0.348 C  
HETATM   26  O   UNL     1     -13.757   9.663  70.537  1.00  0.00    -0.555 OA 
HETATM   27  H   UNL     1     -14.422   9.628  69.860  1.00  0.00     0.000 HD 
ENDBRANCH  24  25
ENDBRANCH  23  24
ENDBRANCH  22  23
ENDBRANCH  21  22
ENDBRANCH  20  21
ENDBRANCH  19  20
ENDBRANCH  18  19
ENDBRANCH  17  18
ENDBRANCH  16  17
ENDBRANCH  15  16
ENDBRANCH  14  15
ENDBRANCH   9  14
ENDBRANCH   2   3
TORSDOF 14
ENDMDL
MODEL      187
REMARK 921   NORMALIZED FREE ENERGY PREDICTED BY IDOCK:   -3.69 KCAL/MOL
REMARK 922        TOTAL FREE ENERGY PREDICTED BY IDOCK:   -8.53 KCAL/MOL
REMARK 923 INTER-LIGAND FREE ENERGY PREDICTED BY IDOCK:   -6.93 KCAL/MOL
REMARK 924 INTRA-LIGAND FREE ENERGY PREDICTED BY IDOCK:   -1.61 KCAL/MOL
REMARK 927      BINDING AFFINITY PREDICTED BY RF-SCORE:    0.00 PKD
ROOT
HETATM    1  C   UNL     1      -5.779   6.716  67.165  1.00  0.00    -0.013 C  
HETATM    2  O   UNL     1      -6.951   6.529  66.383  1.00  0.00    -0.063 OA 
ENDROOT
BRANCH   2   3
HETATM    3  C   UNL     1      -8.169   6.600  67.056  1.00  0.00    -0.113 C  
HETATM    4  C   UNL     1      -8.828   7.773  67.061  1.00  0.00    -0.127 C  
HETATM    5  C   UNL     1     -10.123   7.868  67.800  1.00  0.00    -0.192 C  
HETATM    6  O   UNL     1      -8.360   4.270  67.609  1.00  0.00    -0.098 OA 
HETATM    7  O   UNL     1     -10.967   8.727  67.570  1.00  0.00    -0.120 OA 
HETATM    8  C   UNL     1      -8.725   5.424  67.808  1.00  0.00    -0.106 C  
HETATM    9  C   UNL     1     -10.350   6.883  68.896  1.00  0.00    -0.198 C  
HETATM   10  C   UNL     1      -9.911   4.592  69.872  1.00  0.00    -0.298 C  
HETATM   11  C   UNL     1      -9.710   5.703  68.881  1.00  0.00    -0.181 C  
BRANCH   4  12
HETATM   12  O   UNL     1      -8.278   8.849  66.365  1.00  0.00    -0.111 OA 
HETATM   13  C   UNL     1      -8.723   9.093  65.036  1.00  0.00    -0.189 C  
ENDBRANCH   4  12
BRANCH   9  14
HETATM   14  C   UNL     1     -11.297   7.325  69.969  1.00  0.00    -0.195 C  
BRANCH  14  15
HETATM   15  C   UNL     1     -10.585   7.896  71.196  1.00  0.00    -0.238 C  
BRANCH  15  16
HETATM   16  C   UNL     1     -11.145   9.263  71.590  1.00  0.00    -0.438 C  
BRANCH  16  17
HETATM   17  C   UNL     1     -12.177   9.754  70.581  1.00  0.00    -0.283 C  
BRANCH  17  18
HETATM   18  C   UNL     1     -11.864  11.149  70.075  1.00  0.00    -0.441 C  
BRANCH  18  19
HETATM   19  C   UNL     1     -10.462  11.158  69.480  1.00  0.00    -0.080 C  
BRANCH  19  20
HETATM   20  C   UNL     1     -10.375  12.156  68.340  1.00  0.00    -0.236 C  
BRANCH  20  21
HETATM   21  C   UNL     1     -11.764  12.488  67.815  1.00  0.00    -0.419 C  
BRANCH  21  22
HETATM   22  C   UNL     1     -11.825  12.240  66.315  1.00  0.00    -0.387 C  
BRANCH  22  23
HETATM   23  C   UNL     1     -10.518  12.646  65.645  1.00  0.00    -0.298 C  
BRANCH  23  24
HETATM   24  C   UNL     1     -10.639  12.544  64.131  1.00  0.00    -0.425 C  
BRANCH  24  25
HETATM   25  C   UNL     1     -12.095  12.571  63.694  1.00  0.00    -0.554 C  
HETATM   26  O   UNL     1     -12.408  13.848  63.155  1.00  0.00    -1.122 OA 
HETATM   27  H   UNL     1     -13.317  13.865  62.881  1.00  0.00     0.000 HD 
ENDBRANCH  24  25
ENDBRANCH  23  24
ENDBRANCH  22  23
ENDBRANCH  21  22
ENDBRANCH  20  21
ENDBRANCH  19  20
ENDBRANCH  18  19
ENDBRANCH  17  18
ENDBRANCH  16  17
ENDBRANCH  15  16
ENDBRANCH  14  15
ENDBRANCH   9  14
ENDBRANCH   2   3
TORSDOF 14
ENDMDL
MODEL      188
REMARK 921   NORMALIZED FREE ENERGY PREDICTED BY IDOCK:   -3.68 KCAL/MOL
REMARK 922        TOTAL FREE ENERGY PREDICTED BY IDOCK:   -8.52 KCAL/MOL
REMARK 923 INTER-LIGAND FREE ENERGY PREDICTED BY IDOCK:   -5.69 KCAL/MOL
REMARK 924 INTRA-LIGAND FREE ENERGY PREDICTED BY IDOCK:   -2.83 KCAL/MOL
REMARK 927      BINDING AFFINITY PREDICTED BY RF-SCORE:    0.00 PKD
ROOT
HETATM    1  C   UNL     1      -5.759   9.341  71.672  1.00  0.00    -0.074 C  
HETATM    2  O   UNL     1      -5.723   8.336  72.677  1.00  0.00    -0.043 OA 
ENDROOT
BRANCH   2   3
HETATM    3  C   UNL     1      -6.775   7.423  72.687  1.00  0.00    -0.063 C  
HETATM    4  C   UNL     1      -6.589   6.227  72.100  1.00  0.00    -0.059 C  
HETATM    5  C   UNL     1      -7.719   5.250  72.083  1.00  0.00    -0.100 C  
HETATM    6  O   UNL     1      -8.270   8.681  74.086  1.00  0.00    -0.341 OA 
HETATM    7  O   UNL     1      -7.562   4.043  71.929  1.00  0.00    -0.062 OA 
HETATM    8  C   UNL     1      -8.110   7.766  73.286  1.00  0.00    -0.148 C  
HETATM    9  C   UNL     1      -9.095   5.805  72.218  1.00  0.00    -0.145 C  
HETATM   10  C   UNL     1     -10.620   7.620  73.099  1.00  0.00    -0.438 C  
HETATM   11  C   UNL     1      -9.285   6.988  72.823  1.00  0.00    -0.157 C  
BRANCH   4  12
HETATM   12  O   UNL     1      -5.342   5.946  71.542  1.00  0.00    -0.019 OA 
HETATM   13  C   UNL     1      -5.225   5.926  70.124  1.00  0.00    -0.009 C  
ENDBRANCH   4  12
BRANCH   9  14
HETATM   14  C   UNL     1     -10.185   4.967  71.625  1.00  0.00    -0.275 C  
BRANCH  14  15
HETATM   15  C   UNL     1     -10.280   5.099  70.103  1.00  0.00    -0.348 C  
BRANCH  15  16
HETATM   16  C   UNL     1     -11.290   6.170  69.690  1.00  0.00    -0.442 C  
BRANCH  16  17
HETATM   17  C   UNL     1     -11.122   6.558  68.226  1.00  0.00    -0.332 C  
BRANCH  17  18
HETATM   18  C   UNL     1      -9.667   6.765  67.851  1.00  0.00    -0.138 C  
BRANCH  18  19
HETATM   19  C   UNL     1      -9.306   8.231  68.053  1.00  0.00    -0.141 C  
BRANCH  19  20
HETATM   20  C   UNL     1      -8.520   8.413  69.339  1.00  0.00    -0.125 C  
BRANCH  20  21
HETATM   21  C   UNL     1      -9.132   9.519  70.186  1.00  0.00    -0.276 C  
BRANCH  21  22
HETATM   22  C   UNL     1     -10.464   9.951  69.593  1.00  0.00    -0.273 C  
BRANCH  22  23
HETATM   23  C   UNL     1     -11.501  10.167  70.688  1.00  0.00    -0.432 C  
BRANCH  23  24
HETATM   24  C   UNL     1     -12.151  11.537  70.547  1.00  0.00    -0.472 C  
BRANCH  24  25
HETATM   25  C   UNL     1     -11.682  12.239  69.283  1.00  0.00    -0.330 C  
HETATM   26  O   UNL     1     -11.102  13.491  69.619  1.00  0.00    -0.444 OA 
HETATM   27  H   UNL     1     -10.809  13.929  68.829  1.00  0.00     0.000 HD 
ENDBRANCH  24  25
ENDBRANCH  23  24
ENDBRANCH  22  23
ENDBRANCH  21  22
ENDBRANCH  20  21
ENDBRANCH  19  20
ENDBRANCH  18  19
ENDBRANCH  17  18
ENDBRANCH  16  17
ENDBRANCH  15  16
ENDBRANCH  14  15
ENDBRANCH   9  14
ENDBRANCH   2   3
TORSDOF 14
ENDMDL
MODEL      189
REMARK 921   NORMALIZED FREE ENERGY PREDICTED BY IDOCK:   -3.68 KCAL/MOL
REMARK 922        TOTAL FREE ENERGY PREDICTED BY IDOCK:   -8.51 KCAL/MOL
REMARK 923 INTER-LIGAND FREE ENERGY PREDICTED BY IDOCK:   -7.09 KCAL/MOL
REMARK 924 INTRA-LIGAND FREE ENERGY PREDICTED BY IDOCK:   -1.42 KCAL/MOL
REMARK 927      BINDING AFFINITY PREDICTED BY RF-SCORE:    0.00 PKD
ROOT
HETATM    1  C   UNL     1      -8.017  18.024  66.065  1.00  0.00    -0.121 C  
HETATM    2  O   UNL     1      -9.400  18.160  65.766  1.00  0.00    -0.476 OA 
ENDROOT
BRANCH   2   3
HETATM    3  C   UNL     1     -10.244  17.161  66.245  1.00  0.00    -0.334 C  
HETATM    4  C   UNL     1     -10.382  17.025  67.576  1.00  0.00    -0.329 C  
HETATM    5  C   UNL     1     -11.266  15.940  68.101  1.00  0.00    -0.339 C  
HETATM    6  O   UNL     1     -11.122  16.449  64.125  1.00  0.00    -0.809 OA 
HETATM    7  O   UNL     1     -11.754  15.957  69.226  1.00  0.00    -0.367 OA 
HETATM    8  C   UNL     1     -10.951  16.215  65.316  1.00  0.00    -0.270 C  
HETATM    9  C   UNL     1     -11.511  14.775  67.205  1.00  0.00    -0.378 C  
HETATM   10  C   UNL     1     -11.695  13.849  64.859  1.00  0.00    -0.378 C  
HETATM   11  C   UNL     1     -11.396  14.914  65.875  1.00  0.00    -0.306 C  
BRANCH   4  12
HETATM   12  O   UNL     1      -9.702  17.911  68.410  1.00  0.00    -0.306 OA 
HETATM   13  C   UNL     1     -10.280  19.186  68.658  1.00  0.00    -0.330 C  
ENDBRANCH   4  12
BRANCH   9  14
HETATM   14  C   UNL     1     -11.861  13.495  67.900  1.00  0.00    -0.397 C  
BRANCH  14  15
HETATM   15  C   UNL     1     -10.637  12.630  68.211  1.00  0.00    -0.250 C  
BRANCH  15  16
HETATM   16  C   UNL     1     -10.978  11.141  68.195  1.00  0.00    -0.292 C  
BRANCH  16  17
HETATM   17  C   UNL     1     -10.552  10.485  66.887  1.00  0.00    -0.303 C  
BRANCH  17  18
HETATM   18  C   UNL     1      -9.200   9.808  66.999  1.00  0.00    -0.166 C  
BRANCH  18  19
HETATM   19  C   UNL     1      -8.825   9.690  68.470  1.00  0.00    -0.124 C  
BRANCH  19  20
HETATM   20  C   UNL     1      -7.390  10.134  68.690  1.00  0.00    -0.082 C  
BRANCH  20  21
HETATM   21  C   UNL     1      -6.789  10.658  67.394  1.00  0.00    -0.077 C  
BRANCH  21  22
HETATM   22  C   UNL     1      -6.305  12.087  67.586  1.00  0.00    -0.099 C  
BRANCH  22  23
HETATM   23  C   UNL     1      -6.814  12.660  68.902  1.00  0.00    -0.097 C  
BRANCH  23  24
HETATM   24  C   UNL     1      -5.798  13.627  69.493  1.00  0.00    -0.102 C  
BRANCH  24  25
HETATM   25  C   UNL     1      -6.486  14.818  70.141  1.00  0.00    -0.163 C  
HETATM   26  O   UNL     1      -7.678  15.123  69.433  1.00  0.00    -0.193 OA 
HETATM   27  H   UNL     1      -8.109  15.867  69.838  1.00  0.00     0.000 HD 
ENDBRANCH  24  25
ENDBRANCH  23  24
ENDBRANCH  22  23
ENDBRANCH  21  22
ENDBRANCH  20  21
ENDBRANCH  19  20
ENDBRANCH  18  19
ENDBRANCH  17  18
ENDBRANCH  16  17
ENDBRANCH  15  16
ENDBRANCH  14  15
ENDBRANCH   9  14
ENDBRANCH   2   3
TORSDOF 14
ENDMDL
MODEL      190
REMARK 921   NORMALIZED FREE ENERGY PREDICTED BY IDOCK:   -3.67 KCAL/MOL
REMARK 922        TOTAL FREE ENERGY PREDICTED BY IDOCK:   -8.50 KCAL/MOL
REMARK 923 INTER-LIGAND FREE ENERGY PREDICTED BY IDOCK:   -7.10 KCAL/MOL
REMARK 924 INTRA-LIGAND FREE ENERGY PREDICTED BY IDOCK:   -1.40 KCAL/MOL
REMARK 927      BINDING AFFINITY PREDICTED BY RF-SCORE:    0.00 PKD
ROOT
HETATM    1  C   UNL     1      -7.740  19.879  65.858  1.00  0.00    -0.315 C  
HETATM    2  O   UNL     1      -9.028  19.720  66.436  1.00  0.00    -0.352 OA 
ENDROOT
BRANCH   2   3
HETATM    3  C   UNL     1      -9.395  18.426  66.799  1.00  0.00    -0.296 C  
HETATM    4  C   UNL     1      -8.965  17.947  67.980  1.00  0.00    -0.267 C  
HETATM    5  C   UNL     1      -9.332  16.552  68.368  1.00  0.00    -0.221 C  
HETATM    6  O   UNL     1     -10.878  17.992  64.959  1.00  0.00    -0.738 OA 
HETATM    7  O   UNL     1      -9.328  16.154  69.528  1.00  0.00    -0.223 OA 
HETATM    8  C   UNL     1     -10.206  17.551  65.885  1.00  0.00    -0.242 C  
HETATM    9  C   UNL     1      -9.672  15.610  67.264  1.00  0.00    -0.219 C  
HETATM   10  C   UNL     1     -10.579  15.247  64.932  1.00  0.00    -0.379 C  
HETATM   11  C   UNL     1     -10.122  16.085  66.092  1.00  0.00    -0.346 C  
BRANCH   4  12
HETATM   12  O   UNL     1      -8.203  18.781  68.798  1.00  0.00    -0.337 OA 
HETATM   13  C   UNL     1      -6.829  18.469  68.988  1.00  0.00    -0.274 C  
ENDBRANCH   4  12
BRANCH   9  14
HETATM   14  C   UNL     1      -9.453  14.160  67.568  1.00  0.00    -0.210 C  
BRANCH  14  15
HETATM   15  C   UNL     1      -8.009  13.712  67.337  1.00  0.00    -0.177 C  
BRANCH  15  16
HETATM   16  C   UNL     1      -7.331  13.292  68.641  1.00  0.00    -0.101 C  
BRANCH  16  17
HETATM   17  C   UNL     1      -6.585  11.973  68.482  1.00  0.00    -0.062 C  
BRANCH  17  18
HETATM   18  C   UNL     1      -6.981  10.959  69.538  1.00  0.00    -0.131 C  
BRANCH  18  19
HETATM   19  C   UNL     1      -8.277  10.281  69.113  1.00  0.00    -0.152 C  
BRANCH  19  20
HETATM   20  C   UNL     1      -8.882   9.516  70.276  1.00  0.00    -0.281 C  
BRANCH  20  21
HETATM   21  C   UNL     1     -10.383   9.754  70.348  1.00  0.00    -0.354 C  
BRANCH  21  22
HETATM   22  C   UNL     1     -10.761  10.952  69.490  1.00  0.00    -0.251 C  
BRANCH  22  23
HETATM   23  C   UNL     1     -11.509  10.509  68.240  1.00  0.00    -0.272 C  
BRANCH  23  24
HETATM   24  C   UNL     1     -11.202  11.439  67.075  1.00  0.00    -0.350 C  
BRANCH  24  25
HETATM   25  C   UNL     1     -10.315  10.756  66.047  1.00  0.00    -0.238 C  
HETATM   26  O   UNL     1     -10.741  11.109  64.739  1.00  0.00    -0.314 OA 
HETATM   27  H   UNL     1     -10.187  10.682  64.096  1.00  0.00     0.000 HD 
ENDBRANCH  24  25
ENDBRANCH  23  24
ENDBRANCH  22  23
ENDBRANCH  21  22
ENDBRANCH  20  21
ENDBRANCH  19  20
ENDBRANCH  18  19
ENDBRANCH  17  18
ENDBRANCH  16  17
ENDBRANCH  15  16
ENDBRANCH  14  15
ENDBRANCH   9  14
ENDBRANCH   2   3
TORSDOF 14
ENDMDL
MODEL      191
REMARK 921   NORMALIZED FREE ENERGY PREDICTED BY IDOCK:   -3.66 KCAL/MOL
REMARK 922        TOTAL FREE ENERGY PREDICTED BY IDOCK:   -8.48 KCAL/MOL
REMARK 923 INTER-LIGAND FREE ENERGY PREDICTED BY IDOCK:   -6.75 KCAL/MOL
REMARK 924 INTRA-LIGAND FREE ENERGY PREDICTED BY IDOCK:   -1.73 KCAL/MOL
REMARK 927      BINDING AFFINITY PREDICTED BY RF-SCORE:    0.00 PKD
ROOT
HETATM    1  C   UNL     1     -11.153  10.947  67.359  1.00  0.00    -0.307 C  
HETATM    2  O   UNL     1     -10.340  11.417  68.426  1.00  0.00    -0.181 OA 
ENDROOT
BRANCH   2   3
HETATM    3  C   UNL     1     -10.446  10.738  69.639  1.00  0.00    -0.140 C  
HETATM    4  C   UNL     1      -9.468   9.879  69.977  1.00  0.00    -0.202 C  
HETATM    5  C   UNL     1      -9.584   9.127  71.263  1.00  0.00    -0.261 C  
HETATM    6  O   UNL     1     -12.403  11.865  70.460  1.00  0.00    -0.330 OA 
HETATM    7  O   UNL     1      -8.623   8.630  71.840  1.00  0.00    -0.196 OA 
HETATM    8  C   UNL     1     -11.640  10.909  70.535  1.00  0.00    -0.300 C  
HETATM    9  C   UNL     1     -10.954   8.953  71.824  1.00  0.00    -0.431 C  
HETATM   10  C   UNL     1     -13.320   9.812  72.063  1.00  0.00    -0.547 C  
HETATM   11  C   UNL     1     -11.925   9.822  71.505  1.00  0.00    -0.488 C  
BRANCH   4  12
HETATM   12  O   UNL     1      -8.381   9.734  69.116  1.00  0.00    -0.119 OA 
HETATM   13  C   UNL     1      -7.209  10.497  69.373  1.00  0.00    -0.117 C  
ENDBRANCH   4  12
BRANCH   9  14
HETATM   14  C   UNL     1     -11.136   7.763  72.715  1.00  0.00    -0.457 C  
BRANCH  14  15
HETATM   15  C   UNL     1     -11.588   6.512  71.957  1.00  0.00    -0.354 C  
BRANCH  15  16
HETATM   16  C   UNL     1     -10.494   5.445  71.922  1.00  0.00    -0.283 C  
BRANCH  16  17
HETATM   17  C   UNL     1     -10.164   5.033  70.493  1.00  0.00    -0.316 C  
BRANCH  17  18
HETATM   18  C   UNL     1     -10.822   5.939  69.469  1.00  0.00    -0.442 C  
BRANCH  18  19
HETATM   19  C   UNL     1     -10.220   5.656  68.098  1.00  0.00    -0.236 C  
BRANCH  19  20
HETATM   20  C   UNL     1      -9.331   6.806  67.661  1.00  0.00    -0.121 C  
BRANCH  20  21
HETATM   21  C   UNL     1      -7.983   6.286  67.184  1.00  0.00    -0.109 C  
BRANCH  21  22
HETATM   22  C   UNL     1      -8.065   4.789  66.925  1.00  0.00    -0.107 C  
BRANCH  22  23
HETATM   23  C   UNL     1      -7.872   4.484  65.446  1.00  0.00    -0.090 C  
BRANCH  23  24
HETATM   24  C   UNL     1      -9.206   4.520  64.713  1.00  0.00    -0.152 C  
BRANCH  24  25
HETATM   25  C   UNL     1      -9.596   3.138  64.215  1.00  0.00    -0.150 C  
HETATM   26  O   UNL     1     -10.033   2.343  65.308  1.00  0.00    -0.313 OA 
HETATM   27  H   UNL     1     -10.277   1.479  64.997  1.00  0.00     0.000 HD 
ENDBRANCH  24  25
ENDBRANCH  23  24
ENDBRANCH  22  23
ENDBRANCH  21  22
ENDBRANCH  20  21
ENDBRANCH  19  20
ENDBRANCH  18  19
ENDBRANCH  17  18
ENDBRANCH  16  17
ENDBRANCH  15  16
ENDBRANCH  14  15
ENDBRANCH   9  14
ENDBRANCH   2   3
TORSDOF 14
ENDMDL
MODEL      192
REMARK 921   NORMALIZED FREE ENERGY PREDICTED BY IDOCK:   -3.66 KCAL/MOL
REMARK 922        TOTAL FREE ENERGY PREDICTED BY IDOCK:   -8.47 KCAL/MOL
REMARK 923 INTER-LIGAND FREE ENERGY PREDICTED BY IDOCK:   -6.52 KCAL/MOL
REMARK 924 INTRA-LIGAND FREE ENERGY PREDICTED BY IDOCK:   -1.95 KCAL/MOL
REMARK 927      BINDING AFFINITY PREDICTED BY RF-SCORE:    0.00 PKD
ROOT
HETATM    1  C   UNL     1     -12.937  14.094  65.325  1.00  0.00    -0.237 C  
HETATM    2  O   UNL     1     -11.702  14.187  66.021  1.00  0.00    -0.356 OA 
ENDROOT
BRANCH   2   3
HETATM    3  C   UNL     1     -11.245  13.027  66.643  1.00  0.00    -0.307 C  
HETATM    4  C   UNL     1     -10.475  12.182  65.934  1.00  0.00    -0.254 C  
HETATM    5  C   UNL     1     -10.001  10.923  66.584  1.00  0.00    -0.208 C  
HETATM    6  O   UNL     1     -12.063  13.512  68.850  1.00  0.00    -0.341 OA 
HETATM    7  O   UNL     1      -9.025  10.291  66.193  1.00  0.00    -0.149 OA 
HETATM    8  C   UNL     1     -11.635  12.684  68.053  1.00  0.00    -0.343 C  
HETATM    9  C   UNL     1     -10.799  10.413  67.734  1.00  0.00    -0.351 C  
HETATM   10  C   UNL     1     -12.334  10.894  69.686  1.00  0.00    -0.290 C  
HETATM   11  C   UNL     1     -11.551  11.259  68.457  1.00  0.00    -0.384 C  
BRANCH   4  12
HETATM   12  O   UNL     1     -10.143  12.525  64.624  1.00  0.00    -0.284 OA 
HETATM   13  C   UNL     1     -10.581  11.675  63.571  1.00  0.00    -0.435 C  
ENDBRANCH   4  12
BRANCH   9  14
HETATM   14  C   UNL     1     -10.702   8.939  67.979  1.00  0.00    -0.168 C  
BRANCH  14  15
HETATM   15  C   UNL     1      -9.837   8.590  69.192  1.00  0.00    -0.186 C  
BRANCH  15  16
HETATM   16  C   UNL     1     -10.016   7.131  69.613  1.00  0.00    -0.176 C  
BRANCH  16  17
HETATM   17  C   UNL     1      -8.738   6.329  69.401  1.00  0.00    -0.128 C  
BRANCH  17  18
HETATM   18  C   UNL     1      -7.493   7.154  69.668  1.00  0.00    -0.098 C  
BRANCH  18  19
HETATM   19  C   UNL     1      -6.444   6.824  68.614  1.00  0.00    -0.040 C  
BRANCH  19  20
HETATM   20  C   UNL     1      -6.659   7.663  67.368  1.00  0.00    -0.063 C  
BRANCH  20  21
HETATM   21  C   UNL     1      -6.798   6.773  66.143  1.00  0.00    -0.060 C  
BRANCH  21  22
HETATM   22  C   UNL     1      -8.215   6.856  65.597  1.00  0.00    -0.134 C  
BRANCH  22  23
HETATM   23  C   UNL     1      -8.638   5.528  64.982  1.00  0.00    -0.128 C  
BRANCH  23  24
HETATM   24  C   UNL     1      -9.200   4.600  66.050  1.00  0.00    -0.144 C  
BRANCH  24  25
HETATM   25  C   UNL     1     -10.676   4.873  66.293  1.00  0.00    -0.158 C  
HETATM   26  O   UNL     1     -11.422   4.532  65.134  1.00  0.00    -1.105 OA 
HETATM   27  H   UNL     1     -12.344   4.702  65.286  1.00  0.00     0.000 HD 
ENDBRANCH  24  25
ENDBRANCH  23  24
ENDBRANCH  22  23
ENDBRANCH  21  22
ENDBRANCH  20  21
ENDBRANCH  19  20
ENDBRANCH  18  19
ENDBRANCH  17  18
ENDBRANCH  16  17
ENDBRANCH  15  16
ENDBRANCH  14  15
ENDBRANCH   9  14
ENDBRANCH   2   3
TORSDOF 14
ENDMDL
MODEL      193
REMARK 921   NORMALIZED FREE ENERGY PREDICTED BY IDOCK:   -3.65 KCAL/MOL
REMARK 922        TOTAL FREE ENERGY PREDICTED BY IDOCK:   -8.45 KCAL/MOL
REMARK 923 INTER-LIGAND FREE ENERGY PREDICTED BY IDOCK:   -7.64 KCAL/MOL
REMARK 924 INTRA-LIGAND FREE ENERGY PREDICTED BY IDOCK:   -0.81 KCAL/MOL
REMARK 927      BINDING AFFINITY PREDICTED BY RF-SCORE:    0.00 PKD
ROOT
HETATM    1  C   UNL     1      -7.361  19.765  65.997  1.00  0.00    -0.307 C  
HETATM    2  O   UNL     1      -8.717  19.910  66.396  1.00  0.00    -0.340 OA 
ENDROOT
BRANCH   2   3
HETATM    3  C   UNL     1      -9.402  18.740  66.720  1.00  0.00    -0.318 C  
HETATM    4  C   UNL     1      -9.126  18.143  67.894  1.00  0.00    -0.265 C  
HETATM    5  C   UNL     1      -9.836  16.874  68.240  1.00  0.00    -0.266 C  
HETATM    6  O   UNL     1     -10.913  18.732  64.852  1.00  0.00    -0.439 OA 
HETATM    7  O   UNL     1      -9.952  16.461  69.389  1.00  0.00    -0.253 OA 
HETATM    8  C   UNL     1     -10.389  18.117  65.774  1.00  0.00    -0.172 C  
HETATM    9  C   UNL     1     -10.380  16.073  67.108  1.00  0.00    -0.295 C  
HETATM   10  C   UNL     1     -11.307  16.001  64.756  1.00  0.00    -0.285 C  
HETATM   11  C   UNL     1     -10.677  16.671  65.943  1.00  0.00    -0.179 C  
BRANCH   4  12
HETATM   12  O   UNL     1      -8.195  18.740  68.742  1.00  0.00    -0.337 OA 
HETATM   13  C   UNL     1      -6.991  18.038  69.027  1.00  0.00    -0.248 C  
ENDBRANCH   4  12
BRANCH   9  14
HETATM   14  C   UNL     1     -10.536  14.608  67.376  1.00  0.00    -0.255 C  
BRANCH  14  15
HETATM   15  C   UNL     1      -9.701  13.736  66.435  1.00  0.00    -0.304 C  
BRANCH  15  16
HETATM   16  C   UNL     1      -8.752  12.819  67.207  1.00  0.00    -0.200 C  
BRANCH  16  17
HETATM   17  C   UNL     1      -8.843  11.380  66.713  1.00  0.00    -0.179 C  
BRANCH  17  18
HETATM   18  C   UNL     1      -9.486  10.464  67.737  1.00  0.00    -0.159 C  
BRANCH  18  19
HETATM   19  C   UNL     1     -10.673  11.180  68.368  1.00  0.00    -0.234 C  
BRANCH  19  20
HETATM   20  C   UNL     1     -11.372  10.274  69.364  1.00  0.00    -0.279 C  
BRANCH  20  21
HETATM   21  C   UNL     1     -11.840  11.070  70.573  1.00  0.00    -0.464 C  
BRANCH  21  22
HETATM   22  C   UNL     1     -12.107  12.513  70.173  1.00  0.00    -0.368 C  
BRANCH  22  23
HETATM   23  C   UNL     1     -12.359  13.378  71.401  1.00  0.00    -0.214 C  
BRANCH  23  24
HETATM   24  C   UNL     1     -12.721  14.799  70.990  1.00  0.00    -0.411 C  
BRANCH  24  25
HETATM   25  C   UNL     1     -13.180  15.616  72.186  1.00  0.00    -0.461 C  
HETATM   26  O   UNL     1     -12.085  15.832  73.065  1.00  0.00    -0.416 OA 
HETATM   27  H   UNL     1     -12.372  16.344  73.813  1.00  0.00     0.000 HD 
ENDBRANCH  24  25
ENDBRANCH  23  24
ENDBRANCH  22  23
ENDBRANCH  21  22
ENDBRANCH  20  21
ENDBRANCH  19  20
ENDBRANCH  18  19
ENDBRANCH  17  18
ENDBRANCH  16  17
ENDBRANCH  15  16
ENDBRANCH  14  15
ENDBRANCH   9  14
ENDBRANCH   2   3
TORSDOF 14
ENDMDL
MODEL      194
REMARK 921   NORMALIZED FREE ENERGY PREDICTED BY IDOCK:   -3.64 KCAL/MOL
REMARK 922        TOTAL FREE ENERGY PREDICTED BY IDOCK:   -8.45 KCAL/MOL
REMARK 923 INTER-LIGAND FREE ENERGY PREDICTED BY IDOCK:   -6.75 KCAL/MOL
REMARK 924 INTRA-LIGAND FREE ENERGY PREDICTED BY IDOCK:   -1.69 KCAL/MOL
REMARK 927      BINDING AFFINITY PREDICTED BY RF-SCORE:    0.00 PKD
ROOT
HETATM    1  C   UNL     1      -6.111  10.140  63.272  1.00  0.00    -0.142 C  
HETATM    2  O   UNL     1      -6.848   9.423  64.253  1.00  0.00    -0.089 OA 
ENDROOT
BRANCH   2   3
HETATM    3  C   UNL     1      -7.433  10.176  65.270  1.00  0.00    -0.145 C  
HETATM    4  C   UNL     1      -8.756  10.408  65.212  1.00  0.00    -0.179 C  
HETATM    5  C   UNL     1      -9.390  11.234  66.284  1.00  0.00    -0.207 C  
HETATM    6  O   UNL     1      -5.494  10.366  66.676  1.00  0.00    -0.044 OA 
HETATM    7  O   UNL     1     -10.588  11.196  66.542  1.00  0.00    -0.247 OA 
HETATM    8  C   UNL     1      -6.615  10.767  66.383  1.00  0.00    -0.128 C  
HETATM    9  C   UNL     1      -8.502  12.173  67.027  1.00  0.00    -0.183 C  
HETATM   10  C   UNL     1      -6.195  12.746  67.888  1.00  0.00    -0.115 C  
HETATM   11  C   UNL     1      -7.184  11.931  67.104  1.00  0.00    -0.144 C  
BRANCH   4  12
HETATM   12  O   UNL     1      -9.484   9.856  64.158  1.00  0.00    -0.280 OA 
HETATM   13  C   UNL     1      -9.908  10.714  63.106  1.00  0.00    -0.302 C  
ENDBRANCH   4  12
BRANCH   9  14
HETATM   14  C   UNL     1      -9.187  13.361  67.630  1.00  0.00    -0.212 C  
BRANCH  14  15
HETATM   15  C   UNL     1      -9.371  14.512  66.638  1.00  0.00    -0.301 C  
BRANCH  15  16
HETATM   16  C   UNL     1     -10.675  15.269  66.886  1.00  0.00    -0.313 C  
BRANCH  16  17
HETATM   17  C   UNL     1     -10.513  16.313  67.985  1.00  0.00    -0.293 C  
BRANCH  17  18
HETATM   18  C   UNL     1     -11.534  16.139  69.094  1.00  0.00    -0.311 C  
BRANCH  18  19
HETATM   19  C   UNL     1     -12.160  14.755  68.980  1.00  0.00    -0.256 C  
BRANCH  19  20
HETATM   20  C   UNL     1     -12.113  14.039  70.317  1.00  0.00    -0.425 C  
BRANCH  20  21
HETATM   21  C   UNL     1     -12.072  12.532  70.113  1.00  0.00    -0.368 C  
BRANCH  21  22
HETATM   22  C   UNL     1     -12.724  11.830  71.295  1.00  0.00    -0.420 C  
BRANCH  22  23
HETATM   23  C   UNL     1     -12.964  10.358  70.986  1.00  0.00    -0.490 C  
BRANCH  23  24
HETATM   24  C   UNL     1     -11.777   9.516  71.433  1.00  0.00    -0.465 C  
BRANCH  24  25
HETATM   25  C   UNL     1     -11.025   8.950  70.240  1.00  0.00    -0.241 C  
HETATM   26  O   UNL     1     -11.535   9.517  69.042  1.00  0.00    -0.452 OA 
HETATM   27  H   UNL     1     -11.065   9.163  68.296  1.00  0.00     0.000 HD 
ENDBRANCH  24  25
ENDBRANCH  23  24
ENDBRANCH  22  23
ENDBRANCH  21  22
ENDBRANCH  20  21
ENDBRANCH  19  20
ENDBRANCH  18  19
ENDBRANCH  17  18
ENDBRANCH  16  17
ENDBRANCH  15  16
ENDBRANCH  14  15
ENDBRANCH   9  14
ENDBRANCH   2   3
TORSDOF 14
ENDMDL
MODEL      195
REMARK 921   NORMALIZED FREE ENERGY PREDICTED BY IDOCK:   -3.64 KCAL/MOL
REMARK 922        TOTAL FREE ENERGY PREDICTED BY IDOCK:   -8.44 KCAL/MOL
REMARK 923 INTER-LIGAND FREE ENERGY PREDICTED BY IDOCK:   -6.13 KCAL/MOL
REMARK 924 INTRA-LIGAND FREE ENERGY PREDICTED BY IDOCK:   -2.31 KCAL/MOL
REMARK 927      BINDING AFFINITY PREDICTED BY RF-SCORE:    0.00 PKD
ROOT
HETATM    1  C   UNL     1      -7.297  10.543  69.965  1.00  0.00    -0.052 C  
HETATM    2  O   UNL     1      -7.175   9.622  71.041  1.00  0.00    -0.309 OA 
ENDROOT
BRANCH   2   3
HETATM    3  C   UNL     1      -7.821   8.396  70.890  1.00  0.00    -0.098 C  
HETATM    4  C   UNL     1      -7.110   7.353  70.427  1.00  0.00    -0.064 C  
HETATM    5  C   UNL     1      -7.798   6.040  70.238  1.00  0.00    -0.102 C  
HETATM    6  O   UNL     1      -9.920   9.023  71.877  1.00  0.00    -0.332 OA 
HETATM    7  O   UNL     1      -7.202   4.969  70.192  1.00  0.00    -0.055 OA 
HETATM    8  C   UNL     1      -9.286   8.236  71.183  1.00  0.00    -0.162 C  
HETATM    9  C   UNL     1      -9.277   6.072  70.056  1.00  0.00    -0.160 C  
HETATM   10  C   UNL     1     -11.488   7.217  70.497  1.00  0.00    -0.334 C  
HETATM   11  C   UNL     1      -9.990   7.102  70.537  1.00  0.00    -0.191 C  
BRANCH   4  12
HETATM   12  O   UNL     1      -5.755   7.539  70.153  1.00  0.00    -0.023 OA 
HETATM   13  C   UNL     1      -5.327   7.492  68.797  1.00  0.00    -0.022 C  
ENDBRANCH   4  12
BRANCH   9  14
HETATM   14  C   UNL     1      -9.855   4.913  69.304  1.00  0.00    -0.272 C  
BRANCH  14  15
HETATM   15  C   UNL     1      -9.582   4.980  67.800  1.00  0.00    -0.178 C  
BRANCH  15  16
HETATM   16  C   UNL     1     -10.773   5.553  67.033  1.00  0.00    -0.286 C  
BRANCH  16  17
HETATM   17  C   UNL     1     -10.679   7.069  66.910  1.00  0.00    -0.376 C  
BRANCH  17  18
HETATM   18  C   UNL     1      -9.264   7.534  66.623  1.00  0.00    -0.201 C  
BRANCH  18  19
HETATM   19  C   UNL     1      -9.095   8.957  67.138  1.00  0.00    -0.160 C  
BRANCH  19  20
HETATM   20  C   UNL     1     -10.412   9.487  67.677  1.00  0.00    -0.321 C  
BRANCH  20  21
HETATM   21  C   UNL     1     -10.337  10.992  67.882  1.00  0.00    -0.213 C  
BRANCH  21  22
HETATM   22  C   UNL     1     -11.719  11.608  67.723  1.00  0.00    -0.315 C  
BRANCH  22  23
HETATM   23  C   UNL     1     -11.620  13.036  67.203  1.00  0.00    -0.411 C  
BRANCH  23  24
HETATM   24  C   UNL     1     -11.170  13.047  65.749  1.00  0.00    -0.316 C  
BRANCH  24  25
HETATM   25  C   UNL     1     -12.239  13.644  64.848  1.00  0.00    -0.414 C  
HETATM   26  O   UNL     1     -13.160  12.633  64.466  1.00  0.00    -0.763 OA 
HETATM   27  H   UNL     1     -13.829  13.005  63.903  1.00  0.00     0.000 HD 
ENDBRANCH  24  25
ENDBRANCH  23  24
ENDBRANCH  22  23
ENDBRANCH  21  22
ENDBRANCH  20  21
ENDBRANCH  19  20
ENDBRANCH  18  19
ENDBRANCH  17  18
ENDBRANCH  16  17
ENDBRANCH  15  16
ENDBRANCH  14  15
ENDBRANCH   9  14
ENDBRANCH   2   3
TORSDOF 14
ENDMDL
MODEL      196
REMARK 921   NORMALIZED FREE ENERGY PREDICTED BY IDOCK:   -3.64 KCAL/MOL
REMARK 922        TOTAL FREE ENERGY PREDICTED BY IDOCK:   -8.44 KCAL/MOL
REMARK 923 INTER-LIGAND FREE ENERGY PREDICTED BY IDOCK:   -7.32 KCAL/MOL
REMARK 924 INTRA-LIGAND FREE ENERGY PREDICTED BY IDOCK:   -1.11 KCAL/MOL
REMARK 927      BINDING AFFINITY PREDICTED BY RF-SCORE:    0.00 PKD
ROOT
HETATM    1  C   UNL     1      -9.088   4.728  69.141  1.00  0.00    -0.110 C  
HETATM    2  O   UNL     1     -10.320   5.188  68.602  1.00  0.00    -0.154 OA 
ENDROOT
BRANCH   2   3
HETATM    3  C   UNL     1     -10.624   6.534  68.797  1.00  0.00    -0.243 C  
HETATM    4  C   UNL     1     -10.376   7.397  67.795  1.00  0.00    -0.213 C  
HETATM    5  C   UNL     1     -10.675   8.846  68.002  1.00  0.00    -0.108 C  
HETATM    6  O   UNL     1     -11.695   6.308  70.935  1.00  0.00    -0.333 OA 
HETATM    7  O   UNL     1     -10.847   9.635  67.080  1.00  0.00    -0.201 OA 
HETATM    8  C   UNL     1     -11.167   7.038  70.104  1.00  0.00    -0.284 C  
HETATM    9  C   UNL     1     -10.716   9.333  69.410  1.00  0.00    -0.222 C  
HETATM   10  C   UNL     1     -11.140   8.851  71.856  1.00  0.00    -0.442 C  
HETATM   11  C   UNL     1     -10.985   8.478  70.409  1.00  0.00    -0.254 C  
BRANCH   4  12
HETATM   12  O   UNL     1      -9.859   6.898  66.600  1.00  0.00    -0.181 OA 
HETATM   13  C   UNL     1      -8.505   7.189  66.275  1.00  0.00    -0.138 C  
ENDBRANCH   4  12
BRANCH   9  14
HETATM   14  C   UNL     1     -10.421  10.790  69.593  1.00  0.00    -0.183 C  
BRANCH  14  15
HETATM   15  C   UNL     1     -11.683  11.639  69.763  1.00  0.00    -0.425 C  
BRANCH  15  16
HETATM   16  C   UNL     1     -11.615  12.925  68.940  1.00  0.00    -0.360 C  
BRANCH  16  17
HETATM   17  C   UNL     1     -12.150  14.117  69.724  1.00  0.00    -0.409 C  
BRANCH  17  18
HETATM   18  C   UNL     1     -11.462  15.413  69.337  1.00  0.00    -0.335 C  
BRANCH  18  19
HETATM   19  C   UNL     1     -11.274  15.442  67.825  1.00  0.00    -0.321 C  
BRANCH  19  20
HETATM   20  C   UNL     1      -9.851  15.837  67.474  1.00  0.00    -0.229 C  
BRANCH  20  21
HETATM   21  C   UNL     1      -9.161  16.469  68.674  1.00  0.00    -0.238 C  
BRANCH  21  22
HETATM   22  C   UNL     1      -8.288  17.628  68.221  1.00  0.00    -0.274 C  
BRANCH  22  23
HETATM   23  C   UNL     1      -8.168  17.655  66.702  1.00  0.00    -0.291 C  
BRANCH  23  24
HETATM   24  C   UNL     1      -7.812  19.054  66.218  1.00  0.00    -0.303 C  
BRANCH  24  25
HETATM   25  C   UNL     1      -8.472  20.117  67.081  1.00  0.00    -0.342 C  
HETATM   26  O   UNL     1      -7.685  21.299  67.067  1.00  0.00    -0.733 OA 
HETATM   27  H   UNL     1      -8.098  21.964  67.606  1.00  0.00     0.000 HD 
ENDBRANCH  24  25
ENDBRANCH  23  24
ENDBRANCH  22  23
ENDBRANCH  21  22
ENDBRANCH  20  21
ENDBRANCH  19  20
ENDBRANCH  18  19
ENDBRANCH  17  18
ENDBRANCH  16  17
ENDBRANCH  15  16
ENDBRANCH  14  15
ENDBRANCH   9  14
ENDBRANCH   2   3
TORSDOF 14
ENDMDL
MODEL      197
REMARK 921   NORMALIZED FREE ENERGY PREDICTED BY IDOCK:   -3.64 KCAL/MOL
REMARK 922        TOTAL FREE ENERGY PREDICTED BY IDOCK:   -8.44 KCAL/MOL
REMARK 923 INTER-LIGAND FREE ENERGY PREDICTED BY IDOCK:   -6.78 KCAL/MOL
REMARK 924 INTRA-LIGAND FREE ENERGY PREDICTED BY IDOCK:   -1.66 KCAL/MOL
REMARK 927      BINDING AFFINITY PREDICTED BY RF-SCORE:    0.00 PKD
ROOT
HETATM    1  C   UNL     1     -11.004   5.250  73.385  1.00  0.00    -0.316 C  
HETATM    2  O   UNL     1      -9.713   5.483  72.837  1.00  0.00    -0.154 OA 
ENDROOT
BRANCH   2   3
HETATM    3  C   UNL     1      -9.648   6.317  71.722  1.00  0.00    -0.153 C  
HETATM    4  C   UNL     1      -9.357   7.616  71.913  1.00  0.00    -0.145 C  
HETATM    5  C   UNL     1      -9.310   8.525  70.728  1.00  0.00    -0.172 C  
HETATM    6  O   UNL     1      -9.914   4.619  70.043  1.00  0.00    -0.217 OA 
HETATM    7  O   UNL     1      -8.708   9.593  70.724  1.00  0.00    -0.214 OA 
HETATM    8  C   UNL     1      -9.942   5.808  70.340  1.00  0.00    -0.198 C  
HETATM    9  C   UNL     1     -10.077   8.104  69.522  1.00  0.00    -0.193 C  
HETATM   10  C   UNL     1     -11.036   6.239  68.109  1.00  0.00    -0.364 C  
HETATM   11  C   UNL     1     -10.349   6.805  69.319  1.00  0.00    -0.221 C  
BRANCH   4  12
HETATM   12  O   UNL     1      -9.103   8.058  73.211  1.00  0.00    -0.247 OA 
HETATM   13  C   UNL     1      -7.766   8.003  73.694  1.00  0.00    -0.174 C  
ENDBRANCH   4  12
BRANCH   9  14
HETATM   14  C   UNL     1     -10.511   9.216  68.618  1.00  0.00    -0.235 C  
BRANCH  14  15
HETATM   15  C   UNL     1      -9.486   9.535  67.528  1.00  0.00    -0.155 C  
BRANCH  15  16
HETATM   16  C   UNL     1     -10.014   9.188  66.136  1.00  0.00    -0.338 C  
BRANCH  16  17
HETATM   17  C   UNL     1     -10.086  10.421  65.243  1.00  0.00    -0.370 C  
BRANCH  17  18
HETATM   18  C   UNL     1      -9.791  11.698  66.006  1.00  0.00    -0.258 C  
BRANCH  18  19
HETATM   19  C   UNL     1     -10.899  12.707  65.733  1.00  0.00    -0.304 C  
BRANCH  19  20
HETATM   20  C   UNL     1     -11.090  13.623  66.928  1.00  0.00    -0.314 C  
BRANCH  20  21
HETATM   21  C   UNL     1     -10.745  12.895  68.219  1.00  0.00    -0.261 C  
BRANCH  21  22
HETATM   22  C   UNL     1     -10.954  13.819  69.409  1.00  0.00    -0.142 C  
BRANCH  22  23
HETATM   23  C   UNL     1     -12.105  13.330  70.279  1.00  0.00    -0.405 C  
BRANCH  23  24
HETATM   24  C   UNL     1     -12.154  11.809  70.295  1.00  0.00    -0.426 C  
BRANCH  24  25
HETATM   25  C   UNL     1     -12.769  11.294  71.586  1.00  0.00    -0.343 C  
HETATM   26  O   UNL     1     -13.182  12.390  72.389  1.00  0.00    -0.456 OA 
HETATM   27  H   UNL     1     -13.567  12.069  73.196  1.00  0.00     0.000 HD 
ENDBRANCH  24  25
ENDBRANCH  23  24
ENDBRANCH  22  23
ENDBRANCH  21  22
ENDBRANCH  20  21
ENDBRANCH  19  20
ENDBRANCH  18  19
ENDBRANCH  17  18
ENDBRANCH  16  17
ENDBRANCH  15  16
ENDBRANCH  14  15
ENDBRANCH   9  14
ENDBRANCH   2   3
TORSDOF 14
ENDMDL
MODEL      198
REMARK 921   NORMALIZED FREE ENERGY PREDICTED BY IDOCK:   -3.64 KCAL/MOL
REMARK 922        TOTAL FREE ENERGY PREDICTED BY IDOCK:   -8.43 KCAL/MOL
REMARK 923 INTER-LIGAND FREE ENERGY PREDICTED BY IDOCK:   -6.89 KCAL/MOL
REMARK 924 INTRA-LIGAND FREE ENERGY PREDICTED BY IDOCK:   -1.54 KCAL/MOL
REMARK 927      BINDING AFFINITY PREDICTED BY RF-SCORE:    0.00 PKD
ROOT
HETATM    1  C   UNL     1     -10.565   5.182  74.047  1.00  0.00    -0.288 C  
HETATM    2  O   UNL     1      -9.739   6.041  73.273  1.00  0.00    -0.153 OA 
ENDROOT
BRANCH   2   3
HETATM    3  C   UNL     1     -10.219   6.403  72.015  1.00  0.00    -0.194 C  
HETATM    4  C   UNL     1      -9.896   5.631  70.962  1.00  0.00    -0.178 C  
HETATM    5  C   UNL     1     -10.384   6.023  69.606  1.00  0.00    -0.232 C  
HETATM    6  O   UNL     1     -11.614   8.226  72.724  1.00  0.00    -0.395 OA 
HETATM    7  O   UNL     1     -10.479   5.235  68.671  1.00  0.00    -0.158 OA 
HETATM    8  C   UNL     1     -11.033   7.649  71.811  1.00  0.00    -0.239 C  
HETATM    9  C   UNL     1     -10.723   7.460  69.398  1.00  0.00    -0.220 C  
HETATM   10  C   UNL     1     -11.510   9.660  70.366  1.00  0.00    -0.325 C  
HETATM   11  C   UNL     1     -11.066   8.226  70.445  1.00  0.00    -0.238 C  
BRANCH   4  12
HETATM   12  O   UNL     1      -9.128   4.489  71.184  1.00  0.00    -0.124 OA 
HETATM   13  C   UNL     1      -9.775   3.222  71.159  1.00  0.00    -0.142 C  
ENDBRANCH   4  12
BRANCH   9  14
HETATM   14  C   UNL     1     -10.627   7.943  67.984  1.00  0.00    -0.194 C  
BRANCH  14  15
HETATM   15  C   UNL     1      -9.190   8.243  67.551  1.00  0.00    -0.155 C  
BRANCH  15  16
HETATM   16  C   UNL     1      -8.762   7.373  66.370  1.00  0.00    -0.154 C  
BRANCH  16  17
HETATM   17  C   UNL     1      -8.106   8.204  65.274  1.00  0.00    -0.136 C  
BRANCH  17  18
HETATM   18  C   UNL     1      -8.419   9.682  65.411  1.00  0.00    -0.155 C  
BRANCH  18  19
HETATM   19  C   UNL     1      -9.311  10.110  64.254  1.00  0.00    -0.349 C  
BRANCH  19  20
HETATM   20  C   UNL     1     -10.453  10.975  64.755  1.00  0.00    -0.384 C  
BRANCH  20  21
HETATM   21  C   UNL     1     -10.085  11.631  66.077  1.00  0.00    -0.259 C  
BRANCH  21  22
HETATM   22  C   UNL     1     -11.306  11.700  66.982  1.00  0.00    -0.373 C  
BRANCH  22  23
HETATM   23  C   UNL     1     -11.722  13.145  67.222  1.00  0.00    -0.425 C  
BRANCH  23  24
HETATM   24  C   UNL     1     -10.860  14.093  66.400  1.00  0.00    -0.304 C  
BRANCH  24  25
HETATM   25  C   UNL     1     -11.617  14.611  65.188  1.00  0.00    -0.371 C  
HETATM   26  O   UNL     1     -12.913  14.032  65.151  1.00  0.00    -0.744 OA 
HETATM   27  H   UNL     1     -13.386  14.356  64.394  1.00  0.00     0.000 HD 
ENDBRANCH  24  25
ENDBRANCH  23  24
ENDBRANCH  22  23
ENDBRANCH  21  22
ENDBRANCH  20  21
ENDBRANCH  19  20
ENDBRANCH  18  19
ENDBRANCH  17  18
ENDBRANCH  16  17
ENDBRANCH  15  16
ENDBRANCH  14  15
ENDBRANCH   9  14
ENDBRANCH   2   3
TORSDOF 14
ENDMDL
MODEL      199
REMARK 921   NORMALIZED FREE ENERGY PREDICTED BY IDOCK:   -3.63 KCAL/MOL
REMARK 922        TOTAL FREE ENERGY PREDICTED BY IDOCK:   -8.42 KCAL/MOL
REMARK 923 INTER-LIGAND FREE ENERGY PREDICTED BY IDOCK:   -6.78 KCAL/MOL
REMARK 924 INTRA-LIGAND FREE ENERGY PREDICTED BY IDOCK:   -1.64 KCAL/MOL
REMARK 927      BINDING AFFINITY PREDICTED BY RF-SCORE:    0.00 PKD
ROOT
HETATM    1  C   UNL     1     -11.488   6.703  71.644  1.00  0.00    -0.288 C  
HETATM    2  O   UNL     1     -10.277   6.580  70.910  1.00  0.00    -0.188 OA 
ENDROOT
BRANCH   2   3
HETATM    3  C   UNL     1      -9.913   7.668  70.119  1.00  0.00    -0.186 C  
HETATM    4  C   UNL     1     -10.339   7.701  68.843  1.00  0.00    -0.212 C  
HETATM    5  C   UNL     1      -9.933   8.850  67.979  1.00  0.00    -0.178 C  
HETATM    6  O   UNL     1      -8.847   8.963  71.838  1.00  0.00    -0.342 OA 
HETATM    7  O   UNL     1     -10.542   9.177  66.966  1.00  0.00    -0.253 OA 
HETATM    8  C   UNL     1      -9.023   8.760  70.642  1.00  0.00    -0.186 C  
HETATM    9  C   UNL     1      -8.698   9.588  68.370  1.00  0.00    -0.124 C  
HETATM   10  C   UNL     1      -7.110  10.339  70.189  1.00  0.00    -0.154 C  
HETATM   11  C   UNL     1      -8.284   9.573  69.646  1.00  0.00    -0.143 C  
BRANCH   4  12
HETATM   12  O   UNL     1     -11.152   6.665  68.385  1.00  0.00    -0.253 OA 
HETATM   13  C   UNL     1     -10.646   5.807  67.369  1.00  0.00    -0.265 C  
ENDBRANCH   4  12
BRANCH   9  14
HETATM   14  C   UNL     1      -7.991  10.291  67.253  1.00  0.00    -0.107 C  
BRANCH  14  15
HETATM   15  C   UNL     1      -7.837  11.794  67.495  1.00  0.00    -0.148 C  
BRANCH  15  16
HETATM   16  C   UNL     1      -8.906  12.599  66.755  1.00  0.00    -0.168 C  
BRANCH  16  17
HETATM   17  C   UNL     1      -9.484  11.813  65.585  1.00  0.00    -0.209 C  
BRANCH  17  18
HETATM   18  C   UNL     1     -10.923  12.195  65.294  1.00  0.00    -0.349 C  
BRANCH  18  19
HETATM   19  C   UNL     1     -11.311  13.375  66.176  1.00  0.00    -0.324 C  
BRANCH  19  20
HETATM   20  C   UNL     1     -12.036  12.894  67.419  1.00  0.00    -0.258 C  
BRANCH  20  21
HETATM   21  C   UNL     1     -11.685  13.769  68.613  1.00  0.00    -0.391 C  
BRANCH  21  22
HETATM   22  C   UNL     1     -11.804  12.965  69.899  1.00  0.00    -0.373 C  
BRANCH  22  23
HETATM   23  C   UNL     1     -11.501  11.493  69.648  1.00  0.00    -0.373 C  
BRANCH  23  24
HETATM   24  C   UNL     1     -12.658  10.622  70.118  1.00  0.00    -0.283 C  
BRANCH  24  25
HETATM   25  C   UNL     1     -12.563  10.342  71.609  1.00  0.00    -0.417 C  
HETATM   26  O   UNL     1     -13.528  11.120  72.303  1.00  0.00    -0.608 OA 
HETATM   27  H   UNL     1     -13.470  10.945  73.235  1.00  0.00     0.000 HD 
ENDBRANCH  24  25
ENDBRANCH  23  24
ENDBRANCH  22  23
ENDBRANCH  21  22
ENDBRANCH  20  21
ENDBRANCH  19  20
ENDBRANCH  18  19
ENDBRANCH  17  18
ENDBRANCH  16  17
ENDBRANCH  15  16
ENDBRANCH  14  15
ENDBRANCH   9  14
ENDBRANCH   2   3
TORSDOF 14
ENDMDL
MODEL      200
REMARK 921   NORMALIZED FREE ENERGY PREDICTED BY IDOCK:   -3.63 KCAL/MOL
REMARK 922        TOTAL FREE ENERGY PREDICTED BY IDOCK:   -8.42 KCAL/MOL
REMARK 923 INTER-LIGAND FREE ENERGY PREDICTED BY IDOCK:   -7.05 KCAL/MOL
REMARK 924 INTRA-LIGAND FREE ENERGY PREDICTED BY IDOCK:   -1.37 KCAL/MOL
REMARK 927      BINDING AFFINITY PREDICTED BY RF-SCORE:    0.00 PKD
ROOT
HETATM    1  C   UNL     1      -5.628   7.249  64.968  1.00  0.00    -0.033 C  
HETATM    2  O   UNL     1      -6.882   7.619  64.410  1.00  0.00    -0.056 OA 
ENDROOT
BRANCH   2   3
HETATM    3  C   UNL     1      -8.020   7.201  65.098  1.00  0.00    -0.128 C  
HETATM    4  C   UNL     1      -8.606   8.065  65.946  1.00  0.00    -0.152 C  
HETATM    5  C   UNL     1      -9.812   7.620  66.707  1.00  0.00    -0.237 C  
HETATM    6  O   UNL     1      -8.288   5.080  64.003  1.00  0.00    -0.123 OA 
HETATM    7  O   UNL     1     -10.624   8.398  67.195  1.00  0.00    -0.311 OA 
HETATM    8  C   UNL     1      -8.563   5.809  64.949  1.00  0.00    -0.064 C  
HETATM    9  C   UNL     1      -9.984   6.152  66.904  1.00  0.00    -0.211 C  
HETATM   10  C   UNL     1      -9.581   3.796  66.078  1.00  0.00    -0.168 C  
HETATM   11  C   UNL     1      -9.418   5.290  66.046  1.00  0.00    -0.169 C  
BRANCH   4  12
HETATM   12  O   UNL     1      -8.068   9.346  66.070  1.00  0.00    -0.108 OA 
HETATM   13  C   UNL     1      -8.626  10.393  65.287  1.00  0.00    -0.176 C  
ENDBRANCH   4  12
BRANCH   9  14
HETATM   14  C   UNL     1     -10.790   5.756  68.102  1.00  0.00    -0.249 C  
BRANCH  14  15
HETATM   15  C   UNL     1      -9.925   5.346  69.296  1.00  0.00    -0.277 C  
BRANCH  15  16
HETATM   16  C   UNL     1     -10.618   5.646  70.625  1.00  0.00    -0.347 C  
BRANCH  16  17
HETATM   17  C   UNL     1     -11.780   6.614  70.442  1.00  0.00    -0.446 C  
BRANCH  17  18
HETATM   18  C   UNL     1     -12.513   6.882  71.743  1.00  0.00    -0.397 C  
BRANCH  18  19
HETATM   19  C   UNL     1     -12.225   8.310  72.189  1.00  0.00    -0.418 C  
BRANCH  19  20
HETATM   20  C   UNL     1     -13.447   9.187  71.985  1.00  0.00    -0.510 C  
BRANCH  20  21
HETATM   21  C   UNL     1     -13.032  10.621  71.692  1.00  0.00    -0.582 C  
BRANCH  21  22
HETATM   22  C   UNL     1     -11.765  10.634  70.852  1.00  0.00    -0.387 C  
BRANCH  22  23
HETATM   23  C   UNL     1     -12.092  10.850  69.380  1.00  0.00    -0.362 C  
BRANCH  23  24
HETATM   24  C   UNL     1     -11.276  12.004  68.814  1.00  0.00    -0.316 C  
BRANCH  24  25
HETATM   25  C   UNL     1     -11.910  13.342  69.155  1.00  0.00    -0.336 C  
HETATM   26  O   UNL     1     -11.186  13.958  70.211  1.00  0.00    -0.483 OA 
HETATM   27  H   UNL     1     -11.582  14.795  70.424  1.00  0.00     0.000 HD 
ENDBRANCH  24  25
ENDBRANCH  23  24
ENDBRANCH  22  23
ENDBRANCH  21  22
ENDBRANCH  20  21
ENDBRANCH  19  20
ENDBRANCH  18  19
ENDBRANCH  17  18
ENDBRANCH  16  17
ENDBRANCH  15  16
ENDBRANCH  14  15
ENDBRANCH   9  14
ENDBRANCH   2   3
TORSDOF 14
ENDMDL
MODEL      201
REMARK 921   NORMALIZED FREE ENERGY PREDICTED BY IDOCK:   -3.61 KCAL/MOL
REMARK 922        TOTAL FREE ENERGY PREDICTED BY IDOCK:   -8.38 KCAL/MOL
REMARK 923 INTER-LIGAND FREE ENERGY PREDICTED BY IDOCK:   -7.84 KCAL/MOL
REMARK 924 INTRA-LIGAND FREE ENERGY PREDICTED BY IDOCK:   -0.54 KCAL/MOL
REMARK 927      BINDING AFFINITY PREDICTED BY RF-SCORE:    0.00 PKD
ROOT
HETATM    1  C   UNL     1      -5.376  18.950  70.197  1.00  0.00    -0.215 C  
HETATM    2  O   UNL     1      -5.317  18.201  68.990  1.00  0.00    -0.184 OA 
ENDROOT
BRANCH   2   3
HETATM    3  C   UNL     1      -6.527  17.727  68.488  1.00  0.00    -0.209 C  
HETATM    4  C   UNL     1      -7.110  18.403  67.482  1.00  0.00    -0.205 C  
HETATM    5  C   UNL     1      -8.420  17.917  66.953  1.00  0.00    -0.244 C  
HETATM    6  O   UNL     1      -6.622  15.694  69.765  1.00  0.00    -0.174 OA 
HETATM    7  O   UNL     1      -8.843  18.205  65.838  1.00  0.00    -0.500 OA 
HETATM    8  C   UNL     1      -7.207  16.523  69.077  1.00  0.00    -0.219 C  
HETATM    9  C   UNL     1      -9.250  17.081  67.865  1.00  0.00    -0.239 C  
HETATM   10  C   UNL     1      -9.372  15.446  69.790  1.00  0.00    -0.122 C  
HETATM   11  C   UNL     1      -8.668  16.389  68.856  1.00  0.00    -0.253 C  
BRANCH   4  12
HETATM   12  O   UNL     1      -6.459  19.524  66.968  1.00  0.00    -0.193 OA 
HETATM   13  C   UNL     1      -5.650  19.364  65.808  1.00  0.00    -0.156 C  
ENDBRANCH   4  12
BRANCH   9  14
HETATM   14  C   UNL     1     -10.723  17.106  67.594  1.00  0.00    -0.302 C  
BRANCH  14  15
HETATM   15  C   UNL     1     -11.394  15.748  67.815  1.00  0.00    -0.240 C  
BRANCH  15  16
HETATM   16  C   UNL     1     -11.254  14.843  66.591  1.00  0.00    -0.340 C  
BRANCH  16  17
HETATM   17  C   UNL     1     -12.157  13.620  66.697  1.00  0.00    -0.459 C  
BRANCH  17  18
HETATM   18  C   UNL     1     -11.369  12.324  66.691  1.00  0.00    -0.398 C  
BRANCH  18  19
HETATM   19  C   UNL     1     -10.645  12.178  68.024  1.00  0.00    -0.232 C  
BRANCH  19  20
HETATM   20  C   UNL     1     -11.613  12.372  69.177  1.00  0.00    -0.369 C  
BRANCH  20  21
HETATM   21  C   UNL     1     -12.283  11.054  69.538  1.00  0.00    -0.352 C  
BRANCH  21  22
HETATM   22  C   UNL     1     -12.317  10.885  71.049  1.00  0.00    -0.498 C  
BRANCH  22  23
HETATM   23  C   UNL     1     -12.683   9.455  71.426  1.00  0.00    -0.425 C  
BRANCH  23  24
HETATM   24  C   UNL     1     -11.470   8.721  71.982  1.00  0.00    -0.441 C  
BRANCH  24  25
HETATM   25  C   UNL     1     -11.581   7.223  71.751  1.00  0.00    -0.275 C  
HETATM   26  O   UNL     1     -12.300   6.978  70.551  1.00  0.00    -0.594 OA 
HETATM   27  H   UNL     1     -12.370   6.042  70.405  1.00  0.00     0.000 HD 
ENDBRANCH  24  25
ENDBRANCH  23  24
ENDBRANCH  22  23
ENDBRANCH  21  22
ENDBRANCH  20  21
ENDBRANCH  19  20
ENDBRANCH  18  19
ENDBRANCH  17  18
ENDBRANCH  16  17
ENDBRANCH  15  16
ENDBRANCH  14  15
ENDBRANCH   9  14
ENDBRANCH   2   3
TORSDOF 14
ENDMDL
MODEL      202
REMARK 921   NORMALIZED FREE ENERGY PREDICTED BY IDOCK:   -3.60 KCAL/MOL
REMARK 922        TOTAL FREE ENERGY PREDICTED BY IDOCK:   -8.37 KCAL/MOL
REMARK 923 INTER-LIGAND FREE ENERGY PREDICTED BY IDOCK:   -7.00 KCAL/MOL
REMARK 924 INTRA-LIGAND FREE ENERGY PREDICTED BY IDOCK:   -1.37 KCAL/MOL
REMARK 927      BINDING AFFINITY PREDICTED BY RF-SCORE:    0.00 PKD
ROOT
HETATM    1  C   UNL     1     -12.507  13.812  65.094  1.00  0.00    -0.450 C  
HETATM    2  O   UNL     1     -11.155  13.475  64.814  1.00  0.00    -0.326 OA 
ENDROOT
BRANCH   2   3
HETATM    3  C   UNL     1     -10.661  12.320  65.418  1.00  0.00    -0.274 C  
HETATM    4  C   UNL     1     -10.234  11.318  64.627  1.00  0.00    -0.301 C  
HETATM    5  C   UNL     1      -9.726  10.066  65.263  1.00  0.00    -0.306 C  
HETATM    6  O   UNL     1     -10.723  13.101  67.689  1.00  0.00    -0.234 OA 
HETATM    7  O   UNL     1      -8.987   9.273  64.690  1.00  0.00    -0.206 OA 
HETATM    8  C   UNL     1     -10.645  12.156  66.911  1.00  0.00    -0.229 C  
HETATM    9  C   UNL     1     -10.193   9.772  66.648  1.00  0.00    -0.296 C  
HETATM   10  C   UNL     1     -11.011  10.627  68.883  1.00  0.00    -0.296 C  
HETATM   11  C   UNL     1     -10.598  10.773  67.445  1.00  0.00    -0.287 C  
BRANCH   4  12
HETATM   12  O   UNL     1     -10.275  11.498  63.245  1.00  0.00    -0.366 OA 
HETATM   13  C   UNL     1      -9.087  11.268  62.497  1.00  0.00    -0.237 C  
ENDBRANCH   4  12
BRANCH   9  14
HETATM   14  C   UNL     1     -10.187   8.325  67.033  1.00  0.00    -0.380 C  
BRANCH  14  15
HETATM   15  C   UNL     1      -9.068   7.973  68.016  1.00  0.00    -0.130 C  
BRANCH  15  16
HETATM   16  C   UNL     1      -8.938   6.462  68.208  1.00  0.00    -0.116 C  
BRANCH  16  17
HETATM   17  C   UNL     1      -9.404   6.035  69.595  1.00  0.00    -0.161 C  
BRANCH  17  18
HETATM   18  C   UNL     1     -10.866   5.631  69.609  1.00  0.00    -0.365 C  
BRANCH  18  19
HETATM   19  C   UNL     1     -11.506   6.133  70.897  1.00  0.00    -0.317 C  
BRANCH  19  20
HETATM   20  C   UNL     1     -11.709   7.636  70.838  1.00  0.00    -0.291 C  
BRANCH  20  21
HETATM   21  C   UNL     1     -11.496   8.256  72.211  1.00  0.00    -0.452 C  
BRANCH  21  22
HETATM   22  C   UNL     1     -10.121   8.903  72.281  1.00  0.00    -0.190 C  
BRANCH  22  23
HETATM   23  C   UNL     1      -9.086   7.921  72.815  1.00  0.00    -0.272 C  
BRANCH  23  24
HETATM   24  C   UNL     1      -9.663   7.109  73.966  1.00  0.00    -0.314 C  
BRANCH  24  25
HETATM   25  C   UNL     1      -8.696   6.025  74.412  1.00  0.00    -0.121 C  
HETATM   26  O   UNL     1      -7.364   6.427  74.126  1.00  0.00    -0.086 OA 
HETATM   27  H   UNL     1      -6.758   5.750  74.405  1.00  0.00     0.000 HD 
ENDBRANCH  24  25
ENDBRANCH  23  24
ENDBRANCH  22  23
ENDBRANCH  21  22
ENDBRANCH  20  21
ENDBRANCH  19  20
ENDBRANCH  18  19
ENDBRANCH  17  18
ENDBRANCH  16  17
ENDBRANCH  15  16
ENDBRANCH  14  15
ENDBRANCH   9  14
ENDBRANCH   2   3
TORSDOF 14
ENDMDL
MODEL      203
REMARK 921   NORMALIZED FREE ENERGY PREDICTED BY IDOCK:   -3.60 KCAL/MOL
REMARK 922        TOTAL FREE ENERGY PREDICTED BY IDOCK:   -8.37 KCAL/MOL
REMARK 923 INTER-LIGAND FREE ENERGY PREDICTED BY IDOCK:   -7.56 KCAL/MOL
REMARK 924 INTRA-LIGAND FREE ENERGY PREDICTED BY IDOCK:   -0.80 KCAL/MOL
REMARK 927      BINDING AFFINITY PREDICTED BY RF-SCORE:    0.00 PKD
ROOT
HETATM    1  C   UNL     1      -7.913  17.483  65.967  1.00  0.00    -0.157 C  
HETATM    2  O   UNL     1      -9.269  17.908  65.933  1.00  0.00    -0.519 OA 
ENDROOT
BRANCH   2   3
HETATM    3  C   UNL     1     -10.230  16.963  66.290  1.00  0.00    -0.329 C  
HETATM    4  C   UNL     1     -10.461  16.751  67.598  1.00  0.00    -0.328 C  
HETATM    5  C   UNL     1     -11.471  15.723  67.993  1.00  0.00    -0.264 C  
HETATM    6  O   UNL     1     -11.038  16.485  64.079  1.00  0.00    -0.829 OA 
HETATM    7  O   UNL     1     -12.023  15.709  69.087  1.00  0.00    -0.368 OA 
HETATM    8  C   UNL     1     -10.962  16.155  65.257  1.00  0.00    -0.270 C  
HETATM    9  C   UNL     1     -11.766  14.650  67.001  1.00  0.00    -0.379 C  
HETATM   10  C   UNL     1     -11.890  13.908  64.587  1.00  0.00    -0.428 C  
HETATM   11  C   UNL     1     -11.557  14.868  65.694  1.00  0.00    -0.245 C  
BRANCH   4  12
HETATM   12  O   UNL     1      -9.754  17.509  68.531  1.00  0.00    -0.291 OA 
HETATM   13  C   UNL     1     -10.077  18.887  68.667  1.00  0.00    -0.388 C  
ENDBRANCH   4  12
BRANCH   9  14
HETATM   14  C   UNL     1     -12.273  13.365  67.579  1.00  0.00    -0.231 C  
BRANCH  14  15
HETATM   15  C   UNL     1     -11.151  12.394  67.955  1.00  0.00    -0.288 C  
BRANCH  15  16
HETATM   16  C   UNL     1     -10.965  12.304  69.470  1.00  0.00    -0.007 C  
BRANCH  16  17
HETATM   17  C   UNL     1     -12.100  11.526  70.125  1.00  0.00    -0.432 C  
BRANCH  17  18
HETATM   18  C   UNL     1     -11.771  10.053  70.277  1.00  0.00    -0.327 C  
BRANCH  18  19
HETATM   19  C   UNL     1     -10.262   9.868  70.176  1.00  0.00    -0.326 C  
BRANCH  19  20
HETATM   20  C   UNL     1      -9.910   9.031  68.961  1.00  0.00    -0.178 C  
BRANCH  20  21
HETATM   21  C   UNL     1      -8.515   9.377  68.461  1.00  0.00    -0.119 C  
BRANCH  21  22
HETATM   22  C   UNL     1      -7.720   8.103  68.216  1.00  0.00    -0.114 C  
BRANCH  22  23
HETATM   23  C   UNL     1      -8.529   6.874  68.612  1.00  0.00    -0.121 C  
BRANCH  23  24
HETATM   24  C   UNL     1      -8.290   5.737  67.628  1.00  0.00    -0.104 C  
BRANCH  24  25
HETATM   25  C   UNL     1      -9.603   5.151  67.137  1.00  0.00    -0.146 C  
HETATM   26  O   UNL     1      -9.943   5.725  65.883  1.00  0.00    -0.377 OA 
HETATM   27  H   UNL     1     -10.764   5.358  65.576  1.00  0.00     0.000 HD 
ENDBRANCH  24  25
ENDBRANCH  23  24
ENDBRANCH  22  23
ENDBRANCH  21  22
ENDBRANCH  20  21
ENDBRANCH  19  20
ENDBRANCH  18  19
ENDBRANCH  17  18
ENDBRANCH  16  17
ENDBRANCH  15  16
ENDBRANCH  14  15
ENDBRANCH   9  14
ENDBRANCH   2   3
TORSDOF 14
ENDMDL
MODEL      204
REMARK 921   NORMALIZED FREE ENERGY PREDICTED BY IDOCK:   -3.60 KCAL/MOL
REMARK 922        TOTAL FREE ENERGY PREDICTED BY IDOCK:   -8.36 KCAL/MOL
REMARK 923 INTER-LIGAND FREE ENERGY PREDICTED BY IDOCK:   -7.37 KCAL/MOL
REMARK 924 INTRA-LIGAND FREE ENERGY PREDICTED BY IDOCK:   -1.00 KCAL/MOL
REMARK 927      BINDING AFFINITY PREDICTED BY RF-SCORE:    0.00 PKD
ROOT
HETATM    1  C   UNL     1      -7.850  17.534  68.542  1.00  0.00    -0.274 C  
HETATM    2  O   UNL     1      -9.263  17.387  68.592  1.00  0.00    -0.270 OA 
ENDROOT
BRANCH   2   3
HETATM    3  C   UNL     1      -9.832  16.503  67.677  1.00  0.00    -0.247 C  
HETATM    4  C   UNL     1     -10.273  16.994  66.505  1.00  0.00    -0.320 C  
HETATM    5  C   UNL     1     -10.908  16.059  65.527  1.00  0.00    -0.292 C  
HETATM    6  O   UNL     1      -9.379  14.473  68.879  1.00  0.00    -0.199 OA 
HETATM    7  O   UNL     1     -10.995  16.299  64.328  1.00  0.00    -0.707 OA 
HETATM    8  C   UNL     1     -10.006  15.045  67.995  1.00  0.00    -0.219 C  
HETATM    9  C   UNL     1     -11.493  14.803  66.074  1.00  0.00    -0.316 C  
HETATM   10  C   UNL     1     -11.480  13.004  67.851  1.00  0.00    -0.352 C  
HETATM   11  C   UNL     1     -11.039  14.300  67.233  1.00  0.00    -0.315 C  
BRANCH   4  12
HETATM   12  O   UNL     1     -10.108  18.354  66.248  1.00  0.00    -0.371 OA 
HETATM   13  C   UNL     1     -10.865  19.284  67.013  1.00  0.00    -0.414 C  
ENDBRANCH   4  12
BRANCH   9  14
HETATM   14  C   UNL     1     -12.594  14.199  65.258  1.00  0.00    -0.460 C  
BRANCH  14  15
HETATM   15  C   UNL     1     -12.083  13.455  64.022  1.00  0.00    -0.506 C  
BRANCH  15  16
HETATM   16  C   UNL     1     -11.677  12.020  64.354  1.00  0.00    -0.399 C  
BRANCH  16  17
HETATM   17  C   UNL     1     -10.354  11.648  63.695  1.00  0.00    -0.466 C  
BRANCH  17  18
HETATM   18  C   UNL     1      -9.538  10.694  64.547  1.00  0.00    -0.341 C  
BRANCH  18  19
HETATM   19  C   UNL     1     -10.313  10.380  65.820  1.00  0.00    -0.257 C  
BRANCH  19  20
HETATM   20  C   UNL     1      -9.407   9.719  66.844  1.00  0.00    -0.184 C  
BRANCH  20  21
HETATM   21  C   UNL     1      -7.968   9.705  66.352  1.00  0.00    -0.108 C  
BRANCH  21  22
HETATM   22  C   UNL     1      -7.371   8.318  66.530  1.00  0.00    -0.081 C  
BRANCH  22  23
HETATM   23  C   UNL     1      -6.526   8.249  67.796  1.00  0.00    -0.057 C  
BRANCH  23  24
HETATM   24  C   UNL     1      -6.142   9.648  68.258  1.00  0.00    -0.051 C  
BRANCH  24  25
HETATM   25  C   UNL     1      -6.018   9.710  69.772  1.00  0.00    -0.040 C  
HETATM   26  O   UNL     1      -7.309   9.637  70.360  1.00  0.00    -0.124 OA 
HETATM   27  H   UNL     1      -7.233   9.676  71.306  1.00  0.00     0.000 HD 
ENDBRANCH  24  25
ENDBRANCH  23  24
ENDBRANCH  22  23
ENDBRANCH  21  22
ENDBRANCH  20  21
ENDBRANCH  19  20
ENDBRANCH  18  19
ENDBRANCH  17  18
ENDBRANCH  16  17
ENDBRANCH  15  16
ENDBRANCH  14  15
ENDBRANCH   9  14
ENDBRANCH   2   3
TORSDOF 14
ENDMDL
MODEL      205
REMARK 921   NORMALIZED FREE ENERGY PREDICTED BY IDOCK:   -3.60 KCAL/MOL
REMARK 922        TOTAL FREE ENERGY PREDICTED BY IDOCK:   -8.36 KCAL/MOL
REMARK 923 INTER-LIGAND FREE ENERGY PREDICTED BY IDOCK:   -6.11 KCAL/MOL
REMARK 924 INTRA-LIGAND FREE ENERGY PREDICTED BY IDOCK:   -2.25 KCAL/MOL
REMARK 927      BINDING AFFINITY PREDICTED BY RF-SCORE:    0.00 PKD
ROOT
HETATM    1  C   UNL     1     -11.845  13.421  67.658  1.00  0.00    -0.354 C  
HETATM    2  O   UNL     1     -12.221  12.542  66.606  1.00  0.00    -0.552 OA 
ENDROOT
BRANCH   2   3
HETATM    3  C   UNL     1     -11.189  11.869  65.955  1.00  0.00    -0.324 C  
HETATM    4  C   UNL     1     -10.812  12.301  64.738  1.00  0.00    -0.304 C  
HETATM    5  C   UNL     1      -9.724  11.572  64.021  1.00  0.00    -0.223 C  
HETATM    6  O   UNL     1     -10.599  10.386  67.751  1.00  0.00    -0.212 OA 
HETATM    7  O   UNL     1      -9.059  12.073  63.120  1.00  0.00    -0.096 OA 
HETATM    8  C   UNL     1     -10.536  10.657  66.557  1.00  0.00    -0.224 C  
HETATM    9  C   UNL     1      -9.489  10.153  64.411  1.00  0.00    -0.368 C  
HETATM   10  C   UNL     1      -9.589   8.350  66.182  1.00  0.00    -0.246 C  
HETATM   11  C   UNL     1      -9.844   9.725  65.633  1.00  0.00    -0.371 C  
BRANCH   4  12
HETATM   12  O   UNL     1     -11.448  13.421  64.203  1.00  0.00    -0.382 OA 
HETATM   13  C   UNL     1     -12.445  13.222  63.208  1.00  0.00    -0.121 C  
ENDBRANCH   4  12
BRANCH   9  14
HETATM   14  C   UNL     1      -8.870   9.291  63.354  1.00  0.00    -0.150 C  
BRANCH  14  15
HETATM   15  C   UNL     1      -7.454   8.832  63.710  1.00  0.00    -0.111 C  
BRANCH  15  16
HETATM   16  C   UNL     1      -6.457   9.989  63.672  1.00  0.00    -0.131 C  
BRANCH  16  17
HETATM   17  C   UNL     1      -5.867  10.263  65.050  1.00  0.00    -0.133 C  
BRANCH  17  18
HETATM   18  C   UNL     1      -5.948   9.051  65.958  1.00  0.00    -0.051 C  
BRANCH  18  19
HETATM   19  C   UNL     1      -5.605   9.473  67.381  1.00  0.00    -0.040 C  
BRANCH  19  20
HETATM   20  C   UNL     1      -6.802  10.131  68.043  1.00  0.00    -0.071 C  
BRANCH  20  21
HETATM   21  C   UNL     1      -7.569   9.121  68.882  1.00  0.00    -0.076 C  
BRANCH  21  22
HETATM   22  C   UNL     1      -8.074   9.780  70.157  1.00  0.00    -0.202 C  
BRANCH  22  23
HETATM   23  C   UNL     1      -8.686   8.748  71.095  1.00  0.00    -0.265 C  
BRANCH  23  24
HETATM   24  C   UNL     1     -10.147   9.076  71.371  1.00  0.00    -0.399 C  
BRANCH  24  25
HETATM   25  C   UNL     1     -11.065   7.995  70.823  1.00  0.00    -0.259 C  
HETATM   26  O   UNL     1     -11.232   8.176  69.424  1.00  0.00    -0.440 OA 
HETATM   27  H   UNL     1     -11.806   7.500  69.081  1.00  0.00     0.000 HD 
ENDBRANCH  24  25
ENDBRANCH  23  24
ENDBRANCH  22  23
ENDBRANCH  21  22
ENDBRANCH  20  21
ENDBRANCH  19  20
ENDBRANCH  18  19
ENDBRANCH  17  18
ENDBRANCH  16  17
ENDBRANCH  15  16
ENDBRANCH  14  15
ENDBRANCH   9  14
ENDBRANCH   2   3
TORSDOF 14
ENDMDL
MODEL      206
REMARK 921   NORMALIZED FREE ENERGY PREDICTED BY IDOCK:   -3.59 KCAL/MOL
REMARK 922        TOTAL FREE ENERGY PREDICTED BY IDOCK:   -8.34 KCAL/MOL
REMARK 923 INTER-LIGAND FREE ENERGY PREDICTED BY IDOCK:   -6.77 KCAL/MOL
REMARK 924 INTRA-LIGAND FREE ENERGY PREDICTED BY IDOCK:   -1.57 KCAL/MOL
REMARK 927      BINDING AFFINITY PREDICTED BY RF-SCORE:    0.00 PKD
ROOT
HETATM    1  C   UNL     1      -9.022   3.765  68.368  1.00  0.00    -0.125 C  
HETATM    2  O   UNL     1      -9.881   4.352  67.400  1.00  0.00    -0.185 OA 
ENDROOT
BRANCH   2   3
HETATM    3  C   UNL     1      -9.898   5.744  67.341  1.00  0.00    -0.138 C  
HETATM    4  C   UNL     1      -9.190   6.351  66.372  1.00  0.00    -0.155 C  
HETATM    5  C   UNL     1      -9.181   7.844  66.314  1.00  0.00    -0.178 C  
HETATM    6  O   UNL     1     -11.531   6.112  69.065  1.00  0.00    -0.340 OA 
HETATM    7  O   UNL     1      -8.904   8.476  65.301  1.00  0.00    -0.172 OA 
HETATM    8  C   UNL     1     -10.640   6.567  68.356  1.00  0.00    -0.246 C  
HETATM    9  C   UNL     1      -9.485   8.571  67.579  1.00  0.00    -0.182 C  
HETATM   10  C   UNL     1     -10.658   8.621  69.819  1.00  0.00    -0.224 C  
HETATM   11  C   UNL     1     -10.210   7.975  68.538  1.00  0.00    -0.231 C  
BRANCH   4  12
HETATM   12  O   UNL     1      -8.502   5.558  65.453  1.00  0.00    -0.136 OA 
HETATM   13  C   UNL     1      -7.099   5.743  65.318  1.00  0.00    -0.065 C  
ENDBRANCH   4  12
BRANCH   9  14
HETATM   14  C   UNL     1      -8.914   9.952  67.678  1.00  0.00    -0.133 C  
BRANCH  14  15
HETATM   15  C   UNL     1      -9.942  11.047  67.387  1.00  0.00    -0.209 C  
BRANCH  15  16
HETATM   16  C   UNL     1      -9.666  11.744  66.055  1.00  0.00    -0.254 C  
BRANCH  16  17
HETATM   17  C   UNL     1     -10.752  11.440  65.031  1.00  0.00    -0.340 C  
BRANCH  17  18
HETATM   18  C   UNL     1     -11.701  12.608  64.838  1.00  0.00    -0.399 C  
BRANCH  18  19
HETATM   19  C   UNL     1     -11.159  13.815  65.592  1.00  0.00    -0.297 C  
BRANCH  19  20
HETATM   20  C   UNL     1     -12.174  14.306  66.608  1.00  0.00    -0.411 C  
BRANCH  20  21
HETATM   21  C   UNL     1     -11.494  15.148  67.678  1.00  0.00    -0.319 C  
BRANCH  21  22
HETATM   22  C   UNL     1     -10.804  14.245  68.689  1.00  0.00    -0.265 C  
BRANCH  22  23
HETATM   23  C   UNL     1     -11.825  13.461  69.503  1.00  0.00    -0.391 C  
BRANCH  23  24
HETATM   24  C   UNL     1     -12.667  14.403  70.353  1.00  0.00    -0.362 C  
BRANCH  24  25
HETATM   25  C   UNL     1     -11.844  15.012  71.476  1.00  0.00    -0.372 C  
HETATM   26  O   UNL     1     -11.851  16.428  71.359  1.00  0.00    -0.639 OA 
HETATM   27  H   UNL     1     -11.336  16.809  72.061  1.00  0.00     0.000 HD 
ENDBRANCH  24  25
ENDBRANCH  23  24
ENDBRANCH  22  23
ENDBRANCH  21  22
ENDBRANCH  20  21
ENDBRANCH  19  20
ENDBRANCH  18  19
ENDBRANCH  17  18
ENDBRANCH  16  17
ENDBRANCH  15  16
ENDBRANCH  14  15
ENDBRANCH   9  14
ENDBRANCH   2   3
TORSDOF 14
ENDMDL
MODEL      207
REMARK 921   NORMALIZED FREE ENERGY PREDICTED BY IDOCK:   -3.58 KCAL/MOL
REMARK 922        TOTAL FREE ENERGY PREDICTED BY IDOCK:   -8.33 KCAL/MOL
REMARK 923 INTER-LIGAND FREE ENERGY PREDICTED BY IDOCK:   -6.18 KCAL/MOL
REMARK 924 INTRA-LIGAND FREE ENERGY PREDICTED BY IDOCK:   -2.15 KCAL/MOL
REMARK 927      BINDING AFFINITY PREDICTED BY RF-SCORE:    0.00 PKD
ROOT
HETATM    1  C   UNL     1     -10.263  16.542  65.684  1.00  0.00    -0.292 C  
HETATM    2  O   UNL     1     -11.530  16.045  66.092  1.00  0.00     0.180 OA 
ENDROOT
BRANCH   2   3
HETATM    3  C   UNL     1     -11.679  14.659  66.119  1.00  0.00    -0.313 C  
HETATM    4  C   UNL     1     -11.550  14.025  67.298  1.00  0.00    -0.369 C  
HETATM    5  C   UNL     1     -11.683  12.538  67.334  1.00  0.00    -0.366 C  
HETATM    6  O   UNL     1     -12.350  14.372  63.829  1.00  0.00    -0.736 OA 
HETATM    7  O   UNL     1     -11.957  11.912  68.352  1.00  0.00    -0.408 OA 
HETATM    8  C   UNL     1     -11.926  13.869  64.865  1.00  0.00    -0.395 C  
HETATM    9  C   UNL     1     -11.421  11.804  66.063  1.00  0.00    -0.281 C  
HETATM   10  C   UNL     1     -11.422  11.787  63.534  1.00  0.00    -0.489 C  
HETATM   11  C   UNL     1     -11.571  12.429  64.885  1.00  0.00    -0.392 C  
BRANCH   4  12
HETATM   12  O   UNL     1     -11.308  14.787  68.440  1.00  0.00    -0.272 OA 
HETATM   13  C   UNL     1      -9.982  14.833  68.954  1.00  0.00    -0.233 C  
ENDBRANCH   4  12
BRANCH   9  14
HETATM   14  C   UNL     1     -10.977  10.383  66.223  1.00  0.00     0.076 C  
BRANCH  14  15
HETATM   15  C   UNL     1      -9.455  10.229  66.227  1.00  0.00    -0.223 C  
BRANCH  15  16
HETATM   16  C   UNL     1      -8.992   9.163  65.234  1.00  0.00    -0.246 C  
BRANCH  16  17
HETATM   17  C   UNL     1      -7.476   9.169  65.077  1.00  0.00    -0.105 C  
BRANCH  17  18
HETATM   18  C   UNL     1      -6.818  10.248  65.916  1.00  0.00    -0.125 C  
BRANCH  18  19
HETATM   19  C   UNL     1      -5.980   9.587  67.004  1.00  0.00    -0.056 C  
BRANCH  19  20
HETATM   20  C   UNL     1      -6.128   8.078  66.946  1.00  0.00    -0.053 C  
BRANCH  20  21
HETATM   21  C   UNL     1      -6.459   7.521  68.322  1.00  0.00    -0.049 C  
BRANCH  21  22
HETATM   22  C   UNL     1      -7.964   7.534  68.540  1.00  0.00    -0.123 C  
BRANCH  22  23
HETATM   23  C   UNL     1      -8.351   8.570  69.589  1.00  0.00    -0.121 C  
BRANCH  23  24
HETATM   24  C   UNL     1      -9.833   8.902  69.491  1.00  0.00    -0.180 C  
BRANCH  24  25
HETATM   25  C   UNL     1     -10.370   9.409  70.820  1.00  0.00    -0.298 C  
HETATM   26  O   UNL     1      -9.486   9.035  71.866  1.00  0.00    -0.313 OA 
HETATM   27  H   UNL     1      -9.821   9.353  72.697  1.00  0.00     0.000 HD 
ENDBRANCH  24  25
ENDBRANCH  23  24
ENDBRANCH  22  23
ENDBRANCH  21  22
ENDBRANCH  20  21
ENDBRANCH  19  20
ENDBRANCH  18  19
ENDBRANCH  17  18
ENDBRANCH  16  17
ENDBRANCH  15  16
ENDBRANCH  14  15
ENDBRANCH   9  14
ENDBRANCH   2   3
TORSDOF 14
ENDMDL
MODEL      208
REMARK 921   NORMALIZED FREE ENERGY PREDICTED BY IDOCK:   -3.58 KCAL/MOL
REMARK 922        TOTAL FREE ENERGY PREDICTED BY IDOCK:   -8.33 KCAL/MOL
REMARK 923 INTER-LIGAND FREE ENERGY PREDICTED BY IDOCK:   -7.25 KCAL/MOL
REMARK 924 INTRA-LIGAND FREE ENERGY PREDICTED BY IDOCK:   -1.07 KCAL/MOL
REMARK 927      BINDING AFFINITY PREDICTED BY RF-SCORE:    0.00 PKD
ROOT
HETATM    1  C   UNL     1     -11.456   8.681  71.926  1.00  0.00    -0.348 C  
HETATM    2  O   UNL     1     -10.254   7.950  71.724  1.00  0.00    -0.186 OA 
ENDROOT
BRANCH   2   3
HETATM    3  C   UNL     1      -9.764   7.900  70.420  1.00  0.00    -0.179 C  
HETATM    4  C   UNL     1      -8.738   8.705  70.092  1.00  0.00    -0.143 C  
HETATM    5  C   UNL     1      -8.221   8.678  68.690  1.00  0.00    -0.121 C  
HETATM    6  O   UNL     1     -11.100   6.056  69.653  1.00  0.00    -0.369 OA 
HETATM    7  O   UNL     1      -7.098   9.060  68.380  1.00  0.00    -0.074 OA 
HETATM    8  C   UNL     1     -10.387   7.015  69.378  1.00  0.00    -0.207 C  
HETATM    9  C   UNL     1      -9.157   8.198  67.634  1.00  0.00    -0.142 C  
HETATM   10  C   UNL     1     -11.128   6.755  66.981  1.00  0.00    -0.369 C  
HETATM   11  C   UNL     1     -10.168   7.377  67.956  1.00  0.00    -0.234 C  
BRANCH   4  12
HETATM   12  O   UNL     1      -8.192   9.524  71.080  1.00  0.00    -0.301 OA 
HETATM   13  C   UNL     1      -7.036   9.070  71.772  1.00  0.00     0.049 C  
ENDBRANCH   4  12
BRANCH   9  14
HETATM   14  C   UNL     1      -8.884   8.712  66.254  1.00  0.00    -0.187 C  
BRANCH  14  15
HETATM   15  C   UNL     1      -9.921   9.732  65.780  1.00  0.00    -0.349 C  
BRANCH  15  16
HETATM   16  C   UNL     1      -9.837  11.036  66.573  1.00  0.00    -0.241 C  
BRANCH  16  17
HETATM   17  C   UNL     1     -11.193  11.727  66.655  1.00  0.00    -0.383 C  
BRANCH  17  18
HETATM   18  C   UNL     1     -11.352  12.803  65.597  1.00  0.00    -0.354 C  
BRANCH  18  19
HETATM   19  C   UNL     1     -12.024  14.018  66.223  1.00  0.00    -0.454 C  
BRANCH  19  20
HETATM   20  C   UNL     1     -11.668  14.122  67.695  1.00  0.00    -0.421 C  
BRANCH  20  21
HETATM   21  C   UNL     1     -11.200  15.529  68.033  1.00  0.00    -0.332 C  
BRANCH  21  22
HETATM   22  C   UNL     1     -10.897  16.297  66.755  1.00  0.00    -0.125 C  
BRANCH  22  23
HETATM   23  C   UNL     1      -9.916  17.431  67.023  1.00  0.00    -0.295 C  
BRANCH  23  24
HETATM   24  C   UNL     1     -10.631  18.775  66.989  1.00  0.00    -0.483 C  
BRANCH  24  25
HETATM   25  C   UNL     1      -9.887  19.813  67.814  1.00  0.00    -0.398 C  
HETATM   26  O   UNL     1     -10.176  19.623  69.192  1.00  0.00    -0.610 OA 
HETATM   27  H   UNL     1      -9.711  20.272  69.708  1.00  0.00     0.000 HD 
ENDBRANCH  24  25
ENDBRANCH  23  24
ENDBRANCH  22  23
ENDBRANCH  21  22
ENDBRANCH  20  21
ENDBRANCH  19  20
ENDBRANCH  18  19
ENDBRANCH  17  18
ENDBRANCH  16  17
ENDBRANCH  15  16
ENDBRANCH  14  15
ENDBRANCH   9  14
ENDBRANCH   2   3
TORSDOF 14
ENDMDL
MODEL      209
REMARK 921   NORMALIZED FREE ENERGY PREDICTED BY IDOCK:   -3.58 KCAL/MOL
REMARK 922        TOTAL FREE ENERGY PREDICTED BY IDOCK:   -8.33 KCAL/MOL
REMARK 923 INTER-LIGAND FREE ENERGY PREDICTED BY IDOCK:   -7.13 KCAL/MOL
REMARK 924 INTRA-LIGAND FREE ENERGY PREDICTED BY IDOCK:   -1.20 KCAL/MOL
REMARK 927      BINDING AFFINITY PREDICTED BY RF-SCORE:    0.00 PKD
ROOT
HETATM    1  C   UNL     1      -5.523  18.583  70.303  1.00  0.00    -0.238 C  
HETATM    2  O   UNL     1      -5.727  18.512  68.898  1.00  0.00    -0.198 OA 
ENDROOT
BRANCH   2   3
HETATM    3  C   UNL     1      -6.924  17.943  68.468  1.00  0.00    -0.240 C  
HETATM    4  C   UNL     1      -7.926  18.763  68.102  1.00  0.00    -0.290 C  
HETATM    5  C   UNL     1      -9.222  18.163  67.663  1.00  0.00    -0.259 C  
HETATM    6  O   UNL     1      -6.204  15.651  68.479  1.00  0.00    -0.097 OA 
HETATM    7  O   UNL     1     -10.039  18.762  66.972  1.00  0.00    -0.321 OA 
HETATM    8  C   UNL     1      -7.129  16.455  68.457  1.00  0.00    -0.157 C  
HETATM    9  C   UNL     1      -9.527  16.785  68.142  1.00  0.00    -0.234 C  
HETATM   10  C   UNL     1      -8.689  14.524  68.903  1.00  0.00    -0.105 C  
HETATM   11  C   UNL     1      -8.527  15.959  68.487  1.00  0.00    -0.184 C  
BRANCH   4  12
HETATM   12  O   UNL     1      -7.706  20.139  68.137  1.00  0.00    -0.276 OA 
HETATM   13  C   UNL     1      -7.268  20.785  66.948  1.00  0.00    -0.276 C  
ENDBRANCH   4  12
BRANCH   9  14
HETATM   14  C   UNL     1     -10.982  16.440  68.216  1.00  0.00    -0.355 C  
BRANCH  14  15
HETATM   15  C   UNL     1     -11.347  15.208  67.384  1.00  0.00    -0.309 C  
BRANCH  15  16
HETATM   16  C   UNL     1     -10.988  15.395  65.910  1.00  0.00    -0.293 C  
BRANCH  16  17
HETATM   17  C   UNL     1     -11.560  14.274  65.051  1.00  0.00    -0.367 C  
BRANCH  17  18
HETATM   18  C   UNL     1     -10.475  13.395  64.459  1.00  0.00    -0.431 C  
BRANCH  18  19
HETATM   19  C   UNL     1      -9.456  13.068  65.543  1.00  0.00     0.142 C  
BRANCH  19  20
HETATM   20  C   UNL     1      -9.704  11.680  66.105  1.00  0.00    -0.253 C  
BRANCH  20  21
HETATM   21  C   UNL     1     -10.042  11.757  67.586  1.00  0.00    -0.206 C  
BRANCH  21  22
HETATM   22  C   UNL     1     -11.237  10.867  67.894  1.00  0.00    -0.387 C  
BRANCH  22  23
HETATM   23  C   UNL     1     -11.175  10.352  69.326  1.00  0.00    -0.304 C  
BRANCH  23  24
HETATM   24  C   UNL     1     -12.034  11.212  70.242  1.00  0.00    -0.460 C  
BRANCH  24  25
HETATM   25  C   UNL     1     -13.009  10.361  71.038  1.00  0.00    -0.399 C  
HETATM   26  O   UNL     1     -13.306  11.001  72.271  1.00  0.00    -0.633 OA 
HETATM   27  H   UNL     1     -13.916  10.469  72.769  1.00  0.00     0.000 HD 
ENDBRANCH  24  25
ENDBRANCH  23  24
ENDBRANCH  22  23
ENDBRANCH  21  22
ENDBRANCH  20  21
ENDBRANCH  19  20
ENDBRANCH  18  19
ENDBRANCH  17  18
ENDBRANCH  16  17
ENDBRANCH  15  16
ENDBRANCH  14  15
ENDBRANCH   9  14
ENDBRANCH   2   3
TORSDOF 14
ENDMDL
MODEL      210
REMARK 921   NORMALIZED FREE ENERGY PREDICTED BY IDOCK:   -3.57 KCAL/MOL
REMARK 922        TOTAL FREE ENERGY PREDICTED BY IDOCK:   -8.32 KCAL/MOL
REMARK 923 INTER-LIGAND FREE ENERGY PREDICTED BY IDOCK:   -6.99 KCAL/MOL
REMARK 924 INTRA-LIGAND FREE ENERGY PREDICTED BY IDOCK:   -1.33 KCAL/MOL
REMARK 927      BINDING AFFINITY PREDICTED BY RF-SCORE:    0.00 PKD
ROOT
HETATM    1  C   UNL     1      -6.100  16.774  68.415  1.00  0.00    -0.133 C  
HETATM    2  O   UNL     1      -6.307  16.124  67.169  1.00  0.00    -0.199 OA 
ENDROOT
BRANCH   2   3
HETATM    3  C   UNL     1      -7.596  15.662  66.911  1.00  0.00    -0.166 C  
HETATM    4  C   UNL     1      -8.424  16.444  66.194  1.00  0.00    -0.294 C  
HETATM    5  C   UNL     1      -9.816  15.969  65.933  1.00  0.00    -0.348 C  
HETATM    6  O   UNL     1      -7.334  13.463  67.844  1.00  0.00    -0.108 OA 
HETATM    7  O   UNL     1     -10.509  16.392  65.014  1.00  0.00    -0.642 OA 
HETATM    8  C   UNL     1      -8.087  14.350  67.456  1.00  0.00    -0.190 C  
HETATM    9  C   UNL     1     -10.377  14.966  66.881  1.00  0.00    -0.264 C  
HETATM   10  C   UNL     1      -9.987  13.065  68.502  1.00  0.00    -0.174 C  
HETATM   11  C   UNL     1      -9.554  14.170  67.581  1.00  0.00    -0.216 C  
BRANCH   4  12
HETATM   12  O   UNL     1      -7.941  17.661  65.715  1.00  0.00    -0.549 OA 
HETATM   13  C   UNL     1      -8.429  18.861  66.302  1.00  0.00    -0.256 C  
ENDBRANCH   4  12
BRANCH   9  14
HETATM   14  C   UNL     1     -11.871  14.948  66.986  1.00  0.00    -0.216 C  
BRANCH  14  15
HETATM   15  C   UNL     1     -12.499  13.691  66.379  1.00  0.00    -0.377 C  
BRANCH  15  16
HETATM   16  C   UNL     1     -12.746  13.850  64.880  1.00  0.00    -0.315 C  
BRANCH  16  17
HETATM   17  C   UNL     1     -12.562  12.530  64.141  1.00  0.00    -0.474 C  
BRANCH  17  18
HETATM   18  C   UNL     1     -11.205  12.436  63.468  1.00  0.00    -0.540 C  
BRANCH  18  19
HETATM   19  C   UNL     1     -10.123  12.383  64.539  1.00  0.00    -0.276 C  
BRANCH  19  20
HETATM   20  C   UNL     1      -9.568  10.976  64.665  1.00  0.00    -0.297 C  
BRANCH  20  21
HETATM   21  C   UNL     1      -9.374  10.354  63.290  1.00  0.00    -0.335 C  
BRANCH  21  22
HETATM   22  C   UNL     1      -8.068   9.576  63.251  1.00  0.00    -0.151 C  
BRANCH  22  23
HETATM   23  C   UNL     1      -8.238   8.268  62.488  1.00  0.00    -0.169 C  
BRANCH  23  24
HETATM   24  C   UNL     1      -7.614   7.114  63.259  1.00  0.00    -0.109 C  
BRANCH  24  25
HETATM   25  C   UNL     1      -7.999   7.164  64.729  1.00  0.00    -0.122 C  
HETATM   26  O   UNL     1      -7.400   6.075  65.417  1.00  0.00    -0.072 OA 
HETATM   27  H   UNL     1      -7.641   6.107  66.336  1.00  0.00     0.000 HD 
ENDBRANCH  24  25
ENDBRANCH  23  24
ENDBRANCH  22  23
ENDBRANCH  21  22
ENDBRANCH  20  21
ENDBRANCH  19  20
ENDBRANCH  18  19
ENDBRANCH  17  18
ENDBRANCH  16  17
ENDBRANCH  15  16
ENDBRANCH  14  15
ENDBRANCH   9  14
ENDBRANCH   2   3
TORSDOF 14
ENDMDL
MODEL      211
REMARK 921   NORMALIZED FREE ENERGY PREDICTED BY IDOCK:   -3.57 KCAL/MOL
REMARK 922        TOTAL FREE ENERGY PREDICTED BY IDOCK:   -8.31 KCAL/MOL
REMARK 923 INTER-LIGAND FREE ENERGY PREDICTED BY IDOCK:   -6.74 KCAL/MOL
REMARK 924 INTRA-LIGAND FREE ENERGY PREDICTED BY IDOCK:   -1.56 KCAL/MOL
REMARK 927      BINDING AFFINITY PREDICTED BY RF-SCORE:    0.00 PKD
ROOT
HETATM    1  C   UNL     1     -11.391  15.235  71.654  1.00  0.00    -0.373 C  
HETATM    2  O   UNL     1     -12.404  14.526  70.953  1.00  0.00    -0.299 OA 
ENDROOT
BRANCH   2   3
HETATM    3  C   UNL     1     -12.047  13.980  69.721  1.00  0.00    -0.348 C  
HETATM    4  C   UNL     1     -12.057  12.642  69.588  1.00  0.00    -0.213 C  
HETATM    5  C   UNL     1     -11.652  12.046  68.279  1.00  0.00    -0.334 C  
HETATM    6  O   UNL     1     -11.855  16.045  68.507  1.00  0.00    -0.343 OA 
HETATM    7  O   UNL     1     -11.973  10.916  67.927  1.00  0.00    -0.585 OA 
HETATM    8  C   UNL     1     -11.608  14.846  68.574  1.00  0.00    -0.323 C  
HETATM    9  C   UNL     1     -10.778  12.874  67.400  1.00  0.00    -0.252 C  
HETATM   10  C   UNL     1     -10.019  15.164  66.641  1.00  0.00    -0.261 C  
HETATM   11  C   UNL     1     -10.784  14.211  67.517  1.00  0.00    -0.270 C  
BRANCH   4  12
HETATM   12  O   UNL     1     -12.456  11.867  70.676  1.00  0.00    -0.318 OA 
HETATM   13  C   UNL     1     -11.783  10.637  70.915  1.00  0.00    -0.289 C  
ENDBRANCH   4  12
BRANCH   9  14
HETATM   14  C   UNL     1      -9.923  12.106  66.439  1.00  0.00    -0.243 C  
BRANCH  14  15
HETATM   15  C   UNL     1      -8.441  12.117  66.818  1.00  0.00    -0.138 C  
BRANCH  15  16
HETATM   16  C   UNL     1      -8.229  11.753  68.287  1.00  0.00    -0.157 C  
BRANCH  16  17
HETATM   17  C   UNL     1      -6.751  11.562  68.606  1.00  0.00    -0.072 C  
BRANCH  17  18
HETATM   18  C   UNL     1      -6.535  10.977  69.989  1.00  0.00    -0.144 C  
BRANCH  18  19
HETATM   19  C   UNL     1      -7.317   9.675  70.105  1.00  0.00    -0.141 C  
BRANCH  19  20
HETATM   20  C   UNL     1      -6.624   8.570  69.329  1.00  0.00    -0.046 C  
BRANCH  20  21
HETATM   21  C   UNL     1      -7.649   7.666  68.659  1.00  0.00    -0.109 C  
BRANCH  21  22
HETATM   22  C   UNL     1      -8.312   8.401  67.503  1.00  0.00    -0.129 C  
BRANCH  22  23
HETATM   23  C   UNL     1      -9.791   8.049  67.415  1.00  0.00    -0.244 C  
BRANCH  23  24
HETATM   24  C   UNL     1     -10.397   7.932  68.807  1.00  0.00    -0.220 C  
BRANCH  24  25
HETATM   25  C   UNL     1     -11.132   6.613  68.976  1.00  0.00    -0.257 C  
HETATM   26  O   UNL     1     -12.060   6.717  70.046  1.00  0.00    -0.633 OA 
HETATM   27  H   UNL     1     -12.520   5.892  70.151  1.00  0.00     0.000 HD 
ENDBRANCH  24  25
ENDBRANCH  23  24
ENDBRANCH  22  23
ENDBRANCH  21  22
ENDBRANCH  20  21
ENDBRANCH  19  20
ENDBRANCH  18  19
ENDBRANCH  17  18
ENDBRANCH  16  17
ENDBRANCH  15  16
ENDBRANCH  14  15
ENDBRANCH   9  14
ENDBRANCH   2   3
TORSDOF 14
ENDMDL
MODEL      212
REMARK 921   NORMALIZED FREE ENERGY PREDICTED BY IDOCK:   -3.56 KCAL/MOL
REMARK 922        TOTAL FREE ENERGY PREDICTED BY IDOCK:   -8.29 KCAL/MOL
REMARK 923 INTER-LIGAND FREE ENERGY PREDICTED BY IDOCK:   -6.40 KCAL/MOL
REMARK 924 INTRA-LIGAND FREE ENERGY PREDICTED BY IDOCK:   -1.89 KCAL/MOL
REMARK 927      BINDING AFFINITY PREDICTED BY RF-SCORE:    0.00 PKD
ROOT
HETATM    1  C   UNL     1     -11.464   6.660  71.522  1.00  0.00    -0.297 C  
HETATM    2  O   UNL     1     -10.219   6.581  70.842  1.00  0.00    -0.188 OA 
ENDROOT
BRANCH   2   3
HETATM    3  C   UNL     1      -9.947   7.586  69.915  1.00  0.00    -0.189 C  
HETATM    4  C   UNL     1     -10.321   7.395  68.638  1.00  0.00    -0.198 C  
HETATM    5  C   UNL     1     -10.013   8.455  67.631  1.00  0.00    -0.190 C  
HETATM    6  O   UNL     1      -9.106   9.220  71.462  1.00  0.00    -0.315 OA 
HETATM    7  O   UNL     1     -10.613   8.566  66.567  1.00  0.00    -0.200 OA 
HETATM    8  C   UNL     1      -9.209   8.836  70.303  1.00  0.00    -0.174 C  
HETATM    9  C   UNL     1      -8.887   9.379  67.945  1.00  0.00    -0.124 C  
HETATM   10  C   UNL     1      -7.471  10.553  69.680  1.00  0.00    -0.145 C  
HETATM   11  C   UNL     1      -8.527   9.588  69.221  1.00  0.00    -0.139 C  
BRANCH   4  12
HETATM   12  O   UNL     1     -10.992   6.217  68.309  1.00  0.00    -0.307 OA 
HETATM   13  C   UNL     1     -10.306   5.241  67.534  1.00  0.00    -0.162 C  
ENDBRANCH   4  12
BRANCH   9  14
HETATM   14  C   UNL     1      -8.219  10.002  66.759  1.00  0.00    -0.121 C  
BRANCH  14  15
HETATM   15  C   UNL     1      -8.583  11.477  66.573  1.00  0.00    -0.172 C  
BRANCH  15  16
HETATM   16  C   UNL     1      -9.719  11.656  65.567  1.00  0.00    -0.259 C  
BRANCH  16  17
HETATM   17  C   UNL     1     -11.016  12.063  66.256  1.00  0.00    -0.340 C  
BRANCH  17  18
HETATM   18  C   UNL     1     -12.129  12.342  65.264  1.00  0.00    -0.451 C  
BRANCH  18  19
HETATM   19  C   UNL     1     -11.608  13.284  64.186  1.00  0.00    -0.451 C  
BRANCH  19  20
HETATM   20  C   UNL     1     -12.170  14.680  64.383  1.00  0.00    -0.473 C  
BRANCH  20  21
HETATM   21  C   UNL     1     -11.045  15.684  64.587  1.00  0.00    -0.387 C  
BRANCH  21  22
HETATM   22  C   UNL     1     -10.672  15.755  66.060  1.00  0.00    -0.311 C  
BRANCH  22  23
HETATM   23  C   UNL     1      -9.211  15.374  66.268  1.00  0.00    -0.354 C  
BRANCH  23  24
HETATM   24  C   UNL     1      -8.973  14.939  67.708  1.00  0.00    -0.177 C  
BRANCH  24  25
HETATM   25  C   UNL     1      -7.488  14.790  67.996  1.00  0.00    -0.129 C  
HETATM   26  O   UNL     1      -7.281  14.693  69.398  1.00  0.00    -0.148 OA 
HETATM   27  H   UNL     1      -6.353  14.599  69.579  1.00  0.00     0.000 HD 
ENDBRANCH  24  25
ENDBRANCH  23  24
ENDBRANCH  22  23
ENDBRANCH  21  22
ENDBRANCH  20  21
ENDBRANCH  19  20
ENDBRANCH  18  19
ENDBRANCH  17  18
ENDBRANCH  16  17
ENDBRANCH  15  16
ENDBRANCH  14  15
ENDBRANCH   9  14
ENDBRANCH   2   3
TORSDOF 14
ENDMDL
MODEL      213
REMARK 921   NORMALIZED FREE ENERGY PREDICTED BY IDOCK:   -3.55 KCAL/MOL
REMARK 922        TOTAL FREE ENERGY PREDICTED BY IDOCK:   -8.27 KCAL/MOL
REMARK 923 INTER-LIGAND FREE ENERGY PREDICTED BY IDOCK:   -6.97 KCAL/MOL
REMARK 924 INTRA-LIGAND FREE ENERGY PREDICTED BY IDOCK:   -1.31 KCAL/MOL
REMARK 927      BINDING AFFINITY PREDICTED BY RF-SCORE:    0.00 PKD
ROOT
HETATM    1  C   UNL     1     -11.962   5.996  71.883  1.00  0.00    -0.122 C  
HETATM    2  O   UNL     1     -10.766   6.670  72.255  1.00  0.00    -0.211 OA 
ENDROOT
BRANCH   2   3
HETATM    3  C   UNL     1      -9.990   7.184  71.217  1.00  0.00    -0.189 C  
HETATM    4  C   UNL     1     -10.046   8.505  70.972  1.00  0.00    -0.205 C  
HETATM    5  C   UNL     1      -9.237   9.063  69.847  1.00  0.00    -0.173 C  
HETATM    6  O   UNL     1      -8.806   5.163  70.681  1.00  0.00    -0.123 OA 
HETATM    7  O   UNL     1      -8.918  10.244  69.770  1.00  0.00    -0.168 OA 
HETATM    8  C   UNL     1      -9.146   6.294  70.350  1.00  0.00    -0.154 C  
HETATM    9  C   UNL     1      -8.852   8.120  68.758  1.00  0.00    -0.138 C  
HETATM   10  C   UNL     1      -8.320   5.758  68.028  1.00  0.00    -0.103 C  
HETATM   11  C   UNL     1      -8.775   6.803  69.007  1.00  0.00    -0.130 C  
BRANCH   4  12
HETATM   12  O   UNL     1     -10.850   9.300  71.788  1.00  0.00    -0.368 OA 
HETATM   13  C   UNL     1     -12.074   9.793  71.258  1.00  0.00    -0.382 C  
ENDBRANCH   4  12
BRANCH   9  14
HETATM   14  C   UNL     1      -8.595   8.751  67.425  1.00  0.00    -0.126 C  
BRANCH  14  15
HETATM   15  C   UNL     1      -9.838   8.794  66.533  1.00  0.00    -0.349 C  
BRANCH  15  16
HETATM   16  C   UNL     1     -10.238  10.228  66.189  1.00  0.00    -0.285 C  
BRANCH  16  17
HETATM   17  C   UNL     1     -11.015  10.878  67.327  1.00  0.00    -0.355 C  
BRANCH  17  18
HETATM   18  C   UNL     1     -11.540  12.251  66.951  1.00  0.00    -0.427 C  
BRANCH  18  19
HETATM   19  C   UNL     1     -10.442  13.281  67.176  1.00  0.00    -0.248 C  
BRANCH  19  20
HETATM   20  C   UNL     1     -11.035  14.597  67.645  1.00  0.00    -0.296 C  
BRANCH  20  21
HETATM   21  C   UNL     1     -10.067  15.319  68.571  1.00  0.00    -0.222 C  
BRANCH  21  22
HETATM   22  C   UNL     1     -10.713  15.538  69.930  1.00  0.00    -0.321 C  
BRANCH  22  23
HETATM   23  C   UNL     1     -12.132  14.983  69.953  1.00  0.00    -0.376 C  
BRANCH  23  24
HETATM   24  C   UNL     1     -12.831  15.355  71.253  1.00  0.00    -0.519 C  
BRANCH  24  25
HETATM   25  C   UNL     1     -11.902  16.130  72.173  1.00  0.00    -0.536 C  
HETATM   26  O   UNL     1     -12.148  15.760  73.522  1.00  0.00    -0.443 OA 
HETATM   27  H   UNL     1     -11.567  16.244  74.097  1.00  0.00     0.000 HD 
ENDBRANCH  24  25
ENDBRANCH  23  24
ENDBRANCH  22  23
ENDBRANCH  21  22
ENDBRANCH  20  21
ENDBRANCH  19  20
ENDBRANCH  18  19
ENDBRANCH  17  18
ENDBRANCH  16  17
ENDBRANCH  15  16
ENDBRANCH  14  15
ENDBRANCH   9  14
ENDBRANCH   2   3
TORSDOF 14
ENDMDL
MODEL      214
REMARK 921   NORMALIZED FREE ENERGY PREDICTED BY IDOCK:   -3.54 KCAL/MOL
REMARK 922        TOTAL FREE ENERGY PREDICTED BY IDOCK:   -8.27 KCAL/MOL
REMARK 923 INTER-LIGAND FREE ENERGY PREDICTED BY IDOCK:   -6.84 KCAL/MOL
REMARK 924 INTRA-LIGAND FREE ENERGY PREDICTED BY IDOCK:   -1.43 KCAL/MOL
REMARK 927      BINDING AFFINITY PREDICTED BY RF-SCORE:    0.00 PKD
ROOT
HETATM    1  C   UNL     1     -11.053  16.304  69.776  1.00  0.00    -0.337 C  
HETATM    2  O   UNL     1     -10.616  16.316  68.423  1.00  0.00    -0.271 OA 
ENDROOT
BRANCH   2   3
HETATM    3  C   UNL     1      -9.858  15.226  68.001  1.00  0.00    -0.216 C  
HETATM    4  C   UNL     1     -10.420  14.348  67.151  1.00  0.00    -0.263 C  
HETATM    5  C   UNL     1      -9.624  13.162  66.712  1.00  0.00    -0.249 C  
HETATM    6  O   UNL     1      -7.783  15.869  69.029  1.00  0.00    -0.180 OA 
HETATM    7  O   UNL     1      -9.871  12.528  65.692  1.00  0.00    -0.262 OA 
HETATM    8  C   UNL     1      -8.464  14.990  68.512  1.00  0.00    -0.163 C  
HETATM    9  C   UNL     1      -8.511  12.726  67.602  1.00  0.00    -0.178 C  
HETATM   10  C   UNL     1      -6.754  13.323  69.320  1.00  0.00    -0.066 C  
HETATM   11  C   UNL     1      -7.935  13.607  68.435  1.00  0.00    -0.147 C  
BRANCH   4  12
HETATM   12  O   UNL     1     -11.719  14.589  66.708  1.00  0.00    -0.373 OA 
HETATM   13  C   UNL     1     -12.650  13.514  66.723  1.00  0.00     0.012 C  
ENDBRANCH   4  12
BRANCH   9  14
HETATM   14  C   UNL     1      -8.134  11.281  67.496  1.00  0.00    -0.124 C  
BRANCH  14  15
HETATM   15  C   UNL     1      -8.741  10.421  68.607  1.00  0.00    -0.138 C  
BRANCH  15  16
HETATM   16  C   UNL     1      -8.860   8.956  68.187  1.00  0.00    -0.134 C  
BRANCH  16  17
HETATM   17  C   UNL     1     -10.164   8.693  67.443  1.00  0.00    -0.329 C  
BRANCH  17  18
HETATM   18  C   UNL     1     -10.199   7.310  66.820  1.00  0.00    -0.305 C  
BRANCH  18  19
HETATM   19  C   UNL     1     -11.001   6.380  67.721  1.00  0.00    -0.425 C  
BRANCH  19  20
HETATM   20  C   UNL     1     -10.073   5.479  68.515  1.00  0.00    -0.240 C  
BRANCH  20  21
HETATM   21  C   UNL     1     -10.195   5.766  70.003  1.00  0.00    -0.304 C  
BRANCH  21  22
HETATM   22  C   UNL     1     -11.487   6.520  70.283  1.00  0.00    -0.474 C  
BRANCH  22  23
HETATM   23  C   UNL     1     -11.221   7.753  71.137  1.00  0.00    -0.285 C  
BRANCH  23  24
HETATM   24  C   UNL     1     -12.531   8.377  71.597  1.00  0.00    -0.363 C  
BRANCH  24  25
HETATM   25  C   UNL     1     -12.475   9.894  71.515  1.00  0.00    -0.411 C  
HETATM   26  O   UNL     1     -13.486  10.454  72.341  1.00  0.00    -0.612 OA 
HETATM   27  H   UNL     1     -13.451  11.402  72.290  1.00  0.00     0.000 HD 
ENDBRANCH  24  25
ENDBRANCH  23  24
ENDBRANCH  22  23
ENDBRANCH  21  22
ENDBRANCH  20  21
ENDBRANCH  19  20
ENDBRANCH  18  19
ENDBRANCH  17  18
ENDBRANCH  16  17
ENDBRANCH  15  16
ENDBRANCH  14  15
ENDBRANCH   9  14
ENDBRANCH   2   3
TORSDOF 14
ENDMDL
MODEL      215
REMARK 921   NORMALIZED FREE ENERGY PREDICTED BY IDOCK:   -3.54 KCAL/MOL
REMARK 922        TOTAL FREE ENERGY PREDICTED BY IDOCK:   -8.26 KCAL/MOL
REMARK 923 INTER-LIGAND FREE ENERGY PREDICTED BY IDOCK:   -6.28 KCAL/MOL
REMARK 924 INTRA-LIGAND FREE ENERGY PREDICTED BY IDOCK:   -1.98 KCAL/MOL
REMARK 927      BINDING AFFINITY PREDICTED BY RF-SCORE:    0.00 PKD
ROOT
HETATM    1  C   UNL     1     -10.026   4.903  66.065  1.00  0.00    -0.223 C  
HETATM    2  O   UNL     1     -10.242   6.225  66.542  1.00  0.00    -0.166 OA 
ENDROOT
BRANCH   2   3
HETATM    3  C   UNL     1      -9.118   6.924  66.977  1.00  0.00    -0.136 C  
HETATM    4  C   UNL     1      -8.878   6.988  68.299  1.00  0.00    -0.126 C  
HETATM    5  C   UNL     1      -7.690   7.756  68.779  1.00  0.00    -0.113 C  
HETATM    6  O   UNL     1      -8.179   7.387  64.815  1.00  0.00    -0.126 OA 
HETATM    7  O   UNL     1      -7.171   7.576  69.876  1.00  0.00    -0.075 OA 
HETATM    8  C   UNL     1      -8.213   7.638  66.015  1.00  0.00    -0.128 C  
HETATM    9  C   UNL     1      -7.159   8.815  67.875  1.00  0.00    -0.079 C  
HETATM   10  C   UNL     1      -6.831   9.691  65.525  1.00  0.00    -0.089 C  
HETATM   11  C   UNL     1      -7.378   8.741  66.553  1.00  0.00    -0.081 C  
BRANCH   4  12
HETATM   12  O   UNL     1      -9.746   6.324  69.167  1.00  0.00    -0.134 OA 
HETATM   13  C   UNL     1     -10.640   7.101  69.955  1.00  0.00    -0.230 C  
ENDBRANCH   4  12
BRANCH   9  14
HETATM   14  C   UNL     1      -6.415   9.923  68.554  1.00  0.00    -0.050 C  
BRANCH  14  15
HETATM   15  C   UNL     1      -7.339  10.989  69.146  1.00  0.00    -0.121 C  
BRANCH  15  16
HETATM   16  C   UNL     1      -6.807  12.400  68.898  1.00  0.00    -0.099 C  
BRANCH  16  17
HETATM   17  C   UNL     1      -7.304  12.958  67.570  1.00  0.00    -0.154 C  
BRANCH  17  18
HETATM   18  C   UNL     1      -8.573  13.774  67.731  1.00  0.00    -0.184 C  
BRANCH  18  19
HETATM   19  C   UNL     1      -9.484  13.514  66.539  1.00  0.00    -0.265 C  
BRANCH  19  20
HETATM   20  C   UNL     1      -9.618  12.023  66.288  1.00  0.00    -0.243 C  
BRANCH  20  21
HETATM   21  C   UNL     1     -11.051  11.569  66.520  1.00  0.00    -0.341 C  
BRANCH  21  22
HETATM   22  C   UNL     1     -12.020  12.619  65.998  1.00  0.00    -0.478 C  
BRANCH  22  23
HETATM   23  C   UNL     1     -12.356  12.366  64.534  1.00  0.00    -0.519 C  
BRANCH  23  24
HETATM   24  C   UNL     1     -12.094  13.614  63.702  1.00  0.00    -0.397 C  
BRANCH  24  25
HETATM   25  C   UNL     1     -12.188  14.870  64.552  1.00  0.00    -0.382 C  
HETATM   26  O   UNL     1     -11.951  16.013  63.743  1.00  0.00    -1.339 OA 
HETATM   27  H   UNL     1     -12.010  16.798  64.275  1.00  0.00     0.000 HD 
ENDBRANCH  24  25
ENDBRANCH  23  24
ENDBRANCH  22  23
ENDBRANCH  21  22
ENDBRANCH  20  21
ENDBRANCH  19  20
ENDBRANCH  18  19
ENDBRANCH  17  18
ENDBRANCH  16  17
ENDBRANCH  15  16
ENDBRANCH  14  15
ENDBRANCH   9  14
ENDBRANCH   2   3
TORSDOF 14
ENDMDL
MODEL      216
REMARK 921   NORMALIZED FREE ENERGY PREDICTED BY IDOCK:   -3.54 KCAL/MOL
REMARK 922        TOTAL FREE ENERGY PREDICTED BY IDOCK:   -8.25 KCAL/MOL
REMARK 923 INTER-LIGAND FREE ENERGY PREDICTED BY IDOCK:   -6.84 KCAL/MOL
REMARK 924 INTRA-LIGAND FREE ENERGY PREDICTED BY IDOCK:   -1.41 KCAL/MOL
REMARK 927      BINDING AFFINITY PREDICTED BY RF-SCORE:    0.00 PKD
ROOT
HETATM    1  C   UNL     1     -11.128  15.877  64.736  1.00  0.00    -0.384 C  
HETATM    2  O   UNL     1     -12.144  14.961  65.123  1.00  0.00    -0.279 OA 
ENDROOT
BRANCH   2   3
HETATM    3  C   UNL     1     -11.798  14.015  66.086  1.00  0.00    -0.407 C  
HETATM    4  C   UNL     1     -11.548  12.756  65.683  1.00  0.00    -0.370 C  
HETATM    5  C   UNL     1     -11.200  11.727  66.709  1.00  0.00    -0.328 C  
HETATM    6  O   UNL     1     -11.665  15.509  67.962  1.00  0.00    -0.322 OA 
HETATM    7  O   UNL     1     -10.604  10.689  66.445  1.00  0.00    -0.233 OA 
HETATM    8  C   UNL     1     -11.751  14.358  67.547  1.00  0.00    -0.387 C  
HETATM    9  C   UNL     1     -11.654  11.985  68.105  1.00  0.00    -0.403 C  
HETATM   10  C   UNL     1     -12.261  13.646  69.912  1.00  0.00    -0.367 C  
HETATM   11  C   UNL     1     -11.883  13.242  68.515  1.00  0.00    -0.384 C  
BRANCH   4  12
HETATM   12  O   UNL     1     -11.613  12.468  64.320  1.00  0.00    -0.327 OA 
HETATM   13  C   UNL     1     -12.836  11.968  63.792  1.00  0.00    -0.320 C  
ENDBRANCH   4  12
BRANCH   9  14
HETATM   14  C   UNL     1     -11.841  10.765  68.953  1.00  0.00    -0.287 C  
BRANCH  14  15
HETATM   15  C   UNL     1     -10.651  10.491  69.877  1.00  0.00    -0.261 C  
BRANCH  15  16
HETATM   16  C   UNL     1     -11.064   9.680  71.105  1.00  0.00    -0.444 C  
BRANCH  16  17
HETATM   17  C   UNL     1     -10.109   8.519  71.352  1.00  0.00    -0.302 C  
BRANCH  17  18
HETATM   18  C   UNL     1      -9.600   7.910  70.059  1.00  0.00    -0.168 C  
BRANCH  18  19
HETATM   19  C   UNL     1      -8.095   7.703  70.166  1.00  0.00    -0.118 C  
BRANCH  19  20
HETATM   20  C   UNL     1      -7.354   8.797  69.419  1.00  0.00    -0.072 C  
BRANCH  20  21
HETATM   21  C   UNL     1      -8.009   9.060  68.071  1.00  0.00    -0.101 C  
BRANCH  21  22
HETATM   22  C   UNL     1      -7.446   8.110  67.025  1.00  0.00    -0.088 C  
BRANCH  22  23
HETATM   23  C   UNL     1      -8.553   7.266  66.406  1.00  0.00    -0.141 C  
BRANCH  23  24
HETATM   24  C   UNL     1      -8.084   6.646  65.097  1.00  0.00    -0.133 C  
BRANCH  24  25
HETATM   25  C   UNL     1      -8.475   5.179  65.014  1.00  0.00    -0.148 C  
HETATM   26  O   UNL     1      -7.603   4.502  64.121  1.00  0.00    -0.069 OA 
HETATM   27  H   UNL     1      -7.847   3.586  64.069  1.00  0.00     0.000 HD 
ENDBRANCH  24  25
ENDBRANCH  23  24
ENDBRANCH  22  23
ENDBRANCH  21  22
ENDBRANCH  20  21
ENDBRANCH  19  20
ENDBRANCH  18  19
ENDBRANCH  17  18
ENDBRANCH  16  17
ENDBRANCH  15  16
ENDBRANCH  14  15
ENDBRANCH   9  14
ENDBRANCH   2   3
TORSDOF 14
ENDMDL
MODEL      217
REMARK 921   NORMALIZED FREE ENERGY PREDICTED BY IDOCK:   -3.54 KCAL/MOL
REMARK 922        TOTAL FREE ENERGY PREDICTED BY IDOCK:   -8.25 KCAL/MOL
REMARK 923 INTER-LIGAND FREE ENERGY PREDICTED BY IDOCK:   -6.87 KCAL/MOL
REMARK 924 INTRA-LIGAND FREE ENERGY PREDICTED BY IDOCK:   -1.38 KCAL/MOL
REMARK 927      BINDING AFFINITY PREDICTED BY RF-SCORE:    0.00 PKD
ROOT
HETATM    1  C   UNL     1     -10.895  15.911  64.859  1.00  0.00    -0.400 C  
HETATM    2  O   UNL     1     -11.956  15.017  65.164  1.00  0.00    -0.260 OA 
ENDROOT
BRANCH   2   3
HETATM    3  C   UNL     1     -11.720  14.087  66.175  1.00  0.00    -0.384 C  
HETATM    4  C   UNL     1     -11.638  12.787  65.841  1.00  0.00    -0.382 C  
HETATM    5  C   UNL     1     -11.409  11.779  66.920  1.00  0.00    -0.320 C  
HETATM    6  O   UNL     1     -11.370  15.652  67.965  1.00  0.00    -0.343 OA 
HETATM    7  O   UNL     1     -10.953  10.661  66.709  1.00  0.00    -0.215 OA 
HETATM    8  C   UNL     1     -11.608  14.501  67.615  1.00  0.00    -0.378 C  
HETATM    9  C   UNL     1     -11.806  12.168  68.303  1.00  0.00    -0.361 C  
HETATM   10  C   UNL     1     -12.169  13.989  70.020  1.00  0.00    -0.414 C  
HETATM   11  C   UNL     1     -11.867  13.464  68.645  1.00  0.00    -0.397 C  
BRANCH   4  12
HETATM   12  O   UNL     1     -11.759  12.436  64.497  1.00  0.00    -0.332 OA 
HETATM   13  C   UNL     1     -10.582  12.089  63.779  1.00  0.00    -0.430 C  
ENDBRANCH   4  12
BRANCH   9  14
HETATM   14  C   UNL     1     -12.133  11.030  69.220  1.00  0.00    -0.363 C  
BRANCH  14  15
HETATM   15  C   UNL     1     -10.896  10.419  69.880  1.00  0.00    -0.353 C  
BRANCH  15  16
HETATM   16  C   UNL     1     -11.273   9.427  70.981  1.00  0.00    -0.412 C  
BRANCH  16  17
HETATM   17  C   UNL     1     -10.722   8.036  70.691  1.00  0.00    -0.235 C  
BRANCH  17  18
HETATM   18  C   UNL     1     -10.549   7.787  69.205  1.00  0.00    -0.193 C  
BRANCH  18  19
HETATM   19  C   UNL     1      -9.121   7.327  68.942  1.00  0.00    -0.132 C  
BRANCH  19  20
HETATM   20  C   UNL     1      -8.358   8.382  68.161  1.00  0.00    -0.128 C  
BRANCH  20  21
HETATM   21  C   UNL     1      -6.930   8.496  68.673  1.00  0.00    -0.064 C  
BRANCH  21  22
HETATM   22  C   UNL     1      -6.934   8.906  70.138  1.00  0.00    -0.043 C  
BRANCH  22  23
HETATM   23  C   UNL     1      -6.051   7.979  70.963  1.00  0.00    -0.034 C  
BRANCH  23  24
HETATM   24  C   UNL     1      -6.568   7.879  72.392  1.00  0.00    -0.069 C  
BRANCH  24  25
HETATM   25  C   UNL     1      -7.690   6.860  72.499  1.00  0.00    -0.095 C  
HETATM   26  O   UNL     1      -8.573   7.230  73.547  1.00  0.00    -0.131 OA 
HETATM   27  H   UNL     1      -9.275   6.593  73.614  1.00  0.00     0.000 HD 
ENDBRANCH  24  25
ENDBRANCH  23  24
ENDBRANCH  22  23
ENDBRANCH  21  22
ENDBRANCH  20  21
ENDBRANCH  19  20
ENDBRANCH  18  19
ENDBRANCH  17  18
ENDBRANCH  16  17
ENDBRANCH  15  16
ENDBRANCH  14  15
ENDBRANCH   9  14
ENDBRANCH   2   3
TORSDOF 14
ENDMDL
MODEL      218
REMARK 921   NORMALIZED FREE ENERGY PREDICTED BY IDOCK:   -3.53 KCAL/MOL
REMARK 922        TOTAL FREE ENERGY PREDICTED BY IDOCK:   -8.25 KCAL/MOL
REMARK 923 INTER-LIGAND FREE ENERGY PREDICTED BY IDOCK:   -6.82 KCAL/MOL
REMARK 924 INTRA-LIGAND FREE ENERGY PREDICTED BY IDOCK:   -1.43 KCAL/MOL
REMARK 927      BINDING AFFINITY PREDICTED BY RF-SCORE:    0.00 PKD
ROOT
HETATM    1  C   UNL     1      -5.357  18.233  70.395  1.00  0.00    -0.255 C  
HETATM    2  O   UNL     1      -5.678  18.258  69.010  1.00  0.00    -0.198 OA 
ENDROOT
BRANCH   2   3
HETATM    3  C   UNL     1      -6.744  17.459  68.601  1.00  0.00    -0.201 C  
HETATM    4  C   UNL     1      -7.955  18.029  68.467  1.00  0.00    -0.303 C  
HETATM    5  C   UNL     1      -9.110  17.177  68.053  1.00  0.00    -0.240 C  
HETATM    6  O   UNL     1      -5.488  15.457  68.167  1.00  0.00    -0.109 OA 
HETATM    7  O   UNL     1     -10.131  17.628  67.547  1.00  0.00    -0.310 OA 
HETATM    8  C   UNL     1      -6.577  15.985  68.362  1.00  0.00    -0.120 C  
HETATM    9  C   UNL     1      -9.002  15.715  68.322  1.00  0.00    -0.181 C  
HETATM   10  C   UNL     1      -7.544  13.670  68.620  1.00  0.00    -0.115 C  
HETATM   11  C   UNL     1      -7.795  15.140  68.435  1.00  0.00    -0.127 C  
BRANCH   4  12
HETATM   12  O   UNL     1      -8.078  19.397  68.710  1.00  0.00    -0.359 OA 
HETATM   13  C   UNL     1      -7.974  20.291  67.609  1.00  0.00    -0.276 C  
ENDBRANCH   4  12
BRANCH   9  14
HETATM   14  C   UNL     1     -10.306  14.992  68.469  1.00  0.00    -0.230 C  
BRANCH  14  15
HETATM   15  C   UNL     1     -10.559  13.981  67.348  1.00  0.00    -0.278 C  
BRANCH  15  16
HETATM   16  C   UNL     1     -11.249  14.628  66.147  1.00  0.00    -0.341 C  
BRANCH  16  17
HETATM   17  C   UNL     1     -12.290  13.699  65.536  1.00  0.00    -0.519 C  
BRANCH  17  18
HETATM   18  C   UNL     1     -12.074  13.498  64.048  1.00  0.00    -0.494 C  
BRANCH  18  19
HETATM   19  C   UNL     1     -10.771  12.738  63.834  1.00  0.00    -0.443 C  
BRANCH  19  20
HETATM   20  C   UNL     1     -10.943  11.275  64.201  1.00  0.00    -0.376 C  
BRANCH  20  21
HETATM   21  C   UNL     1     -10.060  10.916  65.387  1.00  0.00    -0.336 C  
BRANCH  21  22
HETATM   22  C   UNL     1     -10.911  10.356  66.517  1.00  0.00    -0.098 C  
BRANCH  22  23
HETATM   23  C   UNL     1     -10.042   9.652  67.551  1.00  0.00    -0.247 C  
BRANCH  23  24
HETATM   24  C   UNL     1      -9.208  10.662  68.327  1.00  0.00    -0.153 C  
BRANCH  24  25
HETATM   25  C   UNL     1      -8.868  10.143  69.714  1.00  0.00    -0.127 C  
HETATM   26  O   UNL     1      -7.730  10.830  70.215  1.00  0.00    -0.382 OA 
HETATM   27  H   UNL     1      -7.517  10.506  71.082  1.00  0.00     0.000 HD 
ENDBRANCH  24  25
ENDBRANCH  23  24
ENDBRANCH  22  23
ENDBRANCH  21  22
ENDBRANCH  20  21
ENDBRANCH  19  20
ENDBRANCH  18  19
ENDBRANCH  17  18
ENDBRANCH  16  17
ENDBRANCH  15  16
ENDBRANCH  14  15
ENDBRANCH   9  14
ENDBRANCH   2   3
TORSDOF 14
ENDMDL
MODEL      219
REMARK 921   NORMALIZED FREE ENERGY PREDICTED BY IDOCK:   -3.53 KCAL/MOL
REMARK 922        TOTAL FREE ENERGY PREDICTED BY IDOCK:   -8.24 KCAL/MOL
REMARK 923 INTER-LIGAND FREE ENERGY PREDICTED BY IDOCK:   -7.32 KCAL/MOL
REMARK 924 INTRA-LIGAND FREE ENERGY PREDICTED BY IDOCK:   -0.92 KCAL/MOL
REMARK 927      BINDING AFFINITY PREDICTED BY RF-SCORE:    0.00 PKD
ROOT
HETATM    1  C   UNL     1      -7.986  17.253  68.515  1.00  0.00    -0.261 C  
HETATM    2  O   UNL     1      -9.393  17.298  68.314  1.00  0.00    -0.255 OA 
ENDROOT
BRANCH   2   3
HETATM    3  C   UNL     1      -9.912  16.454  67.333  1.00  0.00    -0.251 C  
HETATM    4  C   UNL     1     -10.557  17.008  66.291  1.00  0.00    -0.185 C  
HETATM    5  C   UNL     1     -11.139  16.111  65.247  1.00  0.00    -0.181 C  
HETATM    6  O   UNL     1      -9.000  14.397  68.175  1.00  0.00    -0.172 OA 
HETATM    7  O   UNL     1     -11.401  16.487  64.109  1.00  0.00    -1.060 OA 
HETATM    8  C   UNL     1      -9.809  14.959  67.445  1.00  0.00    -0.221 C  
HETATM    9  C   UNL     1     -11.445  14.710  65.652  1.00  0.00    -0.340 C  
HETATM   10  C   UNL     1     -10.937  12.726  67.134  1.00  0.00    -0.295 C  
HETATM   11  C   UNL     1     -10.786  14.149  66.678  1.00  0.00    -0.299 C  
BRANCH   4  12
HETATM   12  O   UNL     1     -10.646  18.398  66.225  1.00  0.00    -0.395 OA 
HETATM   13  C   UNL     1      -9.577  19.116  65.623  1.00  0.00     0.441 C  
ENDBRANCH   4  12
BRANCH   9  14
HETATM   14  C   UNL     1     -12.519  14.034  64.858  1.00  0.00    -0.419 C  
BRANCH  14  15
HETATM   15  C   UNL     1     -11.998  13.396  63.568  1.00  0.00    -0.467 C  
BRANCH  15  16
HETATM   16  C   UNL     1     -11.563  11.948  63.788  1.00  0.00    -0.555 C  
BRANCH  16  17
HETATM   17  C   UNL     1     -10.111  11.733  63.379  1.00  0.00    -0.470 C  
BRANCH  17  18
HETATM   18  C   UNL     1      -9.583  10.384  63.829  1.00  0.00    -0.366 C  
BRANCH  18  19
HETATM   19  C   UNL     1     -10.217  10.024  65.166  1.00  0.00    -0.146 C  
BRANCH  19  20
HETATM   20  C   UNL     1      -9.384   8.978  65.885  1.00  0.00    -0.306 C  
BRANCH  20  21
HETATM   21  C   UNL     1      -9.646   9.024  67.383  1.00  0.00    -0.195 C  
BRANCH  21  22
HETATM   22  C   UNL     1     -10.592   7.901  67.779  1.00  0.00    -0.244 C  
BRANCH  22  23
HETATM   23  C   UNL     1     -10.321   6.648  66.956  1.00  0.00    -0.330 C  
BRANCH  23  24
HETATM   24  C   UNL     1      -9.181   5.844  67.565  1.00  0.00    -0.108 C  
BRANCH  24  25
HETATM   25  C   UNL     1      -9.692   4.894  68.636  1.00  0.00    -0.160 C  
HETATM   26  O   UNL     1      -8.595   4.238  69.254  1.00  0.00    -0.079 OA 
HETATM   27  H   UNL     1      -8.913   3.644  69.925  1.00  0.00     0.000 HD 
ENDBRANCH  24  25
ENDBRANCH  23  24
ENDBRANCH  22  23
ENDBRANCH  21  22
ENDBRANCH  20  21
ENDBRANCH  19  20
ENDBRANCH  18  19
ENDBRANCH  17  18
ENDBRANCH  16  17
ENDBRANCH  15  16
ENDBRANCH  14  15
ENDBRANCH   9  14
ENDBRANCH   2   3
TORSDOF 14
ENDMDL
MODEL      220
REMARK 921   NORMALIZED FREE ENERGY PREDICTED BY IDOCK:   -3.52 KCAL/MOL
REMARK 922        TOTAL FREE ENERGY PREDICTED BY IDOCK:   -8.22 KCAL/MOL
REMARK 923 INTER-LIGAND FREE ENERGY PREDICTED BY IDOCK:   -6.42 KCAL/MOL
REMARK 924 INTRA-LIGAND FREE ENERGY PREDICTED BY IDOCK:   -1.80 KCAL/MOL
REMARK 927      BINDING AFFINITY PREDICTED BY RF-SCORE:    0.00 PKD
ROOT
HETATM    1  C   UNL     1     -12.011  13.514  65.823  1.00  0.00    -0.403 C  
HETATM    2  O   UNL     1     -12.148  12.164  66.245  1.00  0.00    -0.626 OA 
ENDROOT
BRANCH   2   3
HETATM    3  C   UNL     1     -10.976  11.494  66.591  1.00  0.00    -0.296 C  
HETATM    4  C   UNL     1     -10.624  11.451  67.889  1.00  0.00    -0.189 C  
HETATM    5  C   UNL     1      -9.356  10.758  68.268  1.00  0.00    -0.161 C  
HETATM    6  O   UNL     1     -10.467  10.607  64.417  1.00  0.00    -0.350 OA 
HETATM    7  O   UNL     1      -9.133  10.336  69.398  1.00  0.00    -0.196 OA 
HETATM    8  C   UNL     1     -10.086  10.875  65.551  1.00  0.00    -0.267 C  
HETATM    9  C   UNL     1      -8.314  10.628  67.211  1.00  0.00    -0.120 C  
HETATM   10  C   UNL     1      -7.732  10.444  64.757  1.00  0.00    -0.069 C  
HETATM   11  C   UNL     1      -8.666  10.649  65.916  1.00  0.00    -0.186 C  
BRANCH   4  12
HETATM   12  O   UNL     1     -11.466  12.048  68.827  1.00  0.00    -0.249 OA 
HETATM   13  C   UNL     1     -12.236  11.206  69.676  1.00  0.00    -0.290 C  
ENDBRANCH   4  12
BRANCH   9  14
HETATM   14  C   UNL     1      -6.908  10.500  67.709  1.00  0.00    -0.073 C  
BRANCH  14  15
HETATM   15  C   UNL     1      -6.098  11.788  67.551  1.00  0.00    -0.092 C  
BRANCH  15  16
HETATM   16  C   UNL     1      -6.626  12.903  68.453  1.00  0.00    -0.085 C  
BRANCH  16  17
HETATM   17  C   UNL     1      -7.088  14.107  67.640  1.00  0.00    -0.199 C  
BRANCH  17  18
HETATM   18  C   UNL     1      -8.466  14.585  68.056  1.00  0.00    -0.161 C  
BRANCH  18  19
HETATM   19  C   UNL     1      -8.322  15.575  69.204  1.00  0.00    -0.253 C  
BRANCH  19  20
HETATM   20  C   UNL     1      -7.020  16.346  69.080  1.00  0.00    -0.218 C  
BRANCH  20  21
HETATM   21  C   UNL     1      -7.291  17.791  68.690  1.00  0.00    -0.269 C  
BRANCH  21  22
HETATM   22  C   UNL     1      -6.966  18.003  67.219  1.00  0.00    -0.204 C  
BRANCH  22  23
HETATM   23  C   UNL     1      -8.240  18.063  66.386  1.00  0.00    -0.285 C  
BRANCH  23  24
HETATM   24  C   UNL     1      -9.084  19.265  66.785  1.00  0.00    -0.362 C  
BRANCH  24  25
HETATM   25  C   UNL     1     -10.554  18.894  66.885  1.00  0.00    -0.421 C  
HETATM   26  O   UNL     1     -10.722  17.861  67.846  1.00  0.00    -0.392 OA 
HETATM   27  H   UNL     1     -11.641  17.629  67.909  1.00  0.00     0.000 HD 
ENDBRANCH  24  25
ENDBRANCH  23  24
ENDBRANCH  22  23
ENDBRANCH  21  22
ENDBRANCH  20  21
ENDBRANCH  19  20
ENDBRANCH  18  19
ENDBRANCH  17  18
ENDBRANCH  16  17
ENDBRANCH  15  16
ENDBRANCH  14  15
ENDBRANCH   9  14
ENDBRANCH   2   3
TORSDOF 14
ENDMDL
MODEL      221
REMARK 921   NORMALIZED FREE ENERGY PREDICTED BY IDOCK:   -3.51 KCAL/MOL
REMARK 922        TOTAL FREE ENERGY PREDICTED BY IDOCK:   -8.20 KCAL/MOL
REMARK 923 INTER-LIGAND FREE ENERGY PREDICTED BY IDOCK:   -5.98 KCAL/MOL
REMARK 924 INTRA-LIGAND FREE ENERGY PREDICTED BY IDOCK:   -2.22 KCAL/MOL
REMARK 927      BINDING AFFINITY PREDICTED BY RF-SCORE:    0.00 PKD
ROOT
HETATM    1  C   UNL     1      -8.836  11.170  65.489  1.00  0.00    -0.136 C  
HETATM    2  O   UNL     1      -8.596  11.135  66.890  1.00  0.00    -0.139 OA 
ENDROOT
BRANCH   2   3
HETATM    3  C   UNL     1      -8.671   9.887  67.506  1.00  0.00    -0.121 C  
HETATM    4  C   UNL     1      -7.564   9.397  68.093  1.00  0.00    -0.083 C  
HETATM    5  C   UNL     1      -7.627   8.049  68.735  1.00  0.00    -0.103 C  
HETATM    6  O   UNL     1     -11.035   9.550  67.245  1.00  0.00    -0.203 OA 
HETATM    7  O   UNL     1      -6.836   7.678  69.595  1.00  0.00    -0.043 OA 
HETATM    8  C   UNL     1      -9.931   9.070  67.480  1.00  0.00    -0.207 C  
HETATM    9  C   UNL     1      -8.686   7.119  68.252  1.00  0.00    -0.128 C  
HETATM   10  C   UNL     1     -10.977   6.789  67.235  1.00  0.00    -0.433 C  
HETATM   11  C   UNL     1      -9.800   7.607  67.685  1.00  0.00    -0.207 C  
BRANCH   4  12
HETATM   12  O   UNL     1      -6.407  10.175  68.087  1.00  0.00    -0.053 OA 
HETATM   13  C   UNL     1      -6.153  11.019  69.204  1.00  0.00    -0.045 C  
ENDBRANCH   4  12
BRANCH   9  14
HETATM   14  C   UNL     1      -8.390   5.662  68.433  1.00  0.00    -0.106 C  
BRANCH  14  15
HETATM   15  C   UNL     1      -8.581   5.187  69.875  1.00  0.00    -0.108 C  
BRANCH  15  16
HETATM   16  C   UNL     1     -10.054   4.929  70.195  1.00  0.00    -0.332 C  
BRANCH  16  17
HETATM   17  C   UNL     1     -10.246   4.533  71.654  1.00  0.00    -0.214 C  
BRANCH  17  18
HETATM   18  C   UNL     1      -8.999   4.779  72.483  1.00  0.00    -0.135 C  
BRANCH  18  19
HETATM   19  C   UNL     1      -9.150   6.100  73.225  1.00  0.00    -0.129 C  
BRANCH  19  20
HETATM   20  C   UNL     1     -10.616   6.418  73.452  1.00  0.00    -0.298 C  
BRANCH  20  21
HETATM   21  C   UNL     1     -10.948   7.807  72.930  1.00  0.00    -0.467 C  
BRANCH  21  22
HETATM   22  C   UNL     1      -9.832   8.301  72.021  1.00  0.00    -0.327 C  
BRANCH  22  23
HETATM   23  C   UNL     1     -10.359   9.324  71.023  1.00  0.00    -0.388 C  
BRANCH  23  24
HETATM   24  C   UNL     1     -11.778   9.741  71.383  1.00  0.00    -0.475 C  
BRANCH  24  25
HETATM   25  C   UNL     1     -12.201  10.977  70.605  1.00  0.00    -0.385 C  
HETATM   26  O   UNL     1     -12.609  10.601  69.297  1.00  0.00    -0.715 OA 
HETATM   27  H   UNL     1     -12.873  11.373  68.810  1.00  0.00     0.000 HD 
ENDBRANCH  24  25
ENDBRANCH  23  24
ENDBRANCH  22  23
ENDBRANCH  21  22
ENDBRANCH  20  21
ENDBRANCH  19  20
ENDBRANCH  18  19
ENDBRANCH  17  18
ENDBRANCH  16  17
ENDBRANCH  15  16
ENDBRANCH  14  15
ENDBRANCH   9  14
ENDBRANCH   2   3
TORSDOF 14
ENDMDL
MODEL      222
REMARK 921   NORMALIZED FREE ENERGY PREDICTED BY IDOCK:   -3.50 KCAL/MOL
REMARK 922        TOTAL FREE ENERGY PREDICTED BY IDOCK:   -8.19 KCAL/MOL
REMARK 923 INTER-LIGAND FREE ENERGY PREDICTED BY IDOCK:   -7.07 KCAL/MOL
REMARK 924 INTRA-LIGAND FREE ENERGY PREDICTED BY IDOCK:   -1.12 KCAL/MOL
REMARK 927      BINDING AFFINITY PREDICTED BY RF-SCORE:    0.00 PKD
ROOT
HETATM    1  C   UNL     1      -9.657  10.146  62.745  1.00  0.00    -0.177 C  
HETATM    2  O   UNL     1      -9.005  10.244  64.004  1.00  0.00    -0.196 OA 
ENDROOT
BRANCH   2   3
HETATM    3  C   UNL     1      -9.557  11.131  64.927  1.00  0.00    -0.239 C  
HETATM    4  C   UNL     1      -9.471  10.827  66.234  1.00  0.00    -0.181 C  
HETATM    5  C   UNL     1     -10.082  11.758  67.231  1.00  0.00    -0.192 C  
HETATM    6  O   UNL     1     -10.144  12.871  63.378  1.00  0.00    -0.169 OA 
HETATM    7  O   UNL     1      -9.752  11.788  68.412  1.00  0.00    -0.194 OA 
HETATM    8  C   UNL     1     -10.280  12.373  64.490  1.00  0.00    -0.299 C  
HETATM    9  C   UNL     1     -11.173  12.648  66.745  1.00  0.00    -0.347 C  
HETATM   10  C   UNL     1     -12.241  13.920  64.838  1.00  0.00    -0.445 C  
HETATM   11  C   UNL     1     -11.247  12.970  65.444  1.00  0.00    -0.317 C  
BRANCH   4  12
HETATM   12  O   UNL     1      -8.805   9.659  66.604  1.00  0.00    -0.135 OA 
HETATM   13  C   UNL     1      -9.582   8.523  66.964  1.00  0.00    -0.188 C  
ENDBRANCH   4  12
BRANCH   9  14
HETATM   14  C   UNL     1     -12.141  13.107  67.792  1.00  0.00    -0.262 C  
BRANCH  14  15
HETATM   15  C   UNL     1     -11.582  14.226  68.673  1.00  0.00    -0.352 C  
BRANCH  15  16
HETATM   16  C   UNL     1     -10.960  15.346  67.839  1.00  0.00    -0.310 C  
BRANCH  16  17
HETATM   17  C   UNL     1      -9.467  15.484  68.116  1.00  0.00    -0.198 C  
BRANCH  17  18
HETATM   18  C   UNL     1      -8.662  15.657  66.843  1.00  0.00    -0.283 C  
BRANCH  18  19
HETATM   19  C   UNL     1      -7.334  16.322  67.182  1.00  0.00    -0.244 C  
BRANCH  19  20
HETATM   20  C   UNL     1      -6.948  17.318  66.104  1.00  0.00    -0.251 C  
BRANCH  20  21
HETATM   21  C   UNL     1      -6.671  18.683  66.714  1.00  0.00    -0.211 C  
BRANCH  21  22
HETATM   22  C   UNL     1      -7.272  18.761  68.110  1.00  0.00    -0.273 C  
BRANCH  22  23
HETATM   23  C   UNL     1      -8.348  19.836  68.178  1.00  0.00    -0.326 C  
BRANCH  23  24
HETATM   24  C   UNL     1      -9.342  19.671  67.037  1.00  0.00    -0.439 C  
BRANCH  24  25
HETATM   25  C   UNL     1     -10.702  19.229  67.553  1.00  0.00    -0.463 C  
HETATM   26  O   UNL     1     -10.602  18.887  68.928  1.00  0.00    -0.380 OA 
HETATM   27  H   UNL     1     -11.451  18.611  69.252  1.00  0.00     0.000 HD 
ENDBRANCH  24  25
ENDBRANCH  23  24
ENDBRANCH  22  23
ENDBRANCH  21  22
ENDBRANCH  20  21
ENDBRANCH  19  20
ENDBRANCH  18  19
ENDBRANCH  17  18
ENDBRANCH  16  17
ENDBRANCH  15  16
ENDBRANCH  14  15
ENDBRANCH   9  14
ENDBRANCH   2   3
TORSDOF 14
ENDMDL
MODEL      223
REMARK 921   NORMALIZED FREE ENERGY PREDICTED BY IDOCK:   -3.50 KCAL/MOL
REMARK 922        TOTAL FREE ENERGY PREDICTED BY IDOCK:   -8.19 KCAL/MOL
REMARK 923 INTER-LIGAND FREE ENERGY PREDICTED BY IDOCK:   -7.37 KCAL/MOL
REMARK 924 INTRA-LIGAND FREE ENERGY PREDICTED BY IDOCK:   -0.81 KCAL/MOL
REMARK 927      BINDING AFFINITY PREDICTED BY RF-SCORE:    0.00 PKD
ROOT
HETATM    1  C   UNL     1     -11.203  15.832  70.883  1.00  0.00    -0.366 C  
HETATM    2  O   UNL     1     -12.085  14.767  70.553  1.00  0.00    -0.275 OA 
ENDROOT
BRANCH   2   3
HETATM    3  C   UNL     1     -11.825  14.085  69.365  1.00  0.00    -0.333 C  
HETATM    4  C   UNL     1     -11.862  12.741  69.380  1.00  0.00    -0.300 C  
HETATM    5  C   UNL     1     -11.561  11.999  68.118  1.00  0.00    -0.340 C  
HETATM    6  O   UNL     1     -11.694  16.003  67.924  1.00  0.00    -0.145 OA 
HETATM    7  O   UNL     1     -11.921  10.845  67.915  1.00  0.00    -0.585 OA 
HETATM    8  C   UNL     1     -11.459  14.813  68.103  1.00  0.00    -0.323 C  
HETATM    9  C   UNL     1     -10.742  12.709  67.095  1.00  0.00    -0.264 C  
HETATM   10  C   UNL     1     -10.010  14.888  66.040  1.00  0.00    -0.337 C  
HETATM   11  C   UNL     1     -10.721  14.051  67.066  1.00  0.00    -0.284 C  
BRANCH   4  12
HETATM   12  O   UNL     1     -12.192  12.097  70.572  1.00  0.00    -0.356 OA 
HETATM   13  C   UNL     1     -12.091  10.679  70.625  1.00  0.00    -0.365 C  
ENDBRANCH   4  12
BRANCH   9  14
HETATM   14  C   UNL     1      -9.969  11.825  66.166  1.00  0.00    -0.254 C  
BRANCH  14  15
HETATM   15  C   UNL     1      -8.472  11.789  66.482  1.00  0.00    -0.125 C  
BRANCH  15  16
HETATM   16  C   UNL     1      -8.191  12.173  67.934  1.00  0.00    -0.155 C  
BRANCH  16  17
HETATM   17  C   UNL     1      -6.817  12.815  68.085  1.00  0.00    -0.094 C  
BRANCH  17  18
HETATM   18  C   UNL     1      -6.660  13.525  69.416  1.00  0.00    -0.082 C  
BRANCH  18  19
HETATM   19  C   UNL     1      -6.682  15.030  69.181  1.00  0.00    -0.126 C  
BRANCH  19  20
HETATM   20  C   UNL     1      -8.103  15.558  69.250  1.00  0.00    -0.248 C  
BRANCH  20  21
HETATM   21  C   UNL     1      -8.182  16.957  68.658  1.00  0.00    -0.254 C  
BRANCH  21  22
HETATM   22  C   UNL     1      -7.092  17.142  67.613  1.00  0.00    -0.169 C  
BRANCH  22  23
HETATM   23  C   UNL     1      -7.689  17.559  66.275  1.00  0.00    -0.334 C  
BRANCH  23  24
HETATM   24  C   UNL     1      -8.131  19.015  66.317  1.00  0.00    -0.298 C  
BRANCH  24  25
HETATM   25  C   UNL     1      -9.643  19.132  66.215  1.00  0.00    -0.348 C  
HETATM   26  O   UNL     1      -9.991  20.433  65.763  1.00  0.00    -0.615 OA 
HETATM   27  H   UNL     1     -10.936  20.506  65.699  1.00  0.00     0.000 HD 
ENDBRANCH  24  25
ENDBRANCH  23  24
ENDBRANCH  22  23
ENDBRANCH  21  22
ENDBRANCH  20  21
ENDBRANCH  19  20
ENDBRANCH  18  19
ENDBRANCH  17  18
ENDBRANCH  16  17
ENDBRANCH  15  16
ENDBRANCH  14  15
ENDBRANCH   9  14
ENDBRANCH   2   3
TORSDOF 14
ENDMDL
MODEL      224
REMARK 921   NORMALIZED FREE ENERGY PREDICTED BY IDOCK:   -3.50 KCAL/MOL
REMARK 922        TOTAL FREE ENERGY PREDICTED BY IDOCK:   -8.18 KCAL/MOL
REMARK 923 INTER-LIGAND FREE ENERGY PREDICTED BY IDOCK:   -6.84 KCAL/MOL
REMARK 924 INTRA-LIGAND FREE ENERGY PREDICTED BY IDOCK:   -1.34 KCAL/MOL
REMARK 927      BINDING AFFINITY PREDICTED BY RF-SCORE:    0.00 PKD
ROOT
HETATM    1  C   UNL     1     -12.927  14.166  65.662  1.00  0.00    -0.251 C  
HETATM    2  O   UNL     1     -11.521  14.017  65.809  1.00  0.00    -0.308 OA 
ENDROOT
BRANCH   2   3
HETATM    3  C   UNL     1     -11.065  12.772  66.238  1.00  0.00    -0.288 C  
HETATM    4  C   UNL     1     -10.692  11.873  65.310  1.00  0.00    -0.283 C  
HETATM    5  C   UNL     1     -10.226  10.527  65.758  1.00  0.00    -0.243 C  
HETATM    6  O   UNL     1     -11.061  13.235  68.596  1.00  0.00    -0.245 OA 
HETATM    7  O   UNL     1      -9.529   9.792  65.066  1.00  0.00    -0.252 OA 
HETATM    8  C   UNL     1     -11.033  12.404  67.695  1.00  0.00    -0.236 C  
HETATM    9  C   UNL     1     -10.684  10.064  67.099  1.00  0.00    -0.279 C  
HETATM   10  C   UNL     1     -11.433  10.634  69.446  1.00  0.00    -0.356 C  
HETATM   11  C   UNL     1     -11.036  10.960  68.034  1.00  0.00    -0.317 C  
BRANCH   4  12
HETATM   12  O   UNL     1     -10.747  12.243  63.966  1.00  0.00    -0.328 OA 
HETATM   13  C   UNL     1     -11.818  11.747  63.172  1.00  0.00    -0.091 C  
ENDBRANCH   4  12
BRANCH   9  14
HETATM   14  C   UNL     1     -10.731   8.579  67.282  1.00  0.00    -0.219 C  
BRANCH  14  15
HETATM   15  C   UNL     1      -9.783   8.081  68.376  1.00  0.00    -0.168 C  
BRANCH  15  16
HETATM   16  C   UNL     1      -9.916   6.574  68.597  1.00  0.00    -0.155 C  
BRANCH  16  17
HETATM   17  C   UNL     1      -9.058   6.104  69.765  1.00  0.00    -0.144 C  
BRANCH  17  18
HETATM   18  C   UNL     1      -9.720   4.987  70.549  1.00  0.00    -0.273 C  
BRANCH  18  19
HETATM   19  C   UNL     1      -9.085   4.908  71.932  1.00  0.00    -0.160 C  
BRANCH  19  20
HETATM   20  C   UNL     1      -9.970   5.586  72.962  1.00  0.00    -0.196 C  
BRANCH  20  21
HETATM   21  C   UNL     1      -9.403   6.946  73.340  1.00  0.00    -0.179 C  
BRANCH  21  22
HETATM   22  C   UNL     1     -10.183   8.047  72.639  1.00  0.00    -0.385 C  
BRANCH  22  23
HETATM   23  C   UNL     1     -11.535   7.534  72.161  1.00  0.00    -0.334 C  
BRANCH  23  24
HETATM   24  C   UNL     1     -12.646   8.490  72.573  1.00  0.00    -0.346 C  
BRANCH  24  25
HETATM   25  C   UNL     1     -13.852   8.356  71.659  1.00  0.00    -0.379 C  
HETATM   26  O   UNL     1     -13.910   7.037  71.135  1.00  0.00    -0.422 OA 
HETATM   27  H   UNL     1     -14.664   6.953  70.563  1.00  0.00     0.000 HD 
ENDBRANCH  24  25
ENDBRANCH  23  24
ENDBRANCH  22  23
ENDBRANCH  21  22
ENDBRANCH  20  21
ENDBRANCH  19  20
ENDBRANCH  18  19
ENDBRANCH  17  18
ENDBRANCH  16  17
ENDBRANCH  15  16
ENDBRANCH  14  15
ENDBRANCH   9  14
ENDBRANCH   2   3
TORSDOF 14
ENDMDL
MODEL      225
REMARK 921   NORMALIZED FREE ENERGY PREDICTED BY IDOCK:   -3.49 KCAL/MOL
REMARK 922        TOTAL FREE ENERGY PREDICTED BY IDOCK:   -8.17 KCAL/MOL
REMARK 923 INTER-LIGAND FREE ENERGY PREDICTED BY IDOCK:   -7.00 KCAL/MOL
REMARK 924 INTRA-LIGAND FREE ENERGY PREDICTED BY IDOCK:   -1.17 KCAL/MOL
REMARK 927      BINDING AFFINITY PREDICTED BY RF-SCORE:    0.00 PKD
ROOT
HETATM    1  C   UNL     1     -11.880  13.888  69.707  1.00  0.00    -0.329 C  
HETATM    2  O   UNL     1     -12.223  12.621  69.160  1.00  0.00    -0.191 OA 
ENDROOT
BRANCH   2   3
HETATM    3  C   UNL     1     -11.817  11.499  69.880  1.00  0.00    -0.355 C  
HETATM    4  C   UNL     1     -10.768  10.791  69.421  1.00  0.00    -0.233 C  
HETATM    5  C   UNL     1     -10.340   9.572  70.171  1.00  0.00    -0.255 C  
HETATM    6  O   UNL     1     -13.297  11.773  71.752  1.00  0.00    -0.407 OA 
HETATM    7  O   UNL     1      -9.219   9.086  70.079  1.00  0.00    -0.159 OA 
HETATM    8  C   UNL     1     -12.550  11.044  71.109  1.00  0.00    -0.418 C  
HETATM    9  C   UNL     1     -11.364   8.913  71.031  1.00  0.00    -0.350 C  
HETATM   10  C   UNL     1     -13.449   9.105  72.448  1.00  0.00    -0.535 C  
HETATM   11  C   UNL     1     -12.398   9.623  71.507  1.00  0.00    -0.477 C  
BRANCH   4  12
HETATM   12  O   UNL     1     -10.119  11.234  68.270  1.00  0.00    -0.176 OA 
HETATM   13  C   UNL     1      -8.921  11.987  68.416  1.00  0.00    -0.153 C  
ENDBRANCH   4  12
BRANCH   9  14
HETATM   14  C   UNL     1     -11.146   7.452  71.281  1.00  0.00    -0.269 C  
BRANCH  14  15
HETATM   15  C   UNL     1     -11.785   6.562  70.213  1.00  0.00    -0.430 C  
BRANCH  15  16
HETATM   16  C   UNL     1     -10.746   6.021  69.231  1.00  0.00    -0.401 C  
BRANCH  16  17
HETATM   17  C   UNL     1     -11.037   6.476  67.806  1.00  0.00    -0.366 C  
BRANCH  17  18
HETATM   18  C   UNL     1      -9.773   6.611  66.979  1.00  0.00    -0.197 C  
BRANCH  18  19
HETATM   19  C   UNL     1      -8.786   5.530  67.400  1.00  0.00    -0.105 C  
BRANCH  19  20
HETATM   20  C   UNL     1      -8.010   5.022  66.199  1.00  0.00    -0.107 C  
BRANCH  20  21
HETATM   21  C   UNL     1      -8.841   5.155  64.932  1.00  0.00    -0.118 C  
BRANCH  21  22
HETATM   22  C   UNL     1      -8.578   3.972  64.012  1.00  0.00    -0.102 C  
BRANCH  22  23
HETATM   23  C   UNL     1      -9.174   4.216  62.631  1.00  0.00    -0.119 C  
BRANCH  23  24
HETATM   24  C   UNL     1     -10.486   3.460  62.474  1.00  0.00    -0.171 C  
BRANCH  24  25
HETATM   25  C   UNL     1     -10.317   1.990  62.821  1.00  0.00    -0.111 C  
HETATM   26  O   UNL     1     -11.353   1.586  63.704  1.00  0.00    -0.468 OA 
HETATM   27  H   UNL     1     -11.247   0.667  63.922  1.00  0.00     0.000 HD 
ENDBRANCH  24  25
ENDBRANCH  23  24
ENDBRANCH  22  23
ENDBRANCH  21  22
ENDBRANCH  20  21
ENDBRANCH  19  20
ENDBRANCH  18  19
ENDBRANCH  17  18
ENDBRANCH  16  17
ENDBRANCH  15  16
ENDBRANCH  14  15
ENDBRANCH   9  14
ENDBRANCH   2   3
TORSDOF 14
ENDMDL
MODEL      226
REMARK 921   NORMALIZED FREE ENERGY PREDICTED BY IDOCK:   -3.48 KCAL/MOL
REMARK 922        TOTAL FREE ENERGY PREDICTED BY IDOCK:   -8.14 KCAL/MOL
REMARK 923 INTER-LIGAND FREE ENERGY PREDICTED BY IDOCK:   -7.09 KCAL/MOL
REMARK 924 INTRA-LIGAND FREE ENERGY PREDICTED BY IDOCK:   -1.06 KCAL/MOL
REMARK 927      BINDING AFFINITY PREDICTED BY RF-SCORE:    0.00 PKD
ROOT
HETATM    1  C   UNL     1      -8.252   4.518  67.312  1.00  0.00    -0.101 C  
HETATM    2  O   UNL     1      -9.174   5.271  66.535  1.00  0.00    -0.130 OA 
ENDROOT
BRANCH   2   3
HETATM    3  C   UNL     1      -9.290   6.626  66.841  1.00  0.00    -0.148 C  
HETATM    4  C   UNL     1      -9.794   6.969  68.040  1.00  0.00    -0.138 C  
HETATM    5  C   UNL     1      -9.946   8.418  68.369  1.00  0.00    -0.187 C  
HETATM    6  O   UNL     1      -8.187   7.485  64.887  1.00  0.00    -0.132 OA 
HETATM    7  O   UNL     1     -10.027   8.841  69.517  1.00  0.00    -0.186 OA 
HETATM    8  C   UNL     1      -8.916   7.692  65.851  1.00  0.00    -0.103 C  
HETATM    9  C   UNL     1     -10.045   9.365  67.223  1.00  0.00    -0.285 C  
HETATM   10  C   UNL     1      -9.480   9.925  64.822  1.00  0.00    -0.356 C  
HETATM   11  C   UNL     1      -9.523   9.034  66.031  1.00  0.00    -0.323 C  
BRANCH   4  12
HETATM   12  O   UNL     1     -10.143   5.954  68.930  1.00  0.00    -0.154 OA 
HETATM   13  C   UNL     1     -11.377   6.062  69.629  1.00  0.00    -0.257 C  
ENDBRANCH   4  12
BRANCH   9  14
HETATM   14  C   UNL     1     -10.766  10.646  67.510  1.00  0.00    -0.321 C  
BRANCH  14  15
HETATM   15  C   UNL     1      -9.838  11.753  68.017  1.00  0.00    -0.184 C  
BRANCH  15  16
HETATM   16  C   UNL     1      -9.715  12.894  67.008  1.00  0.00    -0.230 C  
BRANCH  16  17
HETATM   17  C   UNL     1     -10.659  14.042  67.347  1.00  0.00    -0.278 C  
BRANCH  17  18
HETATM   18  C   UNL     1     -10.249  14.765  68.617  1.00  0.00    -0.236 C  
BRANCH  18  19
HETATM   19  C   UNL     1     -11.495  15.313  69.300  1.00  0.00    -0.334 C  
BRANCH  19  20
HETATM   20  C   UNL     1     -12.521  14.212  69.495  1.00  0.00    -0.165 C  
BRANCH  20  21
HETATM   21  C   UNL     1     -12.316  13.523  70.836  1.00  0.00    -0.437 C  
BRANCH  21  22
HETATM   22  C   UNL     1     -12.306  12.013  70.648  1.00  0.00    -0.394 C  
BRANCH  22  23
HETATM   23  C   UNL     1     -13.147  11.329  71.718  1.00  0.00    -0.527 C  
BRANCH  23  24
HETATM   24  C   UNL     1     -12.675   9.897  71.934  1.00  0.00    -0.501 C  
BRANCH  24  25
HETATM   25  C   UNL     1     -13.826   8.999  72.358  1.00  0.00    -0.475 C  
HETATM   26  O   UNL     1     -13.468   7.639  72.157  1.00  0.00    -0.501 OA 
HETATM   27  H   UNL     1     -14.187   7.077  72.422  1.00  0.00     0.000 HD 
ENDBRANCH  24  25
ENDBRANCH  23  24
ENDBRANCH  22  23
ENDBRANCH  21  22
ENDBRANCH  20  21
ENDBRANCH  19  20
ENDBRANCH  18  19
ENDBRANCH  17  18
ENDBRANCH  16  17
ENDBRANCH  15  16
ENDBRANCH  14  15
ENDBRANCH   9  14
ENDBRANCH   2   3
TORSDOF 14
ENDMDL
MODEL      227
REMARK 921   NORMALIZED FREE ENERGY PREDICTED BY IDOCK:   -3.48 KCAL/MOL
REMARK 922        TOTAL FREE ENERGY PREDICTED BY IDOCK:   -8.14 KCAL/MOL
REMARK 923 INTER-LIGAND FREE ENERGY PREDICTED BY IDOCK:   -7.14 KCAL/MOL
REMARK 924 INTRA-LIGAND FREE ENERGY PREDICTED BY IDOCK:   -1.00 KCAL/MOL
REMARK 927      BINDING AFFINITY PREDICTED BY RF-SCORE:    0.00 PKD
ROOT
HETATM    1  C   UNL     1      -8.352   4.002  67.627  1.00  0.00    -0.094 C  
HETATM    2  O   UNL     1      -7.968   4.974  68.590  1.00  0.00    -0.084 OA 
ENDROOT
BRANCH   2   3
HETATM    3  C   UNL     1      -8.989   5.743  69.144  1.00  0.00    -0.118 C  
HETATM    4  C   UNL     1      -9.156   7.001  68.697  1.00  0.00    -0.132 C  
HETATM    5  C   UNL     1     -10.232   7.843  69.301  1.00  0.00    -0.216 C  
HETATM    6  O   UNL     1      -9.978   4.023  70.500  1.00  0.00    -0.187 OA 
HETATM    7  O   UNL     1     -10.713   8.822  68.742  1.00  0.00    -0.181 OA 
HETATM    8  C   UNL     1      -9.859   5.218  70.251  1.00  0.00    -0.215 C  
HETATM    9  C   UNL     1     -10.691   7.474  70.671  1.00  0.00    -0.239 C  
HETATM   10  C   UNL     1     -11.038   5.690  72.430  1.00  0.00    -0.324 C  
HETATM   11  C   UNL     1     -10.545   6.214  71.110  1.00  0.00    -0.300 C  
BRANCH   4  12
HETATM   12  O   UNL     1      -8.323   7.461  67.678  1.00  0.00    -0.117 OA 
HETATM   13  C   UNL     1      -8.832   7.495  66.351  1.00  0.00    -0.156 C  
ENDBRANCH   4  12
BRANCH   9  14
HETATM   14  C   UNL     1     -11.280   8.593  71.473  1.00  0.00    -0.360 C  
BRANCH  14  15
HETATM   15  C   UNL     1     -12.790   8.740  71.274  1.00  0.00    -0.250 C  
BRANCH  15  16
HETATM   16  C   UNL     1     -13.192  10.199  71.057  1.00  0.00    -0.412 C  
BRANCH  16  17
HETATM   17  C   UNL     1     -12.009  11.039  70.589  1.00  0.00    -0.464 C  
BRANCH  17  18
HETATM   18  C   UNL     1     -12.444  12.390  70.051  1.00  0.00    -0.037 C  
BRANCH  18  19
HETATM   19  C   UNL     1     -11.994  12.514  68.601  1.00  0.00    -0.268 C  
BRANCH  19  20
HETATM   20  C   UNL     1     -10.487  12.674  68.525  1.00  0.00    -0.249 C  
BRANCH  20  21
HETATM   21  C   UNL     1      -9.918  11.830  67.394  1.00  0.00    -0.198 C  
BRANCH  21  22
HETATM   22  C   UNL     1     -10.117  12.542  66.064  1.00  0.00    -0.268 C  
BRANCH  22  23
HETATM   23  C   UNL     1     -10.161  11.542  64.915  1.00  0.00    -0.324 C  
BRANCH  23  24
HETATM   24  C   UNL     1     -10.866  12.145  63.708  1.00  0.00    -0.490 C  
BRANCH  24  25
HETATM   25  C   UNL     1     -12.232  12.693  64.088  1.00  0.00    -0.450 C  
HETATM   26  O   UNL     1     -12.568  13.773  63.230  1.00  0.00    -1.005 OA 
HETATM   27  H   UNL     1     -13.422  14.116  63.467  1.00  0.00     0.000 HD 
ENDBRANCH  24  25
ENDBRANCH  23  24
ENDBRANCH  22  23
ENDBRANCH  21  22
ENDBRANCH  20  21
ENDBRANCH  19  20
ENDBRANCH  18  19
ENDBRANCH  17  18
ENDBRANCH  16  17
ENDBRANCH  15  16
ENDBRANCH  14  15
ENDBRANCH   9  14
ENDBRANCH   2   3
TORSDOF 14
ENDMDL
MODEL      228
REMARK 921   NORMALIZED FREE ENERGY PREDICTED BY IDOCK:   -3.47 KCAL/MOL
REMARK 922        TOTAL FREE ENERGY PREDICTED BY IDOCK:   -8.14 KCAL/MOL
REMARK 923 INTER-LIGAND FREE ENERGY PREDICTED BY IDOCK:   -6.09 KCAL/MOL
REMARK 924 INTRA-LIGAND FREE ENERGY PREDICTED BY IDOCK:   -2.05 KCAL/MOL
REMARK 927      BINDING AFFINITY PREDICTED BY RF-SCORE:    0.00 PKD
ROOT
HETATM    1  C   UNL     1      -7.831  10.325  69.544  1.00  0.00    -0.168 C  
HETATM    2  O   UNL     1      -8.152   9.802  70.827  1.00  0.00    -0.271 OA 
ENDROOT
BRANCH   2   3
HETATM    3  C   UNL     1      -8.720   8.530  70.860  1.00  0.00    -0.166 C  
HETATM    4  C   UNL     1      -8.012   7.529  71.413  1.00  0.00    -0.095 C  
HETATM    5  C   UNL     1      -8.601   6.156  71.431  1.00  0.00    -0.128 C  
HETATM    6  O   UNL     1     -10.885   9.131  70.010  1.00  0.00    -0.228 OA 
HETATM    7  O   UNL     1      -8.241   5.281  72.211  1.00  0.00    -0.115 OA 
HETATM    8  C   UNL     1     -10.065   8.252  70.251  1.00  0.00    -0.192 C  
HETATM    9  C   UNL     1      -9.644   5.854  70.410  1.00  0.00    -0.204 C  
HETATM   10  C   UNL     1     -11.500   6.677  68.902  1.00  0.00    -0.103 C  
HETATM   11  C   UNL     1     -10.366   6.850  69.873  1.00  0.00    -0.223 C  
BRANCH   4  12
HETATM   12  O   UNL     1      -6.761   7.819  71.956  1.00  0.00    -0.053 OA 
HETATM   13  C   UNL     1      -6.675   8.091  73.349  1.00  0.00    -0.099 C  
ENDBRANCH   4  12
BRANCH   9  14
HETATM   14  C   UNL     1      -9.785   4.408  70.046  1.00  0.00    -0.286 C  
BRANCH  14  15
HETATM   15  C   UNL     1      -8.781   3.959  68.981  1.00  0.00    -0.133 C  
BRANCH  15  16
HETATM   16  C   UNL     1      -9.481   3.468  67.715  1.00  0.00    -0.230 C  
BRANCH  16  17
HETATM   17  C   UNL     1      -9.551   4.561  66.656  1.00  0.00    -0.203 C  
BRANCH  17  18
HETATM   18  C   UNL     1      -8.482   5.619  66.854  1.00  0.00    -0.111 C  
BRANCH  18  19
HETATM   19  C   UNL     1      -8.790   6.810  65.956  1.00  0.00    -0.150 C  
BRANCH  19  20
HETATM   20  C   UNL     1      -8.792   8.096  66.763  1.00  0.00    -0.156 C  
BRANCH  20  21
HETATM   21  C   UNL     1      -9.959   8.981  66.352  1.00  0.00    -0.370 C  
BRANCH  21  22
HETATM   22  C   UNL     1      -9.488  10.040  65.366  1.00  0.00    -0.310 C  
BRANCH  22  23
HETATM   23  C   UNL     1     -10.562  11.098  65.151  1.00  0.00    -0.319 C  
BRANCH  23  24
HETATM   24  C   UNL     1     -10.599  11.534  63.693  1.00  0.00    -0.491 C  
BRANCH  24  25
HETATM   25  C   UNL     1     -11.629  12.630  63.474  1.00  0.00    -0.514 C  
HETATM   26  O   UNL     1     -12.909  12.049  63.270  1.00  0.00    -0.771 OA 
HETATM   27  H   UNL     1     -13.553  12.733  63.134  1.00  0.00     0.000 HD 
ENDBRANCH  24  25
ENDBRANCH  23  24
ENDBRANCH  22  23
ENDBRANCH  21  22
ENDBRANCH  20  21
ENDBRANCH  19  20
ENDBRANCH  18  19
ENDBRANCH  17  18
ENDBRANCH  16  17
ENDBRANCH  15  16
ENDBRANCH  14  15
ENDBRANCH   9  14
ENDBRANCH   2   3
TORSDOF 14
ENDMDL
MODEL      229
REMARK 921   NORMALIZED FREE ENERGY PREDICTED BY IDOCK:   -3.47 KCAL/MOL
REMARK 922        TOTAL FREE ENERGY PREDICTED BY IDOCK:   -8.13 KCAL/MOL
REMARK 923 INTER-LIGAND FREE ENERGY PREDICTED BY IDOCK:   -7.20 KCAL/MOL
REMARK 924 INTRA-LIGAND FREE ENERGY PREDICTED BY IDOCK:   -0.93 KCAL/MOL
REMARK 927      BINDING AFFINITY PREDICTED BY RF-SCORE:    0.00 PKD
ROOT
HETATM    1  C   UNL     1      -9.510   5.423  66.183  1.00  0.00    -0.157 C  
HETATM    2  O   UNL     1      -8.886   6.160  67.226  1.00  0.00    -0.109 OA 
ENDROOT
BRANCH   2   3
HETATM    3  C   UNL     1      -9.301   7.479  67.395  1.00  0.00    -0.140 C  
HETATM    4  C   UNL     1      -9.929   7.811  68.538  1.00  0.00    -0.182 C  
HETATM    5  C   UNL     1     -10.400   9.217  68.718  1.00  0.00    -0.214 C  
HETATM    6  O   UNL     1      -8.302   8.379  65.404  1.00  0.00    -0.141 OA 
HETATM    7  O   UNL     1     -10.629   9.713  69.816  1.00  0.00    -0.213 OA 
HETATM    8  C   UNL     1      -9.108   8.509  66.318  1.00  0.00    -0.185 C  
HETATM    9  C   UNL     1     -10.635  10.015  67.482  1.00  0.00    -0.336 C  
HETATM   10  C   UNL     1     -10.074  10.469  65.059  1.00  0.00    -0.390 C  
HETATM   11  C   UNL     1      -9.993   9.700  66.347  1.00  0.00    -0.323 C  
BRANCH   4  12
HETATM   12  O   UNL     1     -10.103   6.827  69.511  1.00  0.00    -0.172 OA 
HETATM   13  C   UNL     1     -11.396   6.255  69.670  1.00  0.00    -0.422 C  
ENDBRANCH   4  12
BRANCH   9  14
HETATM   14  C   UNL     1     -11.623  11.132  67.619  1.00  0.00    -0.266 C  
BRANCH  14  15
HETATM   15  C   UNL     1     -11.033  12.374  68.290  1.00  0.00    -0.269 C  
BRANCH  15  16
HETATM   16  C   UNL     1     -10.074  13.118  67.361  1.00  0.00    -0.229 C  
BRANCH  16  17
HETATM   17  C   UNL     1     -10.818  14.097  66.461  1.00  0.00    -0.298 C  
BRANCH  17  18
HETATM   18  C   UNL     1     -11.279  15.330  67.215  1.00  0.00    -0.306 C  
BRANCH  18  19
HETATM   19  C   UNL     1     -10.425  16.519  66.792  1.00  0.00    -0.269 C  
BRANCH  19  20
HETATM   20  C   UNL     1     -10.530  17.638  67.811  1.00  0.00    -0.379 C  
BRANCH  20  21
HETATM   21  C   UNL     1     -10.669  18.983  67.113  1.00  0.00    -0.541 C  
BRANCH  21  22
HETATM   22  C   UNL     1      -9.662  19.971  67.684  1.00  0.00    -0.535 C  
BRANCH  22  23
HETATM   23  C   UNL     1      -8.796  19.309  68.749  1.00  0.00    -0.387 C  
BRANCH  23  24
HETATM   24  C   UNL     1      -7.320  19.484  68.422  1.00  0.00    -0.352 C  
BRANCH  24  25
HETATM   25  C   UNL     1      -6.874  18.499  67.354  1.00  0.00    -0.203 C  
HETATM   26  O   UNL     1      -6.463  19.206  66.193  1.00  0.00    -0.186 OA 
HETATM   27  H   UNL     1      -6.184  18.591  65.526  1.00  0.00     0.000 HD 
ENDBRANCH  24  25
ENDBRANCH  23  24
ENDBRANCH  22  23
ENDBRANCH  21  22
ENDBRANCH  20  21
ENDBRANCH  19  20
ENDBRANCH  18  19
ENDBRANCH  17  18
ENDBRANCH  16  17
ENDBRANCH  15  16
ENDBRANCH  14  15
ENDBRANCH   9  14
ENDBRANCH   2   3
TORSDOF 14
ENDMDL
MODEL      230
REMARK 921   NORMALIZED FREE ENERGY PREDICTED BY IDOCK:   -3.46 KCAL/MOL
REMARK 922        TOTAL FREE ENERGY PREDICTED BY IDOCK:   -8.12 KCAL/MOL
REMARK 923 INTER-LIGAND FREE ENERGY PREDICTED BY IDOCK:   -6.45 KCAL/MOL
REMARK 924 INTRA-LIGAND FREE ENERGY PREDICTED BY IDOCK:   -1.67 KCAL/MOL
REMARK 927      BINDING AFFINITY PREDICTED BY RF-SCORE:    0.00 PKD
ROOT
HETATM    1  C   UNL     1     -12.740  14.035  65.583  1.00  0.00    -0.481 C  
HETATM    2  O   UNL     1     -11.408  13.890  66.056  1.00  0.00    -0.314 OA 
ENDROOT
BRANCH   2   3
HETATM    3  C   UNL     1     -11.062  12.646  66.580  1.00  0.00    -0.274 C  
HETATM    4  C   UNL     1     -10.383  11.789  65.796  1.00  0.00    -0.253 C  
HETATM    5  C   UNL     1     -10.029  10.443  66.340  1.00  0.00    -0.221 C  
HETATM    6  O   UNL     1     -11.810  13.034  68.830  1.00  0.00    -0.302 OA 
HETATM    7  O   UNL     1      -9.123   9.752  65.885  1.00  0.00    -0.150 OA 
HETATM    8  C   UNL     1     -11.471  12.234  67.966  1.00  0.00    -0.321 C  
HETATM    9  C   UNL     1     -10.864   9.925  67.460  1.00  0.00    -0.307 C  
HETATM   10  C   UNL     1     -12.328  10.397  69.467  1.00  0.00     0.021 C  
HETATM   11  C   UNL     1     -11.524  10.780  68.257  1.00  0.00    -0.353 C  
BRANCH   4  12
HETATM   12  O   UNL     1     -10.031  12.199  64.511  1.00  0.00    -0.263 OA 
HETATM   13  C   UNL     1     -10.742  11.652  63.407  1.00  0.00    -0.391 C  
ENDBRANCH   4  12
BRANCH   9  14
HETATM   14  C   UNL     1     -10.909   8.433  67.589  1.00  0.00    -0.078 C  
BRANCH  14  15
HETATM   15  C   UNL     1     -10.648   7.948  69.016  1.00  0.00    -0.177 C  
BRANCH  15  16
HETATM   16  C   UNL     1     -11.284   6.583  69.275  1.00  0.00    -0.390 C  
BRANCH  16  17
HETATM   17  C   UNL     1     -11.182   6.190  70.744  1.00  0.00    -0.373 C  
BRANCH  17  18
HETATM   18  C   UNL     1     -11.839   7.208  71.656  1.00  0.00    -0.340 C  
BRANCH  18  19
HETATM   19  C   UNL     1     -11.312   7.019  73.072  1.00  0.00    -0.173 C  
BRANCH  19  20
HETATM   20  C   UNL     1     -10.016   7.784  73.264  1.00  0.00    -0.370 C  
BRANCH  20  21
HETATM   21  C   UNL     1      -8.841   6.824  73.375  1.00  0.00    -0.143 C  
BRANCH  21  22
HETATM   22  C   UNL     1      -7.796   7.156  72.321  1.00  0.00    -0.092 C  
BRANCH  22  23
HETATM   23  C   UNL     1      -8.171   8.426  71.567  1.00  0.00    -0.182 C  
BRANCH  23  24
HETATM   24  C   UNL     1      -6.993   8.926  70.743  1.00  0.00    -0.074 C  
BRANCH  24  25
HETATM   25  C   UNL     1      -7.459   9.520  69.424  1.00  0.00    -0.088 C  
HETATM   26  O   UNL     1      -8.234  10.684  69.672  1.00  0.00    -0.359 OA 
HETATM   27  H   UNL     1      -8.525  11.056  68.847  1.00  0.00     0.000 HD 
ENDBRANCH  24  25
ENDBRANCH  23  24
ENDBRANCH  22  23
ENDBRANCH  21  22
ENDBRANCH  20  21
ENDBRANCH  19  20
ENDBRANCH  18  19
ENDBRANCH  17  18
ENDBRANCH  16  17
ENDBRANCH  15  16
ENDBRANCH  14  15
ENDBRANCH   9  14
ENDBRANCH   2   3
TORSDOF 14
ENDMDL
MODEL      231
REMARK 921   NORMALIZED FREE ENERGY PREDICTED BY IDOCK:   -3.45 KCAL/MOL
REMARK 922        TOTAL FREE ENERGY PREDICTED BY IDOCK:   -8.10 KCAL/MOL
REMARK 923 INTER-LIGAND FREE ENERGY PREDICTED BY IDOCK:   -6.94 KCAL/MOL
REMARK 924 INTRA-LIGAND FREE ENERGY PREDICTED BY IDOCK:   -1.16 KCAL/MOL
REMARK 927      BINDING AFFINITY PREDICTED BY RF-SCORE:    0.00 PKD
ROOT
HETATM    1  C   UNL     1      -9.551   3.590  69.887  1.00  0.00    -0.149 C  
HETATM    2  O   UNL     1      -8.748   4.723  70.187  1.00  0.00    -0.090 OA 
ENDROOT
BRANCH   2   3
HETATM    3  C   UNL     1      -9.353   5.972  70.052  1.00  0.00    -0.153 C  
HETATM    4  C   UNL     1      -8.977   6.756  69.026  1.00  0.00    -0.131 C  
HETATM    5  C   UNL     1      -9.601   8.106  68.887  1.00  0.00    -0.153 C  
HETATM    6  O   UNL     1     -10.972   5.727  71.811  1.00  0.00    -0.258 OA 
HETATM    7  O   UNL     1      -9.626   8.729  67.831  1.00  0.00    -0.140 OA 
HETATM    8  C   UNL     1     -10.363   6.469  71.047  1.00  0.00    -0.206 C  
HETATM    9  C   UNL     1     -10.172   8.718  70.120  1.00  0.00    -0.207 C  
HETATM   10  C   UNL     1     -11.235   8.414  72.394  1.00  0.00    -0.438 C  
HETATM   11  C   UNL     1     -10.568   7.935  71.136  1.00  0.00    -0.238 C  
BRANCH   4  12
HETATM   12  O   UNL     1      -8.027   6.269  68.129  1.00  0.00    -0.106 OA 
HETATM   13  C   UNL     1      -8.476   5.748  66.884  1.00  0.00    -0.108 C  
ENDBRANCH   4  12
BRANCH   9  14
HETATM   14  C   UNL     1     -10.238  10.214  70.122  1.00  0.00    -0.235 C  
BRANCH  14  15
HETATM   15  C   UNL     1     -11.630  10.752  69.782  1.00  0.00    -0.393 C  
BRANCH  15  16
HETATM   16  C   UNL     1     -11.668  12.280  69.811  1.00  0.00    -0.368 C  
BRANCH  16  17
HETATM   17  C   UNL     1     -11.559  12.866  68.408  1.00  0.00    -0.369 C  
BRANCH  17  18
HETATM   18  C   UNL     1     -11.966  11.871  67.338  1.00  0.00    -0.090 C  
BRANCH  18  19
HETATM   19  C   UNL     1     -11.514  12.391  65.980  1.00  0.00    -0.431 C  
BRANCH  19  20
HETATM   20  C   UNL     1     -12.610  13.220  65.336  1.00  0.00    -0.526 C  
BRANCH  20  21
HETATM   21  C   UNL     1     -12.012  14.276  64.420  1.00  0.00    -0.476 C  
BRANCH  21  22
HETATM   22  C   UNL     1     -10.657  14.718  64.951  1.00  0.00    -0.431 C  
BRANCH  22  23
HETATM   23  C   UNL     1     -10.734  16.126  65.529  1.00  0.00    -0.355 C  
BRANCH  23  24
HETATM   24  C   UNL     1      -9.731  16.295  66.662  1.00  0.00    -0.266 C  
BRANCH  24  25
HETATM   25  C   UNL     1     -10.436  16.475  67.996  1.00  0.00    -0.313 C  
HETATM   26  O   UNL     1      -9.865  17.573  68.693  1.00  0.00    -0.306 OA 
HETATM   27  H   UNL     1     -10.306  17.686  69.527  1.00  0.00     0.000 HD 
ENDBRANCH  24  25
ENDBRANCH  23  24
ENDBRANCH  22  23
ENDBRANCH  21  22
ENDBRANCH  20  21
ENDBRANCH  19  20
ENDBRANCH  18  19
ENDBRANCH  17  18
ENDBRANCH  16  17
ENDBRANCH  15  16
ENDBRANCH  14  15
ENDBRANCH   9  14
ENDBRANCH   2   3
TORSDOF 14
ENDMDL
MODEL      232
REMARK 921   NORMALIZED FREE ENERGY PREDICTED BY IDOCK:   -3.45 KCAL/MOL
REMARK 922        TOTAL FREE ENERGY PREDICTED BY IDOCK:   -8.09 KCAL/MOL
REMARK 923 INTER-LIGAND FREE ENERGY PREDICTED BY IDOCK:   -6.63 KCAL/MOL
REMARK 924 INTRA-LIGAND FREE ENERGY PREDICTED BY IDOCK:   -1.46 KCAL/MOL
REMARK 927      BINDING AFFINITY PREDICTED BY RF-SCORE:    0.00 PKD
ROOT
HETATM    1  C   UNL     1     -10.129  16.841  65.847  1.00  0.00    -0.304 C  
HETATM    2  O   UNL     1     -11.410  16.322  66.180  1.00  0.00     0.176 OA 
ENDROOT
BRANCH   2   3
HETATM    3  C   UNL     1     -11.530  14.934  66.227  1.00  0.00    -0.269 C  
HETATM    4  C   UNL     1     -11.181  14.302  67.362  1.00  0.00    -0.316 C  
HETATM    5  C   UNL     1     -11.282  12.812  67.415  1.00  0.00    -0.294 C  
HETATM    6  O   UNL     1     -12.597  14.639  64.095  1.00  0.00    -0.766 OA 
HETATM    7  O   UNL     1     -11.358  12.181  68.464  1.00  0.00    -0.229 OA 
HETATM    8  C   UNL     1     -11.986  14.142  65.035  1.00  0.00    -0.408 C  
HETATM    9  C   UNL     1     -11.241  12.084  66.115  1.00  0.00    -0.394 C  
HETATM   10  C   UNL     1     -11.697  12.070  63.628  1.00  0.00    -0.587 C  
HETATM   11  C   UNL     1     -11.610  12.708  64.985  1.00  0.00    -0.384 C  
BRANCH   4  12
HETATM   12  O   UNL     1     -10.749  15.066  68.445  1.00  0.00    -0.235 OA 
HETATM   13  C   UNL     1     -11.704  15.447  69.428  1.00  0.00    -0.351 C  
ENDBRANCH   4  12
BRANCH   9  14
HETATM   14  C   UNL     1     -10.753  10.670  66.187  1.00  0.00    -0.146 C  
BRANCH  14  15
HETATM   15  C   UNL     1      -9.302  10.514  65.728  1.00  0.00    -0.229 C  
BRANCH  15  16
HETATM   16  C   UNL     1      -9.082   9.198  64.983  1.00  0.00    -0.215 C  
BRANCH  16  17
HETATM   17  C   UNL     1      -7.605   8.963  64.689  1.00  0.00    -0.108 C  
BRANCH  17  18
HETATM   18  C   UNL     1      -6.704   9.704  65.659  1.00  0.00    -0.086 C  
BRANCH  18  19
HETATM   19  C   UNL     1      -6.179   8.721  66.697  1.00  0.00    -0.058 C  
BRANCH  19  20
HETATM   20  C   UNL     1      -6.114   7.320  66.117  1.00  0.00    -0.037 C  
BRANCH  20  21
HETATM   21  C   UNL     1      -6.151   6.281  67.228  1.00  0.00    -0.021 C  
BRANCH  21  22
HETATM   22  C   UNL     1      -7.558   5.722  67.371  1.00  0.00    -0.096 C  
BRANCH  22  23
HETATM   23  C   UNL     1      -8.451   6.690  68.136  1.00  0.00    -0.116 C  
BRANCH  23  24
HETATM   24  C   UNL     1      -9.795   6.843  67.439  1.00  0.00    -0.184 C  
BRANCH  24  25
HETATM   25  C   UNL     1     -10.317   5.501  66.953  1.00  0.00    -0.265 C  
HETATM   26  O   UNL     1     -11.409   5.705  66.068  1.00  0.00    -0.712 OA 
HETATM   27  H   UNL     1     -11.735   4.867  65.764  1.00  0.00     0.000 HD 
ENDBRANCH  24  25
ENDBRANCH  23  24
ENDBRANCH  22  23
ENDBRANCH  21  22
ENDBRANCH  20  21
ENDBRANCH  19  20
ENDBRANCH  18  19
ENDBRANCH  17  18
ENDBRANCH  16  17
ENDBRANCH  15  16
ENDBRANCH  14  15
ENDBRANCH   9  14
ENDBRANCH   2   3
TORSDOF 14
ENDMDL
MODEL      233
REMARK 921   NORMALIZED FREE ENERGY PREDICTED BY IDOCK:   -3.43 KCAL/MOL
REMARK 922        TOTAL FREE ENERGY PREDICTED BY IDOCK:   -8.06 KCAL/MOL
REMARK 923 INTER-LIGAND FREE ENERGY PREDICTED BY IDOCK:   -6.94 KCAL/MOL
REMARK 924 INTRA-LIGAND FREE ENERGY PREDICTED BY IDOCK:   -1.11 KCAL/MOL
REMARK 927      BINDING AFFINITY PREDICTED BY RF-SCORE:    0.00 PKD
ROOT
HETATM    1  C   UNL     1      -6.082  14.832  70.709  1.00  0.00    -0.070 C  
HETATM    2  O   UNL     1      -5.135  15.432  69.836  1.00  0.00    -0.096 OA 
ENDROOT
BRANCH   2   3
HETATM    3  C   UNL     1      -5.602  16.458  69.016  1.00  0.00    -0.124 C  
HETATM    4  C   UNL     1      -6.010  16.147  67.773  1.00  0.00    -0.140 C  
HETATM    5  C   UNL     1      -6.489  17.242  66.877  1.00  0.00    -0.192 C  
HETATM    6  O   UNL     1      -5.548  18.217  70.652  1.00  0.00    -0.230 OA 
HETATM    7  O   UNL     1      -7.213  17.048  65.906  1.00  0.00    -0.151 OA 
HETATM    8  C   UNL     1      -5.609  17.890  69.472  1.00  0.00    -0.217 C  
HETATM    9  C   UNL     1      -6.010  18.621  67.179  1.00  0.00    -0.166 C  
HETATM   10  C   UNL     1      -5.202  20.307  68.881  1.00  0.00    -0.241 C  
HETATM   11  C   UNL     1      -5.624  18.939  68.424  1.00  0.00    -0.197 C  
BRANCH   4  12
HETATM   12  O   UNL     1      -5.978  14.810  67.376  1.00  0.00    -0.339 OA 
HETATM   13  C   UNL     1      -7.183  14.057  67.438  1.00  0.00    -0.095 C  
ENDBRANCH   4  12
BRANCH   9  14
HETATM   14  C   UNL     1      -5.985  19.560  66.013  1.00  0.00    -0.184 C  
BRANCH  14  15
HETATM   15  C   UNL     1      -7.354  20.169  65.705  1.00  0.00    -0.283 C  
BRANCH  15  16
HETATM   16  C   UNL     1      -8.250  20.201  66.943  1.00  0.00    -0.363 C  
BRANCH  16  17
HETATM   17  C   UNL     1      -9.726  20.204  66.562  1.00  0.00    -0.553 C  
BRANCH  17  18
HETATM   18  C   UNL     1     -10.295  18.801  66.464  1.00  0.00    -0.475 C  
BRANCH  18  19
HETATM   19  C   UNL     1     -11.022  18.469  67.761  1.00  0.00    -0.152 C  
BRANCH  19  20
HETATM   20  C   UNL     1     -10.109  17.703  68.701  1.00  0.00    -0.377 C  
BRANCH  20  21
HETATM   21  C   UNL     1      -9.918  16.275  68.212  1.00  0.00    -0.236 C  
BRANCH  21  22
HETATM   22  C   UNL     1     -11.271  15.612  68.001  1.00  0.00    -0.339 C  
BRANCH  22  23
HETATM   23  C   UNL     1     -11.121  14.101  67.877  1.00  0.00    -0.285 C  
BRANCH  23  24
HETATM   24  C   UNL     1     -11.812  13.597  66.617  1.00  0.00    -0.447 C  
BRANCH  24  25
HETATM   25  C   UNL     1     -11.655  12.093  66.470  1.00  0.00    -0.359 C  
HETATM   26  O   UNL     1     -12.077  11.450  67.664  1.00  0.00    -0.630 OA 
HETATM   27  H   UNL     1     -11.980  10.509  67.572  1.00  0.00     0.000 HD 
ENDBRANCH  24  25
ENDBRANCH  23  24
ENDBRANCH  22  23
ENDBRANCH  21  22
ENDBRANCH  20  21
ENDBRANCH  19  20
ENDBRANCH  18  19
ENDBRANCH  17  18
ENDBRANCH  16  17
ENDBRANCH  15  16
ENDBRANCH  14  15
ENDBRANCH   9  14
ENDBRANCH   2   3
TORSDOF 14
ENDMDL
MODEL      234
REMARK 921   NORMALIZED FREE ENERGY PREDICTED BY IDOCK:   -3.41 KCAL/MOL
REMARK 922        TOTAL FREE ENERGY PREDICTED BY IDOCK:   -8.03 KCAL/MOL
REMARK 923 INTER-LIGAND FREE ENERGY PREDICTED BY IDOCK:   -7.40 KCAL/MOL
REMARK 924 INTRA-LIGAND FREE ENERGY PREDICTED BY IDOCK:   -0.63 KCAL/MOL
REMARK 927      BINDING AFFINITY PREDICTED BY RF-SCORE:    0.00 PKD
ROOT
HETATM    1  C   UNL     1      -8.704   3.690  68.309  1.00  0.00    -0.104 C  
HETATM    2  O   UNL     1      -8.178   4.816  68.999  1.00  0.00    -0.081 OA 
ENDROOT
BRANCH   2   3
HETATM    3  C   UNL     1      -9.104   5.719  69.518  1.00  0.00    -0.130 C  
HETATM    4  C   UNL     1      -9.267   6.898  68.890  1.00  0.00    -0.132 C  
HETATM    5  C   UNL     1     -10.238   7.884  69.451  1.00  0.00    -0.206 C  
HETATM    6  O   UNL     1     -10.012   4.294  71.225  1.00  0.00    -0.186 OA 
HETATM    7  O   UNL     1     -10.736   8.788  68.790  1.00  0.00    -0.181 OA 
HETATM    8  C   UNL     1      -9.873   5.425  70.775  1.00  0.00    -0.190 C  
HETATM    9  C   UNL     1     -10.564   7.762  70.900  1.00  0.00    -0.220 C  
HETATM   10  C   UNL     1     -10.795   6.302  72.952  1.00  0.00    -0.284 C  
HETATM   11  C   UNL     1     -10.424   6.582  71.523  1.00  0.00    -0.245 C  
BRANCH   4  12
HETATM   12  O   UNL     1      -8.527   7.144  67.733  1.00  0.00    -0.120 OA 
HETATM   13  C   UNL     1      -9.182   7.031  66.476  1.00  0.00    -0.164 C  
ENDBRANCH   4  12
BRANCH   9  14
HETATM   14  C   UNL     1     -11.020   9.025  71.563  1.00  0.00    -0.418 C  
BRANCH  14  15
HETATM   15  C   UNL     1     -12.542   9.116  71.694  1.00  0.00    -0.433 C  
BRANCH  15  16
HETATM   16  C   UNL     1     -13.066  10.487  71.266  1.00  0.00    -0.478 C  
BRANCH  16  17
HETATM   17  C   UNL     1     -11.979  11.312  70.587  1.00  0.00    -0.435 C  
BRANCH  17  18
HETATM   18  C   UNL     1     -12.327  12.788  70.537  1.00  0.00    -0.355 C  
BRANCH  18  19
HETATM   19  C   UNL     1     -11.696  13.404  69.295  1.00  0.00    -0.383 C  
BRANCH  19  20
HETATM   20  C   UNL     1     -11.777  14.918  69.354  1.00  0.00    -0.349 C  
BRANCH  20  21
HETATM   21  C   UNL     1     -10.481  15.542  68.857  1.00  0.00    -0.223 C  
BRANCH  21  22
HETATM   22  C   UNL     1     -10.787  16.749  67.983  1.00  0.00    -0.341 C  
BRANCH  22  23
HETATM   23  C   UNL     1      -9.515  17.528  67.672  1.00  0.00    -0.256 C  
BRANCH  23  24
HETATM   24  C   UNL     1      -9.796  19.024  67.651  1.00  0.00    -0.395 C  
BRANCH  24  25
HETATM   25  C   UNL     1     -10.526  19.428  66.381  1.00  0.00    -0.488 C  
HETATM   26  O   UNL     1      -9.775  20.417  65.692  1.00  0.00    -0.603 OA 
HETATM   27  H   UNL     1     -10.230  20.669  64.898  1.00  0.00     0.000 HD 
ENDBRANCH  24  25
ENDBRANCH  23  24
ENDBRANCH  22  23
ENDBRANCH  21  22
ENDBRANCH  20  21
ENDBRANCH  19  20
ENDBRANCH  18  19
ENDBRANCH  17  18
ENDBRANCH  16  17
ENDBRANCH  15  16
ENDBRANCH  14  15
ENDBRANCH   9  14
ENDBRANCH   2   3
TORSDOF 14
ENDMDL
MODEL      235
REMARK 921   NORMALIZED FREE ENERGY PREDICTED BY IDOCK:   -3.41 KCAL/MOL
REMARK 922        TOTAL FREE ENERGY PREDICTED BY IDOCK:   -8.02 KCAL/MOL
REMARK 923 INTER-LIGAND FREE ENERGY PREDICTED BY IDOCK:   -6.53 KCAL/MOL
REMARK 924 INTRA-LIGAND FREE ENERGY PREDICTED BY IDOCK:   -1.49 KCAL/MOL
REMARK 927      BINDING AFFINITY PREDICTED BY RF-SCORE:    0.00 PKD
ROOT
HETATM    1  C   UNL     1     -10.961  15.684  64.644  1.00  0.00    -0.325 C  
HETATM    2  O   UNL     1     -12.055  14.777  64.674  1.00  0.00    -0.443 OA 
ENDROOT
BRANCH   2   3
HETATM    3  C   UNL     1     -11.786  13.489  65.134  1.00  0.00    -0.322 C  
HETATM    4  C   UNL     1     -11.966  13.226  66.441  1.00  0.00    -0.410 C  
HETATM    5  C   UNL     1     -11.657  11.856  66.949  1.00  0.00    -0.285 C  
HETATM    6  O   UNL     1     -11.352  12.477  62.998  1.00  0.00    -0.280 OA 
HETATM    7  O   UNL     1     -12.122  11.404  67.990  1.00  0.00    -0.629 OA 
HETATM    8  C   UNL     1     -11.258  12.420  64.219  1.00  0.00    -0.353 C  
HETATM    9  C   UNL     1     -10.698  11.039  66.152  1.00  0.00    -0.257 C  
HETATM   10  C   UNL     1      -9.668  10.487  63.909  1.00  0.00    -0.384 C  
HETATM   11  C   UNL     1     -10.534  11.285  64.843  1.00  0.00    -0.375 C  
BRANCH   4  12
HETATM   12  O   UNL     1     -12.445  14.244  67.265  1.00  0.00    -0.235 OA 
HETATM   13  C   UNL     1     -11.542  14.857  68.177  1.00  0.00    -0.334 C  
ENDBRANCH   4  12
BRANCH   9  14
HETATM   14  C   UNL     1      -9.960   9.986  66.920  1.00  0.00    -0.263 C  
BRANCH  14  15
HETATM   15  C   UNL     1      -9.185  10.550  68.113  1.00  0.00    -0.148 C  
BRANCH  15  16
HETATM   16  C   UNL     1      -9.707   9.997  69.439  1.00  0.00    -0.240 C  
BRANCH  16  17
HETATM   17  C   UNL     1      -9.670   8.473  69.460  1.00  0.00    -0.176 C  
BRANCH  17  18
HETATM   18  C   UNL     1      -9.523   7.924  70.867  1.00  0.00    -0.167 C  
BRANCH  18  19
HETATM   19  C   UNL     1      -8.639   8.864  71.676  1.00  0.00    -0.160 C  
BRANCH  19  20
HETATM   20  C   UNL     1      -7.342   8.175  72.060  1.00  0.00    -0.105 C  
BRANCH  20  21
HETATM   21  C   UNL     1      -6.153   9.078  71.772  1.00  0.00    -0.075 C  
BRANCH  21  22
HETATM   22  C   UNL     1      -6.041   9.330  70.276  1.00  0.00    -0.043 C  
BRANCH  22  23
HETATM   23  C   UNL     1      -5.881  10.817  69.987  1.00  0.00    -0.083 C  
BRANCH  23  24
HETATM   24  C   UNL     1      -5.533  11.043  68.522  1.00  0.00    -0.043 C  
BRANCH  24  25
HETATM   25  C   UNL     1      -5.983  12.419  68.058  1.00  0.00    -0.072 C  
HETATM   26  O   UNL     1      -5.255  12.792  66.897  1.00  0.00    -0.324 OA 
HETATM   27  H   UNL     1      -5.537  13.652  66.606  1.00  0.00     0.000 HD 
ENDBRANCH  24  25
ENDBRANCH  23  24
ENDBRANCH  22  23
ENDBRANCH  21  22
ENDBRANCH  20  21
ENDBRANCH  19  20
ENDBRANCH  18  19
ENDBRANCH  17  18
ENDBRANCH  16  17
ENDBRANCH  15  16
ENDBRANCH  14  15
ENDBRANCH   9  14
ENDBRANCH   2   3
TORSDOF 14
ENDMDL
MODEL      236
REMARK 921   NORMALIZED FREE ENERGY PREDICTED BY IDOCK:   -3.41 KCAL/MOL
REMARK 922        TOTAL FREE ENERGY PREDICTED BY IDOCK:   -8.02 KCAL/MOL
REMARK 923 INTER-LIGAND FREE ENERGY PREDICTED BY IDOCK:   -7.01 KCAL/MOL
REMARK 924 INTRA-LIGAND FREE ENERGY PREDICTED BY IDOCK:   -1.01 KCAL/MOL
REMARK 927      BINDING AFFINITY PREDICTED BY RF-SCORE:    0.00 PKD
ROOT
HETATM    1  C   UNL     1     -11.126  15.950  64.610  1.00  0.00    -0.354 C  
HETATM    2  O   UNL     1     -12.074  14.936  64.913  1.00  0.00    -0.353 OA 
ENDROOT
BRANCH   2   3
HETATM    3  C   UNL     1     -11.701  13.999  65.876  1.00  0.00    -0.366 C  
HETATM    4  C   UNL     1     -11.392  12.755  65.469  1.00  0.00    -0.312 C  
HETATM    5  C   UNL     1     -11.015  11.735  66.495  1.00  0.00    -0.295 C  
HETATM    6  O   UNL     1     -11.658  15.487  67.762  1.00  0.00    -0.302 OA 
HETATM    7  O   UNL     1     -10.371  10.725  66.233  1.00  0.00    -0.241 OA 
HETATM    8  C   UNL     1     -11.689  14.336  67.340  1.00  0.00    -0.394 C  
HETATM    9  C   UNL     1     -11.498  11.965  67.886  1.00  0.00    -0.385 C  
HETATM   10  C   UNL     1     -12.199  13.589  69.693  1.00  0.00    -0.304 C  
HETATM   11  C   UNL     1     -11.786  13.209  68.300  1.00  0.00    -0.384 C  
BRANCH   4  12
HETATM   12  O   UNL     1     -11.427  12.472  64.104  1.00  0.00    -0.332 OA 
HETATM   13  C   UNL     1     -12.587  11.844  63.573  1.00  0.00    -0.459 C  
ENDBRANCH   4  12
BRANCH   9  14
HETATM   14  C   UNL     1     -11.644  10.733  68.725  1.00  0.00    -0.350 C  
BRANCH  14  15
HETATM   15  C   UNL     1     -10.440  10.484  69.636  1.00  0.00    -0.257 C  
BRANCH  15  16
HETATM   16  C   UNL     1     -10.804   9.595  70.824  1.00  0.00    -0.400 C  
BRANCH  16  17
HETATM   17  C   UNL     1      -9.986   8.308  70.828  1.00  0.00    -0.217 C  
BRANCH  17  18
HETATM   18  C   UNL     1      -9.587   7.880  69.429  1.00  0.00    -0.160 C  
BRANCH  18  19
HETATM   19  C   UNL     1      -8.132   7.429  69.445  1.00  0.00    -0.129 C  
BRANCH  19  20
HETATM   20  C   UNL     1      -7.914   6.303  68.451  1.00  0.00    -0.105 C  
BRANCH  20  21
HETATM   21  C   UNL     1      -9.030   5.275  68.557  1.00  0.00    -0.118 C  
BRANCH  21  22
HETATM   22  C   UNL     1      -8.683   4.237  69.613  1.00  0.00    -0.114 C  
BRANCH  22  23
HETATM   23  C   UNL     1      -9.826   4.072  70.607  1.00  0.00    -0.229 C  
BRANCH  23  24
HETATM   24  C   UNL     1      -9.691   2.757  71.363  1.00  0.00    -0.218 C  
BRANCH  24  25
HETATM   25  C   UNL     1     -10.177   2.897  72.797  1.00  0.00    -0.158 C  
HETATM   26  O   UNL     1      -9.592   1.883  73.600  1.00  0.00    -0.074 OA 
HETATM   27  H   UNL     1      -9.896   1.970  74.496  1.00  0.00     0.000 HD 
ENDBRANCH  24  25
ENDBRANCH  23  24
ENDBRANCH  22  23
ENDBRANCH  21  22
ENDBRANCH  20  21
ENDBRANCH  19  20
ENDBRANCH  18  19
ENDBRANCH  17  18
ENDBRANCH  16  17
ENDBRANCH  15  16
ENDBRANCH  14  15
ENDBRANCH   9  14
ENDBRANCH   2   3
TORSDOF 14
ENDMDL
MODEL      237
REMARK 921   NORMALIZED FREE ENERGY PREDICTED BY IDOCK:   -3.40 KCAL/MOL
REMARK 922        TOTAL FREE ENERGY PREDICTED BY IDOCK:   -8.00 KCAL/MOL
REMARK 923 INTER-LIGAND FREE ENERGY PREDICTED BY IDOCK:   -6.93 KCAL/MOL
REMARK 924 INTRA-LIGAND FREE ENERGY PREDICTED BY IDOCK:   -1.07 KCAL/MOL
REMARK 927      BINDING AFFINITY PREDICTED BY RF-SCORE:    0.00 PKD
ROOT
HETATM    1  C   UNL     1     -11.331  16.307  70.127  1.00  0.00    -0.282 C  
HETATM    2  O   UNL     1     -12.476  15.497  69.894  1.00  0.00    -0.336 OA 
ENDROOT
BRANCH   2   3
HETATM    3  C   UNL     1     -12.242  14.153  69.605  1.00  0.00    -0.326 C  
HETATM    4  C   UNL     1     -12.288  13.265  70.615  1.00  0.00    -0.339 C  
HETATM    5  C   UNL     1     -12.015  11.826  70.320  1.00  0.00    -0.343 C  
HETATM    6  O   UNL     1     -12.124  14.362  67.215  1.00  0.00    -0.406 OA 
HETATM    7  O   UNL     1     -12.387  10.910  71.045  1.00  0.00    -0.347 OA 
HETATM    8  C   UNL     1     -11.895  13.695  68.217  1.00  0.00    -0.369 C  
HETATM    9  C   UNL     1     -11.211  11.526  69.102  1.00  0.00    -0.337 C  
HETATM   10  C   UNL     1     -10.483  12.185  66.772  1.00  0.00    -0.245 C  
HETATM   11  C   UNL     1     -11.181  12.401  68.085  1.00  0.00    -0.313 C  
BRANCH   4  12
HETATM   12  O   UNL     1     -12.600  13.726  71.893  1.00  0.00    -0.281 OA 
HETATM   13  C   UNL     1     -13.959  13.687  72.314  1.00  0.00    -0.563 C  
ENDBRANCH   4  12
BRANCH   9  14
HETATM   14  C   UNL     1     -10.461  10.230  69.133  1.00  0.00    -0.246 C  
BRANCH  14  15
HETATM   15  C   UNL     1     -11.095   9.151  68.251  1.00  0.00     0.109 C  
BRANCH  15  16
HETATM   16  C   UNL     1     -10.303   7.845  68.299  1.00  0.00    -0.239 C  
BRANCH  16  17
HETATM   17  C   UNL     1     -11.213   6.651  68.561  1.00  0.00    -0.227 C  
BRANCH  17  18
HETATM   18  C   UNL     1     -11.041   6.096  69.962  1.00  0.00    -0.462 C  
BRANCH  18  19
HETATM   19  C   UNL     1      -9.801   6.718  70.592  1.00  0.00    -0.191 C  
BRANCH  19  20
HETATM   20  C   UNL     1      -8.904   5.641  71.175  1.00  0.00    -0.141 C  
BRANCH  20  21
HETATM   21  C   UNL     1      -8.553   4.608  70.115  1.00  0.00    -0.101 C  
BRANCH  21  22
HETATM   22  C   UNL     1      -8.727   3.205  70.677  1.00  0.00    -0.130 C  
BRANCH  22  23
HETATM   23  C   UNL     1      -9.847   3.170  71.708  1.00  0.00    -0.229 C  
BRANCH  23  24
HETATM   24  C   UNL     1      -9.987   1.773  72.298  1.00  0.00    -0.208 C  
BRANCH  24  25
HETATM   25  C   UNL     1     -10.978   1.761  73.450  1.00  0.00    -0.157 C  
HETATM   26  O   UNL     1     -11.534   3.057  73.615  1.00  0.00    -0.217 OA 
HETATM   27  H   UNL     1     -12.154   3.050  74.335  1.00  0.00     0.000 HD 
ENDBRANCH  24  25
ENDBRANCH  23  24
ENDBRANCH  22  23
ENDBRANCH  21  22
ENDBRANCH  20  21
ENDBRANCH  19  20
ENDBRANCH  18  19
ENDBRANCH  17  18
ENDBRANCH  16  17
ENDBRANCH  15  16
ENDBRANCH  14  15
ENDBRANCH   9  14
ENDBRANCH   2   3
TORSDOF 14
ENDMDL
MODEL      238
REMARK 921   NORMALIZED FREE ENERGY PREDICTED BY IDOCK:   -3.39 KCAL/MOL
REMARK 922        TOTAL FREE ENERGY PREDICTED BY IDOCK:   -7.99 KCAL/MOL
REMARK 923 INTER-LIGAND FREE ENERGY PREDICTED BY IDOCK:   -7.11 KCAL/MOL
REMARK 924 INTRA-LIGAND FREE ENERGY PREDICTED BY IDOCK:   -0.88 KCAL/MOL
REMARK 927      BINDING AFFINITY PREDICTED BY RF-SCORE:    0.00 PKD
ROOT
HETATM    1  C   UNL     1     -11.949   6.757  71.939  1.00  0.00    -0.333 C  
HETATM    2  O   UNL     1     -10.608   6.653  71.480  1.00  0.00    -0.218 OA 
ENDROOT
BRANCH   2   3
HETATM    3  C   UNL     1     -10.292   7.343  70.310  1.00  0.00    -0.212 C  
HETATM    4  C   UNL     1     -10.350   6.679  69.142  1.00  0.00    -0.194 C  
HETATM    5  C   UNL     1      -9.990   7.402  67.885  1.00  0.00    -0.165 C  
HETATM    6  O   UNL     1     -10.053   9.524  71.288  1.00  0.00    -0.273 OA 
HETATM    7  O   UNL     1     -10.355   7.039  66.772  1.00  0.00    -0.245 OA 
HETATM    8  C   UNL     1      -9.846   8.777  70.338  1.00  0.00    -0.182 C  
HETATM    9  C   UNL     1      -9.105   8.594  68.020  1.00  0.00    -0.144 C  
HETATM   10  C   UNL     1      -8.283  10.531  69.422  1.00  0.00    -0.128 C  
HETATM   11  C   UNL     1      -9.063   9.270  69.179  1.00  0.00    -0.145 C  
BRANCH   4  12
HETATM   12  O   UNL     1     -10.755   5.345  69.153  1.00  0.00    -0.220 OA 
HETATM   13  C   UNL     1      -9.764   4.336  69.010  1.00  0.00    -0.139 C  
ENDBRANCH   4  12
BRANCH   9  14
HETATM   14  C   UNL     1      -8.295   8.932  66.807  1.00  0.00    -0.111 C  
BRANCH  14  15
HETATM   15  C   UNL     1      -8.706  10.258  66.163  1.00  0.00    -0.163 C  
BRANCH  15  16
HETATM   16  C   UNL     1     -10.129  10.200  65.608  1.00  0.00    -0.324 C  
BRANCH  16  17
HETATM   17  C   UNL     1     -10.762  11.585  65.552  1.00  0.00    -0.328 C  
BRANCH  17  18
HETATM   18  C   UNL     1     -10.380  12.339  64.292  1.00  0.00    -0.375 C  
BRANCH  18  19
HETATM   19  C   UNL     1     -10.352  13.831  64.596  1.00  0.00    -0.393 C  
BRANCH  19  20
HETATM   20  C   UNL     1     -11.301  14.159  65.734  1.00  0.00    -0.317 C  
BRANCH  20  21
HETATM   21  C   UNL     1     -10.674  15.176  66.676  1.00  0.00    -0.310 C  
BRANCH  21  22
HETATM   22  C   UNL     1     -10.192  16.385  65.888  1.00  0.00    -0.379 C  
BRANCH  22  23
HETATM   23  C   UNL     1      -9.905  17.558  66.816  1.00  0.00    -0.306 C  
BRANCH  23  24
HETATM   24  C   UNL     1     -10.142  18.879  66.098  1.00  0.00    -0.438 C  
BRANCH  24  25
HETATM   25  C   UNL     1     -10.264  20.027  67.086  1.00  0.00    -0.441 C  
HETATM   26  O   UNL     1      -9.197  20.944  66.887  1.00  0.00    -0.630 OA 
HETATM   27  H   UNL     1      -9.273  21.662  67.504  1.00  0.00     0.000 HD 
ENDBRANCH  24  25
ENDBRANCH  23  24
ENDBRANCH  22  23
ENDBRANCH  21  22
ENDBRANCH  20  21
ENDBRANCH  19  20
ENDBRANCH  18  19
ENDBRANCH  17  18
ENDBRANCH  16  17
ENDBRANCH  15  16
ENDBRANCH  14  15
ENDBRANCH   9  14
ENDBRANCH   2   3
TORSDOF 14
ENDMDL
MODEL      239
REMARK 921   NORMALIZED FREE ENERGY PREDICTED BY IDOCK:   -3.39 KCAL/MOL
REMARK 922        TOTAL FREE ENERGY PREDICTED BY IDOCK:   -7.99 KCAL/MOL
REMARK 923 INTER-LIGAND FREE ENERGY PREDICTED BY IDOCK:   -5.83 KCAL/MOL
REMARK 924 INTRA-LIGAND FREE ENERGY PREDICTED BY IDOCK:   -2.15 KCAL/MOL
REMARK 927      BINDING AFFINITY PREDICTED BY RF-SCORE:    0.00 PKD
ROOT
HETATM    1  C   UNL     1     -12.318  14.141  64.356  1.00  0.00    -0.381 C  
HETATM    2  O   UNL     1     -10.899  14.103  64.435  1.00  0.00    -0.353 OA 
ENDROOT
BRANCH   2   3
HETATM    3  C   UNL     1     -10.341  13.053  65.162  1.00  0.00    -0.304 C  
HETATM    4  C   UNL     1      -9.821  13.321  66.373  1.00  0.00    -0.281 C  
HETATM    5  C   UNL     1      -9.197  12.207  67.151  1.00  0.00    -0.193 C  
HETATM    6  O   UNL     1     -10.964  11.273  63.673  1.00  0.00    -0.385 OA 
HETATM    7  O   UNL     1      -9.043  12.242  68.366  1.00  0.00    -0.193 OA 
HETATM    8  C   UNL     1     -10.265  11.660  64.603  1.00  0.00    -0.281 C  
HETATM    9  C   UNL     1      -8.711  11.031  66.376  1.00  0.00    -0.174 C  
HETATM   10  C   UNL     1      -8.907   9.553  64.334  1.00  0.00    -0.251 C  
HETATM   11  C   UNL     1      -9.244  10.750  65.177  1.00  0.00    -0.239 C  
BRANCH   4  12
HETATM   12  O   UNL     1      -9.895  14.627  66.856  1.00  0.00    -0.238 OA 
HETATM   13  C   UNL     1     -10.881  14.930  67.835  1.00  0.00    -0.276 C  
ENDBRANCH   4  12
BRANCH   9  14
HETATM   14  C   UNL     1      -7.611  10.248  67.023  1.00  0.00    -0.099 C  
BRANCH  14  15
HETATM   15  C   UNL     1      -8.061   8.864  67.498  1.00  0.00    -0.109 C  
BRANCH  15  16
HETATM   16  C   UNL     1      -8.943   8.952  68.743  1.00  0.00    -0.134 C  
BRANCH  16  17
HETATM   17  C   UNL     1     -10.278   8.249  68.531  1.00  0.00    -0.234 C  
BRANCH  17  18
HETATM   18  C   UNL     1     -10.418   7.696  67.126  1.00  0.00    -0.412 C  
BRANCH  18  19
HETATM   19  C   UNL     1     -11.157   6.366  67.187  1.00  0.00    -0.422 C  
BRANCH  19  20
HETATM   20  C   UNL     1     -10.443   5.322  66.349  1.00  0.00    -0.347 C  
BRANCH  20  21
HETATM   21  C   UNL     1      -9.185   5.908  65.725  1.00  0.00    -0.059 C  
BRANCH  21  22
HETATM   22  C   UNL     1      -7.968   5.103  66.155  1.00  0.00    -0.104 C  
BRANCH  22  23
HETATM   23  C   UNL     1      -8.370   3.972  67.092  1.00  0.00    -0.099 C  
BRANCH  23  24
HETATM   24  C   UNL     1      -7.557   4.029  68.379  1.00  0.00    -0.066 C  
BRANCH  24  25
HETATM   25  C   UNL     1      -7.744   5.361  69.086  1.00  0.00    -0.089 C  
HETATM   26  O   UNL     1      -8.886   5.298  69.929  1.00  0.00    -0.109 OA 
HETATM   27  H   UNL     1      -9.002   6.131  70.372  1.00  0.00     0.000 HD 
ENDBRANCH  24  25
ENDBRANCH  23  24
ENDBRANCH  22  23
ENDBRANCH  21  22
ENDBRANCH  20  21
ENDBRANCH  19  20
ENDBRANCH  18  19
ENDBRANCH  17  18
ENDBRANCH  16  17
ENDBRANCH  15  16
ENDBRANCH  14  15
ENDBRANCH   9  14
ENDBRANCH   2   3
TORSDOF 14
ENDMDL
MODEL      240
REMARK 921   NORMALIZED FREE ENERGY PREDICTED BY IDOCK:   -3.39 KCAL/MOL
REMARK 922        TOTAL FREE ENERGY PREDICTED BY IDOCK:   -7.98 KCAL/MOL
REMARK 923 INTER-LIGAND FREE ENERGY PREDICTED BY IDOCK:   -6.67 KCAL/MOL
REMARK 924 INTRA-LIGAND FREE ENERGY PREDICTED BY IDOCK:   -1.32 KCAL/MOL
REMARK 927      BINDING AFFINITY PREDICTED BY RF-SCORE:    0.00 PKD
ROOT
HETATM    1  C   UNL     1     -11.638  13.848  69.718  1.00  0.00    -0.270 C  
HETATM    2  O   UNL     1     -11.978  12.597  69.136  1.00  0.00    -0.291 OA 
ENDROOT
BRANCH   2   3
HETATM    3  C   UNL     1     -11.701  11.459  69.892  1.00  0.00    -0.346 C  
HETATM    4  C   UNL     1     -10.701  10.653  69.490  1.00  0.00    -0.251 C  
HETATM    5  C   UNL     1     -10.412   9.418  70.279  1.00  0.00    -0.251 C  
HETATM    6  O   UNL     1     -13.226  11.901  71.695  1.00  0.00    -0.412 OA 
HETATM    7  O   UNL     1      -9.334   8.835  70.242  1.00  0.00    -0.159 OA 
HETATM    8  C   UNL     1     -12.520  11.095  71.098  1.00  0.00    -0.393 C  
HETATM    9  C   UNL     1     -11.522   8.868  71.107  1.00  0.00    -0.364 C  
HETATM   10  C   UNL     1     -13.638   9.271  72.432  1.00  0.00    -0.527 C  
HETATM   11  C   UNL     1     -12.509   9.675  71.527  1.00  0.00    -0.476 C  
BRANCH   4  12
HETATM   12  O   UNL     1      -9.969  11.013  68.359  1.00  0.00    -0.172 OA 
HETATM   13  C   UNL     1     -10.395  10.523  67.094  1.00  0.00    -0.235 C  
ENDBRANCH   4  12
BRANCH   9  14
HETATM   14  C   UNL     1     -11.444   7.400  71.392  1.00  0.00    -0.290 C  
BRANCH  14  15
HETATM   15  C   UNL     1     -11.991   6.540  70.251  1.00  0.00    -0.252 C  
BRANCH  15  16
HETATM   16  C   UNL     1     -10.868   5.906  69.431  1.00  0.00    -0.422 C  
BRANCH  16  17
HETATM   17  C   UNL     1     -11.095   6.094  67.936  1.00  0.00    -0.311 C  
BRANCH  17  18
HETATM   18  C   UNL     1      -9.825   6.496  67.210  1.00  0.00    -0.175 C  
BRANCH  18  19
HETATM   19  C   UNL     1      -8.625   6.162  68.088  1.00  0.00    -0.115 C  
BRANCH  19  20
HETATM   20  C   UNL     1      -7.336   6.302  67.300  1.00  0.00    -0.083 C  
BRANCH  20  21
HETATM   21  C   UNL     1      -7.190   7.718  66.763  1.00  0.00    -0.088 C  
BRANCH  21  22
HETATM   22  C   UNL     1      -6.755   7.679  65.306  1.00  0.00    -0.044 C  
BRANCH  22  23
HETATM   23  C   UNL     1      -6.453   9.081  64.792  1.00  0.00    -0.066 C  
BRANCH  23  24
HETATM   24  C   UNL     1      -7.702   9.712  64.193  1.00  0.00    -0.129 C  
BRANCH  24  25
HETATM   25  C   UNL     1      -8.599   8.659  63.562  1.00  0.00     0.006 C  
HETATM   26  O   UNL     1      -9.454   9.271  62.608  1.00  0.00    -0.549 OA 
HETATM   27  H   UNL     1     -10.015   8.614  62.213  1.00  0.00     0.000 HD 
ENDBRANCH  24  25
ENDBRANCH  23  24
ENDBRANCH  22  23
ENDBRANCH  21  22
ENDBRANCH  20  21
ENDBRANCH  19  20
ENDBRANCH  18  19
ENDBRANCH  17  18
ENDBRANCH  16  17
ENDBRANCH  15  16
ENDBRANCH  14  15
ENDBRANCH   9  14
ENDBRANCH   2   3
TORSDOF 14
ENDMDL
MODEL      241
REMARK 921   NORMALIZED FREE ENERGY PREDICTED BY IDOCK:   -3.39 KCAL/MOL
REMARK 922        TOTAL FREE ENERGY PREDICTED BY IDOCK:   -7.98 KCAL/MOL
REMARK 923 INTER-LIGAND FREE ENERGY PREDICTED BY IDOCK:   -6.75 KCAL/MOL
REMARK 924 INTRA-LIGAND FREE ENERGY PREDICTED BY IDOCK:   -1.23 KCAL/MOL
REMARK 927      BINDING AFFINITY PREDICTED BY RF-SCORE:    0.00 PKD
ROOT
HETATM    1  C   UNL     1      -7.767   5.977  69.775  1.00  0.00    -0.096 C  
HETATM    2  O   UNL     1      -8.725   6.135  70.813  1.00  0.00    -0.133 OA 
ENDROOT
BRANCH   2   3
HETATM    3  C   UNL     1      -9.462   7.318  70.809  1.00  0.00    -0.164 C  
HETATM    4  C   UNL     1     -10.771   7.255  71.109  1.00  0.00    -0.228 C  
HETATM    5  C   UNL     1     -11.576   8.514  71.084  1.00  0.00    -0.281 C  
HETATM    6  O   UNL     1      -7.629   8.828  70.442  1.00  0.00    -0.066 OA 
HETATM    7  O   UNL     1     -12.638   8.644  71.683  1.00  0.00    -0.313 OA 
HETATM    8  C   UNL     1      -8.840   8.632  70.431  1.00  0.00    -0.157 C  
HETATM    9  C   UNL     1     -11.058   9.631  70.244  1.00  0.00    -0.327 C  
HETATM   10  C   UNL     1      -9.085  10.821  69.202  1.00  0.00    -0.109 C  
HETATM   11  C   UNL     1      -9.748   9.707  69.962  1.00  0.00    -0.280 C  
BRANCH   4  12
HETATM   12  O   UNL     1     -11.320   6.017  71.442  1.00  0.00    -0.285 OA 
HETATM   13  C   UNL     1     -11.501   5.706  72.818  1.00  0.00    -0.274 C  
ENDBRANCH   4  12
BRANCH   9  14
HETATM   14  C   UNL     1     -12.092  10.597  69.755  1.00  0.00    -0.343 C  
BRANCH  14  15
HETATM   15  C   UNL     1     -12.418  11.692  70.774  1.00  0.00    -0.425 C  
BRANCH  15  16
HETATM   16  C   UNL     1     -12.154  13.087  70.209  1.00  0.00    -0.388 C  
BRANCH  16  17
HETATM   17  C   UNL     1     -11.980  13.052  68.695  1.00  0.00    -0.298 C  
BRANCH  17  18
HETATM   18  C   UNL     1     -10.849  13.949  68.228  1.00  0.00    -0.263 C  
BRANCH  18  19
HETATM   19  C   UNL     1     -10.591  15.014  69.287  1.00  0.00    -0.249 C  
BRANCH  19  20
HETATM   20  C   UNL     1     -10.198  16.327  68.634  1.00  0.00    -0.254 C  
BRANCH  20  21
HETATM   21  C   UNL     1      -8.959  16.144  67.771  1.00  0.00    -0.192 C  
BRANCH  21  22
HETATM   22  C   UNL     1      -9.129  16.886  66.454  1.00  0.00    -0.315 C  
BRANCH  22  23
HETATM   23  C   UNL     1     -10.602  16.997  66.080  1.00  0.00    -0.194 C  
BRANCH  23  24
HETATM   24  C   UNL     1     -10.839  16.463  64.675  1.00  0.00    -0.068 C  
BRANCH  24  25
HETATM   25  C   UNL     1     -11.325  15.023  64.710  1.00  0.00    -0.406 C  
HETATM   26  O   UNL     1     -10.257  14.150  64.373  1.00  0.00    -0.646 OA 
HETATM   27  H   UNL     1     -10.561  13.250  64.395  1.00  0.00     0.000 HD 
ENDBRANCH  24  25
ENDBRANCH  23  24
ENDBRANCH  22  23
ENDBRANCH  21  22
ENDBRANCH  20  21
ENDBRANCH  19  20
ENDBRANCH  18  19
ENDBRANCH  17  18
ENDBRANCH  16  17
ENDBRANCH  15  16
ENDBRANCH  14  15
ENDBRANCH   9  14
ENDBRANCH   2   3
TORSDOF 14
ENDMDL
MODEL      242
REMARK 921   NORMALIZED FREE ENERGY PREDICTED BY IDOCK:   -3.39 KCAL/MOL
REMARK 922        TOTAL FREE ENERGY PREDICTED BY IDOCK:   -7.98 KCAL/MOL
REMARK 923 INTER-LIGAND FREE ENERGY PREDICTED BY IDOCK:   -6.54 KCAL/MOL
REMARK 924 INTRA-LIGAND FREE ENERGY PREDICTED BY IDOCK:   -1.44 KCAL/MOL
REMARK 927      BINDING AFFINITY PREDICTED BY RF-SCORE:    0.00 PKD
ROOT
HETATM    1  C   UNL     1     -12.354  14.180  64.350  1.00  0.00    -0.381 C  
HETATM    2  O   UNL     1     -10.935  14.131  64.417  1.00  0.00    -0.347 OA 
ENDROOT
BRANCH   2   3
HETATM    3  C   UNL     1     -10.380  13.116  65.194  1.00  0.00    -0.311 C  
HETATM    4  C   UNL     1      -9.826  13.445  66.375  1.00  0.00    -0.296 C  
HETATM    5  C   UNL     1      -9.206  12.369  67.205  1.00  0.00    -0.199 C  
HETATM    6  O   UNL     1     -11.072  11.263  63.831  1.00  0.00    -0.380 OA 
HETATM    7  O   UNL     1      -9.022  12.473  68.412  1.00  0.00    -0.189 OA 
HETATM    8  C   UNL     1     -10.345  11.691  64.720  1.00  0.00    -0.282 C  
HETATM    9  C   UNL     1      -8.761  11.138  66.492  1.00  0.00    -0.174 C  
HETATM   10  C   UNL     1      -9.034   9.543  64.549  1.00  0.00    -0.256 C  
HETATM   11  C   UNL     1      -9.328  10.795  65.325  1.00  0.00    -0.247 C  
BRANCH   4  12
HETATM   12  O   UNL     1      -9.864  14.780  66.779  1.00  0.00    -0.241 OA 
HETATM   13  C   UNL     1     -10.845  15.170  67.732  1.00  0.00    -0.292 C  
ENDBRANCH   4  12
BRANCH   9  14
HETATM   14  C   UNL     1      -7.661  10.372  67.161  1.00  0.00    -0.100 C  
BRANCH  14  15
HETATM   15  C   UNL     1      -8.130   9.037  67.743  1.00  0.00    -0.109 C  
BRANCH  15  16
HETATM   16  C   UNL     1      -8.921   9.229  69.037  1.00  0.00    -0.140 C  
BRANCH  16  17
HETATM   17  C   UNL     1     -10.324   8.645  68.925  1.00  0.00    -0.228 C  
BRANCH  17  18
HETATM   18  C   UNL     1     -10.303   7.158  68.622  1.00  0.00    -0.200 C  
BRANCH  18  19
HETATM   19  C   UNL     1     -11.388   6.470  69.439  1.00  0.00    -0.395 C  
BRANCH  19  20
HETATM   20  C   UNL     1     -10.769   5.567  70.491  1.00  0.00    -0.310 C  
BRANCH  20  21
HETATM   21  C   UNL     1      -9.252   5.589  70.386  1.00  0.00    -0.182 C  
BRANCH  21  22
HETATM   22  C   UNL     1      -8.647   6.076  71.694  1.00  0.00    -0.131 C  
BRANCH  22  23
HETATM   23  C   UNL     1      -9.738   6.431  72.696  1.00  0.00    -0.167 C  
BRANCH  23  24
HETATM   24  C   UNL     1      -9.547   7.850  73.214  1.00  0.00    -0.351 C  
BRANCH  24  25
HETATM   25  C   UNL     1      -8.365   7.933  74.166  1.00  0.00    -0.257 C  
HETATM   26  O   UNL     1      -7.365   8.775  73.613  1.00  0.00    -0.373 OA 
HETATM   27  H   UNL     1      -6.626   8.827  74.208  1.00  0.00     0.000 HD 
ENDBRANCH  24  25
ENDBRANCH  23  24
ENDBRANCH  22  23
ENDBRANCH  21  22
ENDBRANCH  20  21
ENDBRANCH  19  20
ENDBRANCH  18  19
ENDBRANCH  17  18
ENDBRANCH  16  17
ENDBRANCH  15  16
ENDBRANCH  14  15
ENDBRANCH   9  14
ENDBRANCH   2   3
TORSDOF 14
ENDMDL
MODEL      243
REMARK 921   NORMALIZED FREE ENERGY PREDICTED BY IDOCK:   -3.38 KCAL/MOL
REMARK 922        TOTAL FREE ENERGY PREDICTED BY IDOCK:   -7.96 KCAL/MOL
REMARK 923 INTER-LIGAND FREE ENERGY PREDICTED BY IDOCK:   -6.69 KCAL/MOL
REMARK 924 INTRA-LIGAND FREE ENERGY PREDICTED BY IDOCK:   -1.27 KCAL/MOL
REMARK 927      BINDING AFFINITY PREDICTED BY RF-SCORE:    0.00 PKD
ROOT
HETATM    1  C   UNL     1      -7.223   4.672  67.257  1.00  0.00    -0.073 C  
HETATM    2  O   UNL     1      -8.482   5.226  66.898  1.00  0.00    -0.108 OA 
ENDROOT
BRANCH   2   3
HETATM    3  C   UNL     1      -8.644   6.595  67.103  1.00  0.00    -0.112 C  
HETATM    4  C   UNL     1      -9.183   7.008  68.264  1.00  0.00    -0.128 C  
HETATM    5  C   UNL     1      -9.384   8.472  68.484  1.00  0.00    -0.138 C  
HETATM    6  O   UNL     1      -7.527   7.345  65.112  1.00  0.00    -0.076 OA 
HETATM    7  O   UNL     1      -9.501   8.975  69.596  1.00  0.00    -0.162 OA 
HETATM    8  C   UNL     1      -8.282   7.598  66.044  1.00  0.00    -0.128 C  
HETATM    9  C   UNL     1      -9.488   9.330  67.270  1.00  0.00    -0.181 C  
HETATM   10  C   UNL     1      -8.889   9.732  64.846  1.00  0.00    -0.230 C  
HETATM   11  C   UNL     1      -8.932   8.930  66.116  1.00  0.00    -0.218 C  
BRANCH   4  12
HETATM   12  O   UNL     1      -9.520   6.050  69.219  1.00  0.00    -0.131 OA 
HETATM   13  C   UNL     1     -10.895   5.860  69.531  1.00  0.00    -0.372 C  
ENDBRANCH   4  12
BRANCH   9  14
HETATM   14  C   UNL     1     -10.251  10.606  67.450  1.00  0.00    -0.243 C  
BRANCH  14  15
HETATM   15  C   UNL     1      -9.382  11.755  67.967  1.00  0.00    -0.184 C  
BRANCH  15  16
HETATM   16  C   UNL     1     -10.227  12.958  68.387  1.00  0.00    -0.238 C  
BRANCH  16  17
HETATM   17  C   UNL     1     -11.699  12.748  68.054  1.00  0.00    -0.405 C  
BRANCH  17  18
HETATM   18  C   UNL     1     -12.219  13.787  67.079  1.00  0.00    -0.381 C  
BRANCH  18  19
HETATM   19  C   UNL     1     -12.413  13.134  65.716  1.00  0.00    -0.441 C  
BRANCH  19  20
HETATM   20  C   UNL     1     -11.801  13.993  64.624  1.00  0.00    -0.433 C  
BRANCH  20  21
HETATM   21  C   UNL     1     -10.591  14.748  65.154  1.00  0.00    -0.439 C  
BRANCH  21  22
HETATM   22  C   UNL     1     -10.783  16.244  64.956  1.00  0.00    -0.319 C  
BRANCH  22  23
HETATM   23  C   UNL     1     -10.382  17.012  66.208  1.00  0.00    -0.309 C  
BRANCH  23  24
HETATM   24  C   UNL     1     -10.471  18.513  65.967  1.00  0.00    -0.433 C  
BRANCH  24  25
HETATM   25  C   UNL     1     -10.630  19.270  67.275  1.00  0.00    -0.484 C  
HETATM   26  O   UNL     1      -9.752  18.728  68.250  1.00  0.00    -0.324 OA 
HETATM   27  H   UNL     1      -9.850  19.202  69.068  1.00  0.00     0.000 HD 
ENDBRANCH  24  25
ENDBRANCH  23  24
ENDBRANCH  22  23
ENDBRANCH  21  22
ENDBRANCH  20  21
ENDBRANCH  19  20
ENDBRANCH  18  19
ENDBRANCH  17  18
ENDBRANCH  16  17
ENDBRANCH  15  16
ENDBRANCH  14  15
ENDBRANCH   9  14
ENDBRANCH   2   3
TORSDOF 14
ENDMDL
MODEL      244
REMARK 921   NORMALIZED FREE ENERGY PREDICTED BY IDOCK:   -3.37 KCAL/MOL
REMARK 922        TOTAL FREE ENERGY PREDICTED BY IDOCK:   -7.95 KCAL/MOL
REMARK 923 INTER-LIGAND FREE ENERGY PREDICTED BY IDOCK:   -5.88 KCAL/MOL
REMARK 924 INTRA-LIGAND FREE ENERGY PREDICTED BY IDOCK:   -2.08 KCAL/MOL
REMARK 927      BINDING AFFINITY PREDICTED BY RF-SCORE:    0.00 PKD
ROOT
HETATM    1  C   UNL     1     -12.992  14.075  65.490  1.00  0.00    -0.316 C  
HETATM    2  O   UNL     1     -11.925  14.501  66.327  1.00  0.00    -0.382 OA 
ENDROOT
BRANCH   2   3
HETATM    3  C   UNL     1     -11.273  13.511  67.061  1.00  0.00    -0.312 C  
HETATM    4  C   UNL     1     -10.265  12.841  66.475  1.00  0.00    -0.253 C  
HETATM    5  C   UNL     1      -9.576  11.761  67.244  1.00  0.00    -0.176 C  
HETATM    6  O   UNL     1     -12.384  13.891  69.157  1.00  0.00    -0.314 OA 
HETATM    7  O   UNL     1      -8.449  11.360  66.975  1.00  0.00    -0.147 OA 
HETATM    8  C   UNL     1     -11.703  13.152  68.455  1.00  0.00    -0.351 C  
HETATM    9  C   UNL     1     -10.339  11.131  68.357  1.00  0.00    -0.201 C  
HETATM   10  C   UNL     1     -12.120  11.325  70.142  1.00  0.00    -0.448 C  
HETATM   11  C   UNL     1     -11.331  11.807  68.958  1.00  0.00    -0.338 C  
BRANCH   4  12
HETATM   12  O   UNL     1      -9.900  13.190  65.175  1.00  0.00    -0.181 OA 
HETATM   13  C   UNL     1     -10.255  12.313  64.113  1.00  0.00    -0.349 C  
ENDBRANCH   4  12
BRANCH   9  14
HETATM   14  C   UNL     1      -9.927   9.734  68.707  1.00  0.00    -0.179 C  
BRANCH  14  15
HETATM   15  C   UNL     1      -8.999   9.671  69.922  1.00  0.00    -0.243 C  
BRANCH  15  16
HETATM   16  C   UNL     1      -9.326   8.481  70.823  1.00  0.00    -0.206 C  
BRANCH  16  17
HETATM   17  C   UNL     1      -8.077   7.940  71.509  1.00  0.00    -0.117 C  
BRANCH  17  18
HETATM   18  C   UNL     1      -7.295   6.998  70.613  1.00  0.00    -0.076 C  
BRANCH  18  19
HETATM   19  C   UNL     1      -8.259   6.308  69.657  1.00  0.00    -0.124 C  
BRANCH  19  20
HETATM   20  C   UNL     1      -7.769   6.433  68.226  1.00  0.00    -0.104 C  
BRANCH  20  21
HETATM   21  C   UNL     1      -8.802   5.878  67.258  1.00  0.00    -0.106 C  
BRANCH  21  22
HETATM   22  C   UNL     1      -9.327   6.991  66.363  1.00  0.00    -0.182 C  
BRANCH  22  23
HETATM   23  C   UNL     1      -8.208   7.950  65.978  1.00  0.00    -0.122 C  
BRANCH  23  24
HETATM   24  C   UNL     1      -8.662   8.880  64.861  1.00  0.00    -0.184 C  
BRANCH  24  25
HETATM   25  C   UNL     1      -7.476   9.398  64.063  1.00  0.00    -0.113 C  
HETATM   26  O   UNL     1      -7.061  10.652  64.584  1.00  0.00    -0.352 OA 
HETATM   27  H   UNL     1      -6.320  10.976  64.085  1.00  0.00     0.000 HD 
ENDBRANCH  24  25
ENDBRANCH  23  24
ENDBRANCH  22  23
ENDBRANCH  21  22
ENDBRANCH  20  21
ENDBRANCH  19  20
ENDBRANCH  18  19
ENDBRANCH  17  18
ENDBRANCH  16  17
ENDBRANCH  15  16
ENDBRANCH  14  15
ENDBRANCH   9  14
ENDBRANCH   2   3
TORSDOF 14
ENDMDL
MODEL      245
REMARK 921   NORMALIZED FREE ENERGY PREDICTED BY IDOCK:   -3.37 KCAL/MOL
REMARK 922        TOTAL FREE ENERGY PREDICTED BY IDOCK:   -7.95 KCAL/MOL
REMARK 923 INTER-LIGAND FREE ENERGY PREDICTED BY IDOCK:   -5.22 KCAL/MOL
REMARK 924 INTRA-LIGAND FREE ENERGY PREDICTED BY IDOCK:   -2.73 KCAL/MOL
REMARK 927      BINDING AFFINITY PREDICTED BY RF-SCORE:    0.00 PKD
ROOT
HETATM    1  C   UNL     1     -12.121   9.770  71.612  1.00  0.00    -0.394 C  
HETATM    2  O   UNL     1     -10.850   9.777  70.975  1.00  0.00    -0.326 OA 
ENDROOT
BRANCH   2   3
HETATM    3  C   UNL     1     -10.850   9.778  69.581  1.00  0.00    -0.250 C  
HETATM    4  C   UNL     1     -10.570   8.628  68.941  1.00  0.00    -0.144 C  
HETATM    5  C   UNL     1     -10.543   8.624  67.447  1.00  0.00    -0.228 C  
HETATM    6  O   UNL     1     -11.650  12.022  69.269  1.00  0.00    -0.276 OA 
HETATM    7  O   UNL     1     -10.675   7.607  66.776  1.00  0.00    -0.318 OA 
HETATM    8  C   UNL     1     -11.102  11.033  68.794  1.00  0.00    -0.239 C  
HETATM    9  C   UNL     1     -10.298   9.930  66.772  1.00  0.00    -0.285 C  
HETATM   10  C   UNL     1     -10.479  12.452  66.805  1.00  0.00    -0.242 C  
HETATM   11  C   UNL     1     -10.597  11.077  67.400  1.00  0.00    -0.276 C  
BRANCH   4  12
HETATM   12  O   UNL     1     -10.328   7.485  69.702  1.00  0.00    -0.213 OA 
HETATM   13  C   UNL     1     -11.382   6.544  69.864  1.00  0.00    -0.406 C  
ENDBRANCH   4  12
BRANCH   9  14
HETATM   14  C   UNL     1      -9.696   9.840  65.403  1.00  0.00    -0.383 C  
BRANCH  14  15
HETATM   15  C   UNL     1      -8.250  10.338  65.352  1.00  0.00    -0.156 C  
BRANCH  15  16
HETATM   16  C   UNL     1      -7.285   9.339  65.989  1.00  0.00    -0.091 C  
BRANCH  16  17
HETATM   17  C   UNL     1      -6.204  10.047  66.798  1.00  0.00    -0.068 C  
BRANCH  17  18
HETATM   18  C   UNL     1      -6.448  11.541  66.895  1.00  0.00    -0.144 C  
BRANCH  18  19
HETATM   19  C   UNL     1      -7.012  11.862  68.273  1.00  0.00    -0.077 C  
BRANCH  19  20
HETATM   20  C   UNL     1      -6.358  10.993  69.331  1.00  0.00    -0.083 C  
BRANCH  20  21
HETATM   21  C   UNL     1      -7.409  10.208  70.101  1.00  0.00    -0.157 C  
BRANCH  21  22
HETATM   22  C   UNL     1      -7.000   8.746  70.195  1.00  0.00    -0.044 C  
BRANCH  22  23
HETATM   23  C   UNL     1      -6.209   8.484  71.470  1.00  0.00    -0.051 C  
BRANCH  23  24
HETATM   24  C   UNL     1      -7.149   8.249  72.644  1.00  0.00    -0.123 C  
BRANCH  24  25
HETATM   25  C   UNL     1      -8.107   7.105  72.359  1.00  0.00    -0.100 C  
HETATM   26  O   UNL     1      -9.445   7.576  72.418  1.00  0.00    -0.147 OA 
HETATM   27  H   UNL     1     -10.045   6.861  72.239  1.00  0.00     0.000 HD 
ENDBRANCH  24  25
ENDBRANCH  23  24
ENDBRANCH  22  23
ENDBRANCH  21  22
ENDBRANCH  20  21
ENDBRANCH  19  20
ENDBRANCH  18  19
ENDBRANCH  17  18
ENDBRANCH  16  17
ENDBRANCH  15  16
ENDBRANCH  14  15
ENDBRANCH   9  14
ENDBRANCH   2   3
TORSDOF 14
ENDMDL
MODEL      246
REMARK 921   NORMALIZED FREE ENERGY PREDICTED BY IDOCK:   -3.35 KCAL/MOL
REMARK 922        TOTAL FREE ENERGY PREDICTED BY IDOCK:   -7.92 KCAL/MOL
REMARK 923 INTER-LIGAND FREE ENERGY PREDICTED BY IDOCK:   -6.84 KCAL/MOL
REMARK 924 INTRA-LIGAND FREE ENERGY PREDICTED BY IDOCK:   -1.08 KCAL/MOL
REMARK 927      BINDING AFFINITY PREDICTED BY RF-SCORE:    0.00 PKD
ROOT
HETATM    1  C   UNL     1      -5.672   9.670  71.696  1.00  0.00    -0.030 C  
HETATM    2  O   UNL     1      -6.092   8.415  71.177  1.00  0.00    -0.033 OA 
ENDROOT
BRANCH   2   3
HETATM    3  C   UNL     1      -7.453   8.126  71.268  1.00  0.00    -0.074 C  
HETATM    4  C   UNL     1      -7.863   7.285  72.234  1.00  0.00    -0.093 C  
HETATM    5  C   UNL     1      -9.316   6.947  72.324  1.00  0.00    -0.137 C  
HETATM    6  O   UNL     1      -8.215   9.669  69.591  1.00  0.00    -0.113 OA 
HETATM    7  O   UNL     1      -9.844   6.520  73.345  1.00  0.00    -0.162 OA 
HETATM    8  C   UNL     1      -8.444   8.687  70.289  1.00  0.00    -0.132 C  
HETATM    9  C   UNL     1     -10.126   7.107  71.084  1.00  0.00    -0.193 C  
HETATM   10  C   UNL     1     -10.492   8.280  68.874  1.00  0.00    -0.209 C  
HETATM   11  C   UNL     1      -9.729   7.962  70.128  1.00  0.00    -0.179 C  
BRANCH   4  12
HETATM   12  O   UNL     1      -6.915   6.771  73.118  1.00  0.00    -0.075 OA 
HETATM   13  C   UNL     1      -6.630   5.378  73.070  1.00  0.00    -0.071 C  
ENDBRANCH   4  12
BRANCH   9  14
HETATM   14  C   UNL     1     -11.351   6.249  71.003  1.00  0.00    -0.378 C  
BRANCH  14  15
HETATM   15  C   UNL     1     -12.620   6.974  71.455  1.00  0.00    -0.428 C  
BRANCH  15  16
HETATM   16  C   UNL     1     -12.300   8.303  72.138  1.00  0.00    -0.410 C  
BRANCH  16  17
HETATM   17  C   UNL     1     -13.528   9.203  72.212  1.00  0.00    -0.546 C  
BRANCH  17  18
HETATM   18  C   UNL     1     -13.216  10.631  71.807  1.00  0.00    -0.526 C  
BRANCH  18  19
HETATM   19  C   UNL     1     -12.654  10.635  70.392  1.00  0.00    -0.395 C  
BRANCH  19  20
HETATM   20  C   UNL     1     -11.900  11.925  70.123  1.00  0.00    -0.390 C  
BRANCH  20  21
HETATM   21  C   UNL     1     -11.234  11.878  68.756  1.00  0.00    -0.314 C  
BRANCH  21  22
HETATM   22  C   UNL     1     -11.718  13.040  67.901  1.00  0.00    -0.402 C  
BRANCH  22  23
HETATM   23  C   UNL     1     -10.926  14.304  68.207  1.00  0.00    -0.261 C  
BRANCH  23  24
HETATM   24  C   UNL     1     -11.758  15.269  69.040  1.00  0.00    -0.368 C  
BRANCH  24  25
HETATM   25  C   UNL     1     -10.935  15.874  70.165  1.00  0.00    -0.364 C  
HETATM   26  O   UNL     1     -11.033  15.056  71.322  1.00  0.00    -0.558 OA 
HETATM   27  H   UNL     1     -10.518  15.434  72.025  1.00  0.00     0.000 HD 
ENDBRANCH  24  25
ENDBRANCH  23  24
ENDBRANCH  22  23
ENDBRANCH  21  22
ENDBRANCH  20  21
ENDBRANCH  19  20
ENDBRANCH  18  19
ENDBRANCH  17  18
ENDBRANCH  16  17
ENDBRANCH  15  16
ENDBRANCH  14  15
ENDBRANCH   9  14
ENDBRANCH   2   3
TORSDOF 14
ENDMDL
MODEL      247
REMARK 921   NORMALIZED FREE ENERGY PREDICTED BY IDOCK:   -3.32 KCAL/MOL
REMARK 922        TOTAL FREE ENERGY PREDICTED BY IDOCK:   -7.85 KCAL/MOL
REMARK 923 INTER-LIGAND FREE ENERGY PREDICTED BY IDOCK:   -6.74 KCAL/MOL
REMARK 924 INTRA-LIGAND FREE ENERGY PREDICTED BY IDOCK:   -1.12 KCAL/MOL
REMARK 927      BINDING AFFINITY PREDICTED BY RF-SCORE:    0.00 PKD
ROOT
HETATM    1  C   UNL     1     -12.343  14.081  65.742  1.00  0.00    -0.480 C  
HETATM    2  O   UNL     1     -11.000  14.080  65.277  1.00  0.00    -0.307 OA 
ENDROOT
BRANCH   2   3
HETATM    3  C   UNL     1     -10.340  12.853  65.275  1.00  0.00    -0.300 C  
HETATM    4  C   UNL     1      -9.526  12.564  66.306  1.00  0.00    -0.210 C  
HETATM    5  C   UNL     1      -8.794  11.261  66.301  1.00  0.00    -0.191 C  
HETATM    6  O   UNL     1     -11.405  11.927  63.330  1.00  0.00    -0.404 OA 
HETATM    7  O   UNL     1      -8.345  10.739  67.316  1.00  0.00    -0.122 OA 
HETATM    8  C   UNL     1     -10.480  11.885  64.134  1.00  0.00    -0.349 C  
HETATM    9  C   UNL     1      -8.577  10.612  64.978  1.00  0.00    -0.166 C  
HETATM   10  C   UNL     1      -9.347  10.237  62.598  1.00  0.00    -0.335 C  
HETATM   11  C   UNL     1      -9.402  10.883  63.954  1.00  0.00    -0.267 C  
BRANCH   4  12
HETATM   12  O   UNL     1      -9.408  13.490  67.342  1.00  0.00    -0.211 OA 
HETATM   13  C   UNL     1     -10.152  13.270  68.533  1.00  0.00    -0.206 C  
ENDBRANCH   4  12
BRANCH   9  14
HETATM   14  C   UNL     1      -7.397   9.693  64.900  1.00  0.00    -0.118 C  
BRANCH  14  15
HETATM   15  C   UNL     1      -7.793   8.224  64.737  1.00  0.00    -0.129 C  
BRANCH  15  16
HETATM   16  C   UNL     1      -7.691   7.461  66.058  1.00  0.00    -0.095 C  
BRANCH  16  17
HETATM   17  C   UNL     1      -9.039   7.387  66.764  1.00  0.00    -0.178 C  
BRANCH  17  18
HETATM   18  C   UNL     1      -9.555   5.964  66.865  1.00  0.00    -0.156 C  
BRANCH  18  19
HETATM   19  C   UNL     1      -9.219   5.411  68.244  1.00  0.00    -0.125 C  
BRANCH  19  20
HETATM   20  C   UNL     1      -9.757   6.326  69.329  1.00  0.00    -0.157 C  
BRANCH  20  21
HETATM   21  C   UNL     1     -11.210   5.994  69.635  1.00  0.00    -0.428 C  
BRANCH  21  22
HETATM   22  C   UNL     1     -11.771   6.992  70.636  1.00  0.00    -0.384 C  
BRANCH  22  23
HETATM   23  C   UNL     1     -10.649   7.743  71.341  1.00  0.00    -0.242 C  
BRANCH  23  24
HETATM   24  C   UNL     1     -10.923   7.834  72.836  1.00  0.00    -0.467 C  
BRANCH  24  25
HETATM   25  C   UNL     1     -10.275   6.681  73.584  1.00  0.00    -0.302 C  
HETATM   26  O   UNL     1     -11.216   5.630  73.750  1.00  0.00    -0.412 OA 
HETATM   27  H   UNL     1     -10.810   4.909  74.217  1.00  0.00     0.000 HD 
ENDBRANCH  24  25
ENDBRANCH  23  24
ENDBRANCH  22  23
ENDBRANCH  21  22
ENDBRANCH  20  21
ENDBRANCH  19  20
ENDBRANCH  18  19
ENDBRANCH  17  18
ENDBRANCH  16  17
ENDBRANCH  15  16
ENDBRANCH  14  15
ENDBRANCH   9  14
ENDBRANCH   2   3
TORSDOF 14
ENDMDL
MODEL      248
REMARK 921   NORMALIZED FREE ENERGY PREDICTED BY IDOCK:   -3.32 KCAL/MOL
REMARK 922        TOTAL FREE ENERGY PREDICTED BY IDOCK:   -7.85 KCAL/MOL
REMARK 923 INTER-LIGAND FREE ENERGY PREDICTED BY IDOCK:   -6.97 KCAL/MOL
REMARK 924 INTRA-LIGAND FREE ENERGY PREDICTED BY IDOCK:   -0.89 KCAL/MOL
REMARK 927      BINDING AFFINITY PREDICTED BY RF-SCORE:    0.00 PKD
ROOT
HETATM    1  C   UNL     1      -9.662   5.328  70.354  1.00  0.00    -0.195 C  
HETATM    2  O   UNL     1      -9.115   6.638  70.279  1.00  0.00    -0.154 OA 
ENDROOT
BRANCH   2   3
HETATM    3  C   UNL     1      -9.819   7.567  69.514  1.00  0.00    -0.169 C  
HETATM    4  C   UNL     1      -9.491   7.706  68.217  1.00  0.00    -0.145 C  
HETATM    5  C   UNL     1     -10.222   8.716  67.395  1.00  0.00    -0.262 C  
HETATM    6  O   UNL     1     -11.443   8.175  71.177  1.00  0.00    -0.268 OA 
HETATM    7  O   UNL     1     -10.280   8.672  66.171  1.00  0.00    -0.210 OA 
HETATM    8  C   UNL     1     -10.884   8.437  70.118  1.00  0.00    -0.236 C  
HETATM    9  C   UNL     1     -10.865   9.846  68.125  1.00  0.00    -0.282 C  
HETATM   10  C   UNL     1     -11.939  10.724  70.239  1.00  0.00    -0.438 C  
HETATM   11  C   UNL     1     -11.212   9.701  69.413  1.00  0.00    -0.112 C  
BRANCH   4  12
HETATM   12  O   UNL     1      -8.488   6.892  67.693  1.00  0.00    -0.122 OA 
HETATM   13  C   UNL     1      -8.868   5.793  66.874  1.00  0.00    -0.114 C  
ENDBRANCH   4  12
BRANCH   9  14
HETATM   14  C   UNL     1     -11.054  11.099  67.328  1.00  0.00    -0.366 C  
BRANCH  14  15
HETATM   15  C   UNL     1      -9.760  11.895  67.148  1.00  0.00    -0.194 C  
BRANCH  15  16
HETATM   16  C   UNL     1      -9.779  13.194  67.954  1.00  0.00    -0.221 C  
BRANCH  16  17
HETATM   17  C   UNL     1      -8.369  13.643  68.321  1.00  0.00    -0.165 C  
BRANCH  17  18
HETATM   18  C   UNL     1      -7.933  14.863  67.532  1.00  0.00    -0.198 C  
BRANCH  18  19
HETATM   19  C   UNL     1      -8.992  15.182  66.486  1.00  0.00    -0.326 C  
BRANCH  19  20
HETATM   20  C   UNL     1      -8.997  16.666  66.170  1.00  0.00    -0.321 C  
BRANCH  20  21
HETATM   21  C   UNL     1     -10.423  17.171  66.003  1.00  0.00    -0.271 C  
BRANCH  21  22
HETATM   22  C   UNL     1     -10.661  18.368  66.911  1.00  0.00    -0.381 C  
BRANCH  22  23
HETATM   23  C   UNL     1     -10.206  19.657  66.240  1.00  0.00    -0.598 C  
BRANCH  23  24
HETATM   24  C   UNL     1      -9.429  20.525  67.220  1.00  0.00    -0.559 C  
BRANCH  24  25
HETATM   25  C   UNL     1      -8.069  19.921  67.529  1.00  0.00    -0.306 C  
HETATM   26  O   UNL     1      -8.050  19.448  68.868  1.00  0.00    -0.356 OA 
HETATM   27  H   UNL     1      -7.200  19.070  69.061  1.00  0.00     0.000 HD 
ENDBRANCH  24  25
ENDBRANCH  23  24
ENDBRANCH  22  23
ENDBRANCH  21  22
ENDBRANCH  20  21
ENDBRANCH  19  20
ENDBRANCH  18  19
ENDBRANCH  17  18
ENDBRANCH  16  17
ENDBRANCH  15  16
ENDBRANCH  14  15
ENDBRANCH   9  14
ENDBRANCH   2   3
TORSDOF 14
ENDMDL
MODEL      249
REMARK 921   NORMALIZED FREE ENERGY PREDICTED BY IDOCK:   -3.31 KCAL/MOL
REMARK 922        TOTAL FREE ENERGY PREDICTED BY IDOCK:   -7.84 KCAL/MOL
REMARK 923 INTER-LIGAND FREE ENERGY PREDICTED BY IDOCK:   -7.05 KCAL/MOL
REMARK 924 INTRA-LIGAND FREE ENERGY PREDICTED BY IDOCK:   -0.79 KCAL/MOL
REMARK 927      BINDING AFFINITY PREDICTED BY RF-SCORE:    0.00 PKD
ROOT
HETATM    1  C   UNL     1     -11.056   4.582  73.081  1.00  0.00    -0.264 C  
HETATM    2  O   UNL     1     -10.788   5.904  73.532  1.00  0.00    -0.265 OA 
ENDROOT
BRANCH   2   3
HETATM    3  C   UNL     1     -10.985   6.931  72.610  1.00  0.00    -0.268 C  
HETATM    4  C   UNL     1      -9.930   7.690  72.265  1.00  0.00    -0.190 C  
HETATM    5  C   UNL     1     -10.136   8.810  71.297  1.00  0.00    -0.266 C  
HETATM    6  O   UNL     1     -13.270   6.428  72.065  1.00  0.00    -0.114 OA 
HETATM    7  O   UNL     1      -9.227   9.305  70.640  1.00  0.00    -0.233 OA 
HETATM    8  C   UNL     1     -12.344   7.231  72.045  1.00  0.00    -0.263 C  
HETATM    9  C   UNL     1     -11.517   9.358  71.180  1.00  0.00    -0.422 C  
HETATM   10  C   UNL     1     -14.013   8.991  71.353  1.00  0.00    -0.275 C  
HETATM   11  C   UNL     1     -12.571   8.594  71.504  1.00  0.00    -0.360 C  
BRANCH   4  12
HETATM   12  O   UNL     1      -8.685   7.392  72.818  1.00  0.00    -0.118 OA 
HETATM   13  C   UNL     1      -8.218   8.188  73.901  1.00  0.00    -0.250 C  
ENDBRANCH   4  12
BRANCH   9  14
HETATM   14  C   UNL     1     -11.605  10.777  70.711  1.00  0.00    -0.322 C  
BRANCH  14  15
HETATM   15  C   UNL     1     -12.127  10.903  69.278  1.00  0.00    -0.332 C  
BRANCH  15  16
HETATM   16  C   UNL     1     -11.122  10.361  68.261  1.00  0.00    -0.338 C  
BRANCH  16  17
HETATM   17  C   UNL     1     -10.441  11.490  67.496  1.00  0.00    -0.229 C  
BRANCH  17  18
HETATM   18  C   UNL     1      -9.158  11.943  68.167  1.00  0.00    -0.190 C  
BRANCH  18  19
HETATM   19  C   UNL     1      -8.944  13.423  67.877  1.00  0.00    -0.201 C  
BRANCH  19  20
HETATM   20  C   UNL     1      -9.755  13.850  66.667  1.00  0.00    -0.295 C  
BRANCH  20  21
HETATM   21  C   UNL     1     -10.498  15.146  66.954  1.00  0.00    -0.282 C  
BRANCH  21  22
HETATM   22  C   UNL     1     -10.602  15.978  65.684  1.00  0.00    -0.392 C  
BRANCH  22  23
HETATM   23  C   UNL     1     -10.350  17.451  65.979  1.00  0.00    -0.309 C  
BRANCH  23  24
HETATM   24  C   UNL     1      -9.804  17.629  67.389  1.00  0.00    -0.305 C  
BRANCH  24  25
HETATM   25  C   UNL     1      -8.557  18.497  67.389  1.00  0.00    -0.258 C  
HETATM   26  O   UNL     1      -8.928  19.867  67.429  1.00  0.00    -0.313 OA 
HETATM   27  H   UNL     1      -8.148  20.410  67.430  1.00  0.00     0.000 HD 
ENDBRANCH  24  25
ENDBRANCH  23  24
ENDBRANCH  22  23
ENDBRANCH  21  22
ENDBRANCH  20  21
ENDBRANCH  19  20
ENDBRANCH  18  19
ENDBRANCH  17  18
ENDBRANCH  16  17
ENDBRANCH  15  16
ENDBRANCH  14  15
ENDBRANCH   9  14
ENDBRANCH   2   3
TORSDOF 14
ENDMDL
MODEL      250
REMARK 921   NORMALIZED FREE ENERGY PREDICTED BY IDOCK:   -3.30 KCAL/MOL
REMARK 922        TOTAL FREE ENERGY PREDICTED BY IDOCK:   -7.83 KCAL/MOL
REMARK 923 INTER-LIGAND FREE ENERGY PREDICTED BY IDOCK:   -6.12 KCAL/MOL
REMARK 924 INTRA-LIGAND FREE ENERGY PREDICTED BY IDOCK:   -1.71 KCAL/MOL
REMARK 927      BINDING AFFINITY PREDICTED BY RF-SCORE:    0.00 PKD
ROOT
HETATM    1  C   UNL     1      -7.581   8.145  72.434  1.00  0.00    -0.119 C  
HETATM    2  O   UNL     1      -6.777   7.514  71.446  1.00  0.00    -0.048 OA 
ENDROOT
BRANCH   2   3
HETATM    3  C   UNL     1      -7.233   7.586  70.131  1.00  0.00    -0.068 C  
HETATM    4  C   UNL     1      -6.764   8.571  69.345  1.00  0.00    -0.045 C  
HETATM    5  C   UNL     1      -7.265   8.672  67.941  1.00  0.00    -0.088 C  
HETATM    6  O   UNL     1      -8.507   5.548  70.129  1.00  0.00    -0.113 OA 
HETATM    7  O   UNL     1      -6.658   9.260  67.052  1.00  0.00    -0.066 OA 
HETATM    8  C   UNL     1      -8.261   6.627  69.600  1.00  0.00    -0.127 C  
HETATM    9  C   UNL     1      -8.590   8.056  67.649  1.00  0.00    -0.130 C  
HETATM   10  C   UNL     1     -10.323   6.295  68.187  1.00  0.00    -0.236 C  
HETATM   11  C   UNL     1      -9.049   7.057  68.419  1.00  0.00    -0.127 C  
BRANCH   4  12
HETATM   12  O   UNL     1      -5.821   9.452  69.873  1.00  0.00    -0.034 OA 
HETATM   13  C   UNL     1      -6.186  10.817  70.035  1.00  0.00    -0.119 C  
ENDBRANCH   4  12
BRANCH   9  14
HETATM   14  C   UNL     1      -9.329   8.644  66.487  1.00  0.00    -0.257 C  
BRANCH  14  15
HETATM   15  C   UNL     1     -10.294   9.759  66.894  1.00  0.00    -0.301 C  
BRANCH  15  16
HETATM   16  C   UNL     1      -9.672  11.142  66.707  1.00  0.00    -0.220 C  
BRANCH  16  17
HETATM   17  C   UNL     1     -10.709  12.163  66.254  1.00  0.00    -0.296 C  
BRANCH  17  18
HETATM   18  C   UNL     1     -11.735  12.454  67.333  1.00  0.00    -0.417 C  
BRANCH  18  19
HETATM   19  C   UNL     1     -11.011  12.748  68.640  1.00  0.00    -0.295 C  
BRANCH  19  20
HETATM   20  C   UNL     1     -11.812  12.227  69.819  1.00  0.00    -0.388 C  
BRANCH  20  21
HETATM   21  C   UNL     1     -11.956  10.714  69.740  1.00  0.00    -0.363 C  
BRANCH  21  22
HETATM   22  C   UNL     1     -11.408  10.072  71.006  1.00  0.00    -0.434 C  
BRANCH  22  23
HETATM   23  C   UNL     1     -12.140   8.773  71.315  1.00  0.00    -0.344 C  
BRANCH  23  24
HETATM   24  C   UNL     1     -13.533   9.059  71.858  1.00  0.00    -0.481 C  
BRANCH  24  25
HETATM   25  C   UNL     1     -14.407   7.816  71.810  1.00  0.00    -0.470 C  
HETATM   26  O   UNL     1     -13.671   6.697  72.283  1.00  0.00    -0.532 OA 
HETATM   27  H   UNL     1     -14.217   5.920  72.253  1.00  0.00     0.000 HD 
ENDBRANCH  24  25
ENDBRANCH  23  24
ENDBRANCH  22  23
ENDBRANCH  21  22
ENDBRANCH  20  21
ENDBRANCH  19  20
ENDBRANCH  18  19
ENDBRANCH  17  18
ENDBRANCH  16  17
ENDBRANCH  15  16
ENDBRANCH  14  15
ENDBRANCH   9  14
ENDBRANCH   2   3
TORSDOF 14
ENDMDL
MODEL      251
REMARK 921   NORMALIZED FREE ENERGY PREDICTED BY IDOCK:   -3.29 KCAL/MOL
REMARK 922        TOTAL FREE ENERGY PREDICTED BY IDOCK:   -7.81 KCAL/MOL
REMARK 923 INTER-LIGAND FREE ENERGY PREDICTED BY IDOCK:   -6.33 KCAL/MOL
REMARK 924 INTRA-LIGAND FREE ENERGY PREDICTED BY IDOCK:   -1.48 KCAL/MOL
REMARK 927      BINDING AFFINITY PREDICTED BY RF-SCORE:    0.00 PKD
ROOT
HETATM    1  C   UNL     1      -5.594   6.688  67.400  1.00  0.00    -0.013 C  
HETATM    2  O   UNL     1      -5.956   7.249  66.146  1.00  0.00    -0.035 OA 
ENDROOT
BRANCH   2   3
HETATM    3  C   UNL     1      -7.197   7.881  66.079  1.00  0.00    -0.073 C  
HETATM    4  C   UNL     1      -7.224   9.220  65.945  1.00  0.00    -0.091 C  
HETATM    5  C   UNL     1      -8.548   9.911  65.897  1.00  0.00    -0.137 C  
HETATM    6  O   UNL     1      -8.557   5.902  66.024  1.00  0.00    -0.131 OA 
HETATM    7  O   UNL     1      -8.707  11.027  65.415  1.00  0.00    -0.184 OA 
HETATM    8  C   UNL     1      -8.481   7.112  66.203  1.00  0.00    -0.142 C  
HETATM    9  C   UNL     1      -9.704   9.201  66.514  1.00  0.00    -0.306 C  
HETATM   10  C   UNL     1     -10.816   7.020  67.150  1.00  0.00    -0.427 C  
HETATM   11  C   UNL     1      -9.688   7.863  66.628  1.00  0.00    -0.305 C  
BRANCH   4  12
HETATM   12  O   UNL     1      -6.014   9.904  65.846  1.00  0.00    -0.064 OA 
HETATM   13  C   UNL     1      -5.445  10.448  67.030  1.00  0.00    -0.042 C  
ENDBRANCH   4  12
BRANCH   9  14
HETATM   14  C   UNL     1     -10.818  10.082  66.988  1.00  0.00    -0.196 C  
BRANCH  14  15
HETATM   15  C   UNL     1     -10.613  10.588  68.418  1.00  0.00    -0.230 C  
BRANCH  15  16
HETATM   16  C   UNL     1     -11.224  11.974  68.620  1.00  0.00    -0.309 C  
BRANCH  16  17
HETATM   17  C   UNL     1     -11.634  12.602  67.293  1.00  0.00    -0.428 C  
BRANCH  17  18
HETATM   18  C   UNL     1     -11.251  14.068  67.211  1.00  0.00    -0.328 C  
BRANCH  18  19
HETATM   19  C   UNL     1      -9.733  14.187  67.263  1.00  0.00    -0.236 C  
BRANCH  19  20
HETATM   20  C   UNL     1      -9.258  15.318  66.368  1.00  0.00    -0.342 C  
BRANCH  20  21
HETATM   21  C   UNL     1     -10.444  16.039  65.745  1.00  0.00    -0.391 C  
BRANCH  21  22
HETATM   22  C   UNL     1     -10.318  17.538  65.971  1.00  0.00    -0.309 C  
BRANCH  22  23
HETATM   23  C   UNL     1     -10.690  17.904  67.402  1.00  0.00    -0.306 C  
BRANCH  23  24
HETATM   24  C   UNL     1      -9.621  18.793  68.022  1.00  0.00    -0.360 C  
BRANCH  24  25
HETATM   25  C   UNL     1      -9.083  19.791  67.010  1.00  0.00    -0.340 C  
HETATM   26  O   UNL     1      -9.806  21.009  67.109  1.00  0.00    -0.602 OA 
HETATM   27  H   UNL     1      -9.469  21.633  66.477  1.00  0.00     0.000 HD 
ENDBRANCH  24  25
ENDBRANCH  23  24
ENDBRANCH  22  23
ENDBRANCH  21  22
ENDBRANCH  20  21
ENDBRANCH  19  20
ENDBRANCH  18  19
ENDBRANCH  17  18
ENDBRANCH  16  17
ENDBRANCH  15  16
ENDBRANCH  14  15
ENDBRANCH   9  14
ENDBRANCH   2   3
TORSDOF 14
ENDMDL
MODEL      252
REMARK 921   NORMALIZED FREE ENERGY PREDICTED BY IDOCK:   -3.28 KCAL/MOL
REMARK 922        TOTAL FREE ENERGY PREDICTED BY IDOCK:   -7.79 KCAL/MOL
REMARK 923 INTER-LIGAND FREE ENERGY PREDICTED BY IDOCK:   -5.79 KCAL/MOL
REMARK 924 INTRA-LIGAND FREE ENERGY PREDICTED BY IDOCK:   -1.99 KCAL/MOL
REMARK 927      BINDING AFFINITY PREDICTED BY RF-SCORE:    0.00 PKD
ROOT
HETATM    1  C   UNL     1     -12.247  13.593  66.771  1.00  0.00    -0.369 C  
HETATM    2  O   UNL     1     -11.409  13.851  67.891  1.00  0.00    -0.266 OA 
ENDROOT
BRANCH   2   3
HETATM    3  C   UNL     1     -10.961  12.741  68.605  1.00  0.00    -0.260 C  
HETATM    4  C   UNL     1      -9.802  12.168  68.233  1.00  0.00    -0.212 C  
HETATM    5  C   UNL     1      -9.324  10.963  68.976  1.00  0.00    -0.131 C  
HETATM    6  O   UNL     1     -12.645  12.768  70.318  1.00  0.00    -0.136 OA 
HETATM    7  O   UNL     1      -8.154  10.599  68.984  1.00  0.00    -0.132 OA 
HETATM    8  C   UNL     1     -11.763  12.152  69.731  1.00  0.00    -0.310 C  
HETATM    9  C   UNL     1     -10.353  10.160  69.696  1.00  0.00    -0.278 C  
HETATM   10  C   UNL     1     -12.581  10.067  70.890  1.00  0.00    -0.424 C  
HETATM   11  C   UNL     1     -11.501  10.736  70.087  1.00  0.00    -0.415 C  
BRANCH   4  12
HETATM   12  O   UNL     1      -9.090  12.732  67.175  1.00  0.00    -0.203 OA 
HETATM   13  C   UNL     1      -8.004  13.600  67.477  1.00  0.00    -0.182 C  
ENDBRANCH   4  12
BRANCH   9  14
HETATM   14  C   UNL     1     -10.008   8.719  69.909  1.00  0.00    -0.193 C  
BRANCH  14  15
HETATM   15  C   UNL     1     -10.628   7.793  68.861  1.00  0.00    -0.168 C  
BRANCH  15  16
HETATM   16  C   UNL     1     -10.271   8.228  67.440  1.00  0.00    -0.326 C  
BRANCH  16  17
HETATM   17  C   UNL     1      -9.891   7.035  66.571  1.00  0.00    -0.175 C  
BRANCH  17  18
HETATM   18  C   UNL     1      -9.008   6.046  67.309  1.00  0.00    -0.109 C  
BRANCH  18  19
HETATM   19  C   UNL     1      -7.559   6.504  67.208  1.00  0.00    -0.096 C  
BRANCH  19  20
HETATM   20  C   UNL     1      -6.996   6.794  68.588  1.00  0.00    -0.080 C  
BRANCH  20  21
HETATM   21  C   UNL     1      -7.208   5.603  69.511  1.00  0.00    -0.066 C  
BRANCH  21  22
HETATM   22  C   UNL     1      -7.588   6.086  70.903  1.00  0.00    -0.096 C  
BRANCH  22  23
HETATM   23  C   UNL     1      -8.969   5.577  71.295  1.00  0.00    -0.153 C  
BRANCH  23  24
HETATM   24  C   UNL     1      -9.425   6.220  72.598  1.00  0.00    -0.148 C  
BRANCH  24  25
HETATM   25  C   UNL     1     -10.939   6.353  72.643  1.00  0.00    -0.253 C  
HETATM   26  O   UNL     1     -11.295   7.481  73.429  1.00  0.00    -0.611 OA 
HETATM   27  H   UNL     1     -12.241   7.565  73.457  1.00  0.00     0.000 HD 
ENDBRANCH  24  25
ENDBRANCH  23  24
ENDBRANCH  22  23
ENDBRANCH  21  22
ENDBRANCH  20  21
ENDBRANCH  19  20
ENDBRANCH  18  19
ENDBRANCH  17  18
ENDBRANCH  16  17
ENDBRANCH  15  16
ENDBRANCH  14  15
ENDBRANCH   9  14
ENDBRANCH   2   3
TORSDOF 14
ENDMDL
MODEL      253
REMARK 921   NORMALIZED FREE ENERGY PREDICTED BY IDOCK:   -3.28 KCAL/MOL
REMARK 922        TOTAL FREE ENERGY PREDICTED BY IDOCK:   -7.78 KCAL/MOL
REMARK 923 INTER-LIGAND FREE ENERGY PREDICTED BY IDOCK:   -5.90 KCAL/MOL
REMARK 924 INTRA-LIGAND FREE ENERGY PREDICTED BY IDOCK:   -1.88 KCAL/MOL
REMARK 927      BINDING AFFINITY PREDICTED BY RF-SCORE:    0.00 PKD
ROOT
HETATM    1  C   UNL     1     -11.160  15.967  70.607  1.00  0.00    -0.346 C  
HETATM    2  O   UNL     1     -12.196  15.346  69.858  1.00  0.00    -0.342 OA 
ENDROOT
BRANCH   2   3
HETATM    3  C   UNL     1     -12.047  13.986  69.593  1.00  0.00    -0.355 C  
HETATM    4  C   UNL     1     -12.694  13.107  70.379  1.00  0.00    -0.010 C  
HETATM    5  C   UNL     1     -12.521  11.646  70.119  1.00  0.00    -0.134 C  
HETATM    6  O   UNL     1     -10.779  14.200  67.563  1.00  0.00    -0.265 OA 
HETATM    7  O   UNL     1     -13.319  10.797  70.500  1.00  0.00    -0.089 OA 
HETATM    8  C   UNL     1     -11.151  13.492  68.493  1.00  0.00    -0.272 C  
HETATM    9  C   UNL     1     -11.286  11.229  69.396  1.00  0.00    -0.360 C  
HETATM   10  C   UNL     1      -9.453  11.784  67.745  1.00  0.00    -0.181 C  
HETATM   11  C   UNL     1     -10.653  12.098  68.593  1.00  0.00    -0.248 C  
BRANCH   4  12
HETATM   12  O   UNL     1     -13.507  13.599  71.400  1.00  0.00    -0.292 OA 
HETATM   13  C   UNL     1     -13.060  13.468  72.744  1.00  0.00    -0.184 C  
ENDBRANCH   4  12
BRANCH   9  14
HETATM   14  C   UNL     1     -10.834   9.825  69.656  1.00  0.00    -0.274 C  
BRANCH  14  15
HETATM   15  C   UNL     1     -10.600   9.538  71.141  1.00  0.00    -0.388 C  
BRANCH  15  16
HETATM   16  C   UNL     1      -9.946   8.174  71.357  1.00  0.00    -0.230 C  
BRANCH  16  17
HETATM   17  C   UNL     1      -8.618   8.302  72.094  1.00  0.00    -0.249 C  
BRANCH  17  18
HETATM   18  C   UNL     1      -7.445   7.859  71.241  1.00  0.00    -0.073 C  
BRANCH  18  19
HETATM   19  C   UNL     1      -6.626   9.083  70.851  1.00  0.00    -0.068 C  
BRANCH  19  20
HETATM   20  C   UNL     1      -7.019   9.565  69.466  1.00  0.00    -0.059 C  
BRANCH  20  21
HETATM   21  C   UNL     1      -6.052   9.030  68.421  1.00  0.00    -0.046 C  
BRANCH  21  22
HETATM   22  C   UNL     1      -6.814   8.263  67.351  1.00  0.00    -0.070 C  
BRANCH  22  23
HETATM   23  C   UNL     1      -8.317   8.454  67.514  1.00  0.00    -0.129 C  
BRANCH  23  24
HETATM   24  C   UNL     1      -9.079   7.496  66.609  1.00  0.00    -0.189 C  
BRANCH  24  25
HETATM   25  C   UNL     1     -10.555   7.460  66.967  1.00  0.00    -0.344 C  
HETATM   26  O   UNL     1     -11.111   6.213  66.575  1.00  0.00    -0.702 OA 
HETATM   27  H   UNL     1     -12.034   6.190  66.799  1.00  0.00     0.000 HD 
ENDBRANCH  24  25
ENDBRANCH  23  24
ENDBRANCH  22  23
ENDBRANCH  21  22
ENDBRANCH  20  21
ENDBRANCH  19  20
ENDBRANCH  18  19
ENDBRANCH  17  18
ENDBRANCH  16  17
ENDBRANCH  15  16
ENDBRANCH  14  15
ENDBRANCH   9  14
ENDBRANCH   2   3
TORSDOF 14
ENDMDL
MODEL      254
REMARK 921   NORMALIZED FREE ENERGY PREDICTED BY IDOCK:   -3.27 KCAL/MOL
REMARK 922        TOTAL FREE ENERGY PREDICTED BY IDOCK:   -7.77 KCAL/MOL
REMARK 923 INTER-LIGAND FREE ENERGY PREDICTED BY IDOCK:   -7.25 KCAL/MOL
REMARK 924 INTRA-LIGAND FREE ENERGY PREDICTED BY IDOCK:   -0.52 KCAL/MOL
REMARK 927      BINDING AFFINITY PREDICTED BY RF-SCORE:    0.00 PKD
ROOT
HETATM    1  C   UNL     1      -6.307  18.786  64.848  1.00  0.00    -0.121 C  
HETATM    2  O   UNL     1      -7.244  19.001  65.895  1.00  0.00    -0.263 OA 
ENDROOT
BRANCH   2   3
HETATM    3  C   UNL     1      -7.551  17.901  66.694  1.00  0.00    -0.232 C  
HETATM    4  C   UNL     1      -6.698  17.571  67.681  1.00  0.00    -0.162 C  
HETATM    5  C   UNL     1      -7.005  16.379  68.528  1.00  0.00    -0.154 C  
HETATM    6  O   UNL     1      -9.730  17.452  65.788  1.00  0.00    -0.533 OA 
HETATM    7  O   UNL     1      -6.533  16.211  69.648  1.00  0.00    -0.190 OA 
HETATM    8  C   UNL     1      -8.771  17.061  66.444  1.00  0.00    -0.273 C  
HETATM    9  C   UNL     1      -7.896  15.341  67.938  1.00  0.00    -0.149 C  
HETATM   10  C   UNL     1      -9.772  14.749  66.349  1.00  0.00    -0.311 C  
HETATM   11  C   UNL     1      -8.763  15.674  66.969  1.00  0.00    -0.256 C  
BRANCH   4  12
HETATM   12  O   UNL     1      -5.568  18.364  67.878  1.00  0.00    -0.162 OA 
HETATM   13  C   UNL     1      -5.637  19.414  68.835  1.00  0.00    -0.206 C  
ENDBRANCH   4  12
BRANCH   9  14
HETATM   14  C   UNL     1      -7.724  13.960  68.490  1.00  0.00    -0.139 C  
BRANCH  14  15
HETATM   15  C   UNL     1      -7.720  12.879  67.406  1.00  0.00    -0.160 C  
BRANCH  15  16
HETATM   16  C   UNL     1      -8.029  11.498  67.983  1.00  0.00    -0.130 C  
BRANCH  16  17
HETATM   17  C   UNL     1      -9.265  10.887  67.333  1.00  0.00    -0.155 C  
BRANCH  17  18
HETATM   18  C   UNL     1      -9.225   9.370  67.341  1.00  0.00    -0.145 C  
BRANCH  18  19
HETATM   19  C   UNL     1     -10.417   8.847  68.133  1.00  0.00    -0.254 C  
BRANCH  19  20
HETATM   20  C   UNL     1      -9.951   7.944  69.260  1.00  0.00    -0.190 C  
BRANCH  20  21
HETATM   21  C   UNL     1      -9.351   8.769  70.389  1.00  0.00    -0.205 C  
BRANCH  21  22
HETATM   22  C   UNL     1     -10.400   9.712  70.959  1.00  0.00    -0.292 C  
BRANCH  22  23
HETATM   23  C   UNL     1     -11.424   8.947  71.787  1.00  0.00    -0.423 C  
BRANCH  23  24
HETATM   24  C   UNL     1     -12.761   9.674  71.790  1.00  0.00    -0.510 C  
BRANCH  24  25
HETATM   25  C   UNL     1     -13.906   8.717  72.074  1.00  0.00    -0.440 C  
HETATM   26  O   UNL     1     -14.346   8.884  73.414  1.00  0.00    -1.192 OA 
HETATM   27  H   UNL     1     -15.063   8.285  73.593  1.00  0.00     0.000 HD 
ENDBRANCH  24  25
ENDBRANCH  23  24
ENDBRANCH  22  23
ENDBRANCH  21  22
ENDBRANCH  20  21
ENDBRANCH  19  20
ENDBRANCH  18  19
ENDBRANCH  17  18
ENDBRANCH  16  17
ENDBRANCH  15  16
ENDBRANCH  14  15
ENDBRANCH   9  14
ENDBRANCH   2   3
TORSDOF 14
ENDMDL
MODEL      255
REMARK 921   NORMALIZED FREE ENERGY PREDICTED BY IDOCK:   -3.27 KCAL/MOL
REMARK 922        TOTAL FREE ENERGY PREDICTED BY IDOCK:   -7.76 KCAL/MOL
REMARK 923 INTER-LIGAND FREE ENERGY PREDICTED BY IDOCK:   -6.69 KCAL/MOL
REMARK 924 INTRA-LIGAND FREE ENERGY PREDICTED BY IDOCK:   -1.07 KCAL/MOL
REMARK 927      BINDING AFFINITY PREDICTED BY RF-SCORE:    0.00 PKD
ROOT
HETATM    1  C   UNL     1     -12.411  14.657  64.309  1.00  0.00    -0.349 C  
HETATM    2  O   UNL     1     -10.994  14.565  64.373  1.00  0.00    -0.291 OA 
ENDROOT
BRANCH   2   3
HETATM    3  C   UNL     1     -10.469  13.529  65.144  1.00  0.00    -0.364 C  
HETATM    4  C   UNL     1      -9.862  13.839  66.303  1.00  0.00    -0.303 C  
HETATM    5  C   UNL     1      -9.274  12.739  67.125  1.00  0.00    -0.219 C  
HETATM    6  O   UNL     1     -11.299  11.703  63.821  1.00  0.00    -0.397 OA 
HETATM    7  O   UNL     1      -9.047  12.844  68.325  1.00  0.00    -0.199 OA 
HETATM    8  C   UNL     1     -10.523  12.100  64.683  1.00  0.00    -0.299 C  
HETATM    9  C   UNL     1      -8.916  11.480  66.412  1.00  0.00    -0.200 C  
HETATM   10  C   UNL     1      -9.332   9.885  64.494  1.00  0.00    -0.336 C  
HETATM   11  C   UNL     1      -9.536  11.158  65.266  1.00  0.00    -0.257 C  
BRANCH   4  12
HETATM   12  O   UNL     1      -9.818  15.177  66.695  1.00  0.00    -0.236 OA 
HETATM   13  C   UNL     1     -10.843  15.665  67.552  1.00  0.00    -0.316 C  
ENDBRANCH   4  12
BRANCH   9  14
HETATM   14  C   UNL     1      -7.837  10.664  67.055  1.00  0.00    -0.117 C  
BRANCH  14  15
HETATM   15  C   UNL     1      -8.373   9.421  67.769  1.00  0.00    -0.115 C  
BRANCH  15  16
HETATM   16  C   UNL     1      -9.763   9.661  68.358  1.00  0.00    -0.163 C  
BRANCH  16  17
HETATM   17  C   UNL     1     -10.589   8.381  68.379  1.00  0.00    -0.155 C  
BRANCH  17  18
HETATM   18  C   UNL     1     -10.362   7.532  67.142  1.00  0.00    -0.384 C  
BRANCH  18  19
HETATM   19  C   UNL     1     -10.810   6.105  67.431  1.00  0.00    -0.431 C  
BRANCH  19  20
HETATM   20  C   UNL     1     -10.464   5.195  66.267  1.00  0.00    -0.341 C  
BRANCH  20  21
HETATM   21  C   UNL     1      -9.123   5.585  65.665  1.00  0.00    -0.131 C  
BRANCH  21  22
HETATM   22  C   UNL     1      -8.580   4.442  64.820  1.00  0.00    -0.132 C  
BRANCH  22  23
HETATM   23  C   UNL     1      -8.933   4.638  63.351  1.00  0.00    -0.110 C  
BRANCH  23  24
HETATM   24  C   UNL     1      -9.362   3.319  62.724  1.00  0.00    -0.091 C  
BRANCH  24  25
HETATM   25  C   UNL     1      -9.923   2.370  63.771  1.00  0.00    -0.142 C  
HETATM   26  O   UNL     1     -11.338   2.480  63.805  1.00  0.00    -0.612 OA 
HETATM   27  H   UNL     1     -11.689   1.887  64.459  1.00  0.00     0.000 HD 
ENDBRANCH  24  25
ENDBRANCH  23  24
ENDBRANCH  22  23
ENDBRANCH  21  22
ENDBRANCH  20  21
ENDBRANCH  19  20
ENDBRANCH  18  19
ENDBRANCH  17  18
ENDBRANCH  16  17
ENDBRANCH  15  16
ENDBRANCH  14  15
ENDBRANCH   9  14
ENDBRANCH   2   3
TORSDOF 14
ENDMDL
MODEL      256
REMARK 921   NORMALIZED FREE ENERGY PREDICTED BY IDOCK:   -3.26 KCAL/MOL
REMARK 922        TOTAL FREE ENERGY PREDICTED BY IDOCK:   -7.75 KCAL/MOL
REMARK 923 INTER-LIGAND FREE ENERGY PREDICTED BY IDOCK:   -6.01 KCAL/MOL
REMARK 924 INTRA-LIGAND FREE ENERGY PREDICTED BY IDOCK:   -1.73 KCAL/MOL
REMARK 927      BINDING AFFINITY PREDICTED BY RF-SCORE:    0.00 PKD
ROOT
HETATM    1  C   UNL     1     -12.234   6.265  71.838  1.00  0.00    -0.199 C  
HETATM    2  O   UNL     1     -11.084   6.721  72.538  1.00  0.00    -0.246 OA 
ENDROOT
BRANCH   2   3
HETATM    3  C   UNL     1      -9.975   7.060  71.765  1.00  0.00    -0.176 C  
HETATM    4  C   UNL     1      -9.785   8.355  71.454  1.00  0.00    -0.199 C  
HETATM    5  C   UNL     1      -8.614   8.728  70.605  1.00  0.00    -0.178 C  
HETATM    6  O   UNL     1      -8.954   4.886  71.707  1.00  0.00    -0.132 OA 
HETATM    7  O   UNL     1      -8.137   9.857  70.576  1.00  0.00    -0.230 OA 
HETATM    8  C   UNL     1      -9.033   6.016  71.237  1.00  0.00    -0.136 C  
HETATM    9  C   UNL     1      -8.047   7.663  69.730  1.00  0.00    -0.125 C  
HETATM   10  C   UNL     1      -7.629   5.206  69.305  1.00  0.00    -0.069 C  
HETATM   11  C   UNL     1      -8.217   6.371  70.050  1.00  0.00    -0.125 C  
BRANCH   4  12
HETATM   12  O   UNL     1     -10.686   9.298  71.949  1.00  0.00    -0.339 OA 
HETATM   13  C   UNL     1     -11.578   9.925  71.036  1.00  0.00    -0.389 C  
ENDBRANCH   4  12
BRANCH   9  14
HETATM   14  C   UNL     1      -7.326   8.151  68.511  1.00  0.00    -0.093 C  
BRANCH  14  15
HETATM   15  C   UNL     1      -8.270   8.506  67.360  1.00  0.00    -0.109 C  
BRANCH  15  16
HETATM   16  C   UNL     1      -8.037   9.930  66.856  1.00  0.00    -0.113 C  
BRANCH  16  17
HETATM   17  C   UNL     1      -8.989  10.919  67.517  1.00  0.00    -0.136 C  
BRANCH  17  18
HETATM   18  C   UNL     1     -10.427  10.705  67.083  1.00  0.00    -0.295 C  
BRANCH  18  19
HETATM   19  C   UNL     1     -10.687  11.507  65.814  1.00  0.00    -0.325 C  
BRANCH  19  20
HETATM   20  C   UNL     1     -11.881  12.425  66.000  1.00  0.00    -0.459 C  
BRANCH  20  21
HETATM   21  C   UNL     1     -11.562  13.824  65.495  1.00  0.00    -0.335 C  
BRANCH  21  22
HETATM   22  C   UNL     1     -11.470  14.791  66.666  1.00  0.00    -0.339 C  
BRANCH  22  23
HETATM   23  C   UNL     1     -11.958  14.135  67.951  1.00  0.00    -0.378 C  
BRANCH  23  24
HETATM   24  C   UNL     1     -10.970  14.376  69.083  1.00  0.00    -0.288 C  
BRANCH  24  25
HETATM   25  C   UNL     1      -9.610  14.790  68.546  1.00  0.00    -0.218 C  
HETATM   26  O   UNL     1      -8.610  14.522  69.518  1.00  0.00    -0.383 OA 
HETATM   27  H   UNL     1      -7.760  14.781  69.182  1.00  0.00     0.000 HD 
ENDBRANCH  24  25
ENDBRANCH  23  24
ENDBRANCH  22  23
ENDBRANCH  21  22
ENDBRANCH  20  21
ENDBRANCH  19  20
ENDBRANCH  18  19
ENDBRANCH  17  18
ENDBRANCH  16  17
ENDBRANCH  15  16
ENDBRANCH  14  15
ENDBRANCH   9  14
ENDBRANCH   2   3
TORSDOF 14
ENDMDL
MODEL      257
REMARK 921   NORMALIZED FREE ENERGY PREDICTED BY IDOCK:   -3.24 KCAL/MOL
REMARK 922        TOTAL FREE ENERGY PREDICTED BY IDOCK:   -7.71 KCAL/MOL
REMARK 923 INTER-LIGAND FREE ENERGY PREDICTED BY IDOCK:   -6.34 KCAL/MOL
REMARK 924 INTRA-LIGAND FREE ENERGY PREDICTED BY IDOCK:   -1.37 KCAL/MOL
REMARK 927      BINDING AFFINITY PREDICTED BY RF-SCORE:    0.00 PKD
ROOT
HETATM    1  C   UNL     1      -9.981  14.609  65.617  1.00  0.00    -0.351 C  
HETATM    2  O   UNL     1     -11.210  13.930  65.840  1.00  0.00    -0.294 OA 
ENDROOT
BRANCH   2   3
HETATM    3  C   UNL     1     -11.190  12.891  66.770  1.00  0.00    -0.298 C  
HETATM    4  C   UNL     1     -11.624  13.143  68.018  1.00  0.00    -0.334 C  
HETATM    5  C   UNL     1     -11.584  12.044  69.029  1.00  0.00    -0.313 C  
HETATM    6  O   UNL     1     -10.528  11.137  65.268  1.00  0.00    -0.267 OA 
HETATM    7  O   UNL     1     -12.275  12.038  70.042  1.00  0.00    -0.271 OA 
HETATM    8  C   UNL     1     -10.653  11.532  66.422  1.00  0.00    -0.259 C  
HETATM    9  C   UNL     1     -10.614  10.938  68.788  1.00  0.00    -0.231 C  
HETATM   10  C   UNL     1      -9.293   9.538  67.150  1.00  0.00    -0.174 C  
HETATM   11  C   UNL     1     -10.197  10.672  67.541  1.00  0.00    -0.236 C  
BRANCH   4  12
HETATM   12  O   UNL     1     -12.103  14.420  68.311  1.00  0.00    -0.309 OA 
HETATM   13  C   UNL     1     -11.470  15.158  69.348  1.00  0.00    -0.306 C  
ENDBRANCH   4  12
BRANCH   9  14
HETATM   14  C   UNL     1     -10.159  10.207  70.013  1.00  0.00    -0.241 C  
BRANCH  14  15
HETATM   15  C   UNL     1     -10.942   8.916  70.264  1.00  0.00    -0.266 C  
BRANCH  15  16
HETATM   16  C   UNL     1     -10.377   8.134  71.449  1.00  0.00    -0.258 C  
BRANCH  16  17
HETATM   17  C   UNL     1      -9.333   7.118  71.000  1.00  0.00    -0.158 C  
BRANCH  17  18
HETATM   18  C   UNL     1      -9.670   6.510  69.652  1.00  0.00    -0.167 C  
BRANCH  18  19
HETATM   19  C   UNL     1     -10.498   5.250  69.869  1.00  0.00    -0.351 C  
BRANCH  19  20
HETATM   20  C   UNL     1      -9.612   4.018  69.826  1.00  0.00    -0.280 C  
BRANCH  20  21
HETATM   21  C   UNL     1      -9.914   3.102  71.002  1.00  0.00     0.042 C  
BRANCH  21  22
HETATM   22  C   UNL     1      -8.660   2.903  71.841  1.00  0.00    -0.098 C  
BRANCH  22  23
HETATM   23  C   UNL     1      -9.013   2.748  73.315  1.00  0.00    -0.088 C  
BRANCH  23  24
HETATM   24  C   UNL     1     -10.331   3.444  73.625  1.00  0.00    -0.232 C  
BRANCH  24  25
HETATM   25  C   UNL     1     -10.114   4.662  74.507  1.00  0.00    -0.231 C  
HETATM   26  O   UNL     1     -10.850   5.762  73.991  1.00  0.00    -0.372 OA 
HETATM   27  H   UNL     1     -10.714   6.524  74.543  1.00  0.00     0.000 HD 
ENDBRANCH  24  25
ENDBRANCH  23  24
ENDBRANCH  22  23
ENDBRANCH  21  22
ENDBRANCH  20  21
ENDBRANCH  19  20
ENDBRANCH  18  19
ENDBRANCH  17  18
ENDBRANCH  16  17
ENDBRANCH  15  16
ENDBRANCH  14  15
ENDBRANCH   9  14
ENDBRANCH   2   3
TORSDOF 14
ENDMDL
MODEL      258
REMARK 921   NORMALIZED FREE ENERGY PREDICTED BY IDOCK:   -3.22 KCAL/MOL
REMARK 922        TOTAL FREE ENERGY PREDICTED BY IDOCK:   -7.67 KCAL/MOL
REMARK 923 INTER-LIGAND FREE ENERGY PREDICTED BY IDOCK:   -7.12 KCAL/MOL
REMARK 924 INTRA-LIGAND FREE ENERGY PREDICTED BY IDOCK:   -0.55 KCAL/MOL
REMARK 927      BINDING AFFINITY PREDICTED BY RF-SCORE:    0.00 PKD
ROOT
HETATM    1  C   UNL     1      -6.981  15.722  68.469  1.00  0.00    -0.117 C  
HETATM    2  O   UNL     1      -7.488  15.403  67.179  1.00  0.00    -0.205 OA 
ENDROOT
BRANCH   2   3
HETATM    3  C   UNL     1      -8.483  14.429  67.122  1.00  0.00    -0.208 C  
HETATM    4  C   UNL     1      -9.764  14.829  67.029  1.00  0.00    -0.237 C  
HETATM    5  C   UNL     1     -10.840  13.794  66.992  1.00  0.00    -0.284 C  
HETATM    6  O   UNL     1      -7.040  12.512  66.995  1.00  0.00    -0.094 OA 
HETATM    7  O   UNL     1     -11.962  14.006  66.543  1.00  0.00    -0.401 OA 
HETATM    8  C   UNL     1      -8.158  12.964  67.212  1.00  0.00    -0.163 C  
HETATM    9  C   UNL     1     -10.518  12.462  67.577  1.00  0.00    -0.229 C  
HETATM   10  C   UNL     1      -8.788  10.704  68.137  1.00  0.00    -0.134 C  
HETATM   11  C   UNL     1      -9.242  12.051  67.650  1.00  0.00    -0.182 C  
BRANCH   4  12
HETATM   12  O   UNL     1     -10.031  16.196  66.961  1.00  0.00    -0.247 OA 
HETATM   13  C   UNL     1     -10.560  16.840  68.114  1.00  0.00    -0.350 C  
ENDBRANCH   4  12
BRANCH   9  14
HETATM   14  C   UNL     1     -11.695  11.676  68.069  1.00  0.00    -0.351 C  
BRANCH  14  15
HETATM   15  C   UNL     1     -11.939  11.842  69.571  1.00  0.00    -0.355 C  
BRANCH  15  16
HETATM   16  C   UNL     1     -11.898  10.501  70.302  1.00  0.00    -0.418 C  
BRANCH  16  17
HETATM   17  C   UNL     1     -12.726  10.538  71.582  1.00  0.00    -0.550 C  
BRANCH  17  18
HETATM   18  C   UNL     1     -13.031   9.148  72.107  1.00  0.00    -0.498 C  
BRANCH  18  19
HETATM   19  C   UNL     1     -12.319   8.121  71.235  1.00  0.00    -0.285 C  
BRANCH  19  20
HETATM   20  C   UNL     1     -10.815   8.298  71.329  1.00  0.00    -0.285 C  
BRANCH  20  21
HETATM   21  C   UNL     1     -10.099   7.124  70.677  1.00  0.00    -0.198 C  
BRANCH  21  22
HETATM   22  C   UNL     1     -10.819   6.720  69.399  1.00  0.00    -0.312 C  
BRANCH  22  23
HETATM   23  C   UNL     1     -10.785   7.850  68.378  1.00  0.00    -0.073 C  
BRANCH  23  24
HETATM   24  C   UNL     1     -10.346   7.327  67.017  1.00  0.00    -0.376 C  
BRANCH  24  25
HETATM   25  C   UNL     1     -10.217   5.813  67.027  1.00  0.00    -0.213 C  
HETATM   26  O   UNL     1     -10.025   5.342  65.701  1.00  0.00    -0.353 OA 
HETATM   27  H   UNL     1      -9.943   4.395  65.707  1.00  0.00     0.000 HD 
ENDBRANCH  24  25
ENDBRANCH  23  24
ENDBRANCH  22  23
ENDBRANCH  21  22
ENDBRANCH  20  21
ENDBRANCH  19  20
ENDBRANCH  18  19
ENDBRANCH  17  18
ENDBRANCH  16  17
ENDBRANCH  15  16
ENDBRANCH  14  15
ENDBRANCH   9  14
ENDBRANCH   2   3
TORSDOF 14
ENDMDL
MODEL      259
REMARK 921   NORMALIZED FREE ENERGY PREDICTED BY IDOCK:   -3.21 KCAL/MOL
REMARK 922        TOTAL FREE ENERGY PREDICTED BY IDOCK:   -7.67 KCAL/MOL
REMARK 923 INTER-LIGAND FREE ENERGY PREDICTED BY IDOCK:   -5.36 KCAL/MOL
REMARK 924 INTRA-LIGAND FREE ENERGY PREDICTED BY IDOCK:   -2.31 KCAL/MOL
REMARK 927      BINDING AFFINITY PREDICTED BY RF-SCORE:    0.00 PKD
ROOT
HETATM    1  C   UNL     1      -7.590   9.993  69.977  1.00  0.00    -0.172 C  
HETATM    2  O   UNL     1      -8.083   9.552  71.235  1.00  0.00    -0.284 OA 
ENDROOT
BRANCH   2   3
HETATM    3  C   UNL     1      -8.608   8.262  71.283  1.00  0.00    -0.147 C  
HETATM    4  C   UNL     1      -7.850   7.284  71.810  1.00  0.00    -0.091 C  
HETATM    5  C   UNL     1      -8.393   5.892  71.844  1.00  0.00    -0.119 C  
HETATM    6  O   UNL     1     -10.819   8.793  70.507  1.00  0.00    -0.221 OA 
HETATM    7  O   UNL     1      -7.979   5.028  72.609  1.00  0.00    -0.096 OA 
HETATM    8  C   UNL     1      -9.963   7.941  70.719  1.00  0.00    -0.184 C  
HETATM    9  C   UNL     1      -9.459   5.557  70.858  1.00  0.00    -0.208 C  
HETATM   10  C   UNL     1     -11.389   6.322  69.414  1.00  0.00    -0.448 C  
HETATM   11  C   UNL     1     -10.231   6.530  70.348  1.00  0.00    -0.227 C  
BRANCH   4  12
HETATM   12  O   UNL     1      -6.592   7.613  72.312  1.00  0.00    -0.053 OA 
HETATM   13  C   UNL     1      -6.479   7.942  73.691  1.00  0.00    -0.093 C  
ENDBRANCH   4  12
BRANCH   9  14
HETATM   14  C   UNL     1      -9.564   4.108  70.495  1.00  0.00    -0.261 C  
BRANCH  14  15
HETATM   15  C   UNL     1      -8.654   3.717  69.328  1.00  0.00    -0.111 C  
BRANCH  15  16
HETATM   16  C   UNL     1      -9.423   2.971  68.237  1.00  0.00    -0.216 C  
BRANCH  16  17
HETATM   17  C   UNL     1      -9.505   3.790  66.954  1.00  0.00    -0.224 C  
BRANCH  17  18
HETATM   18  C   UNL     1      -8.759   5.106  67.067  1.00  0.00    -0.103 C  
BRANCH  18  19
HETATM   19  C   UNL     1      -9.261   6.055  65.986  1.00  0.00    -0.129 C  
BRANCH  19  20
HETATM   20  C   UNL     1      -8.323   7.240  65.842  1.00  0.00    -0.144 C  
BRANCH  20  21
HETATM   21  C   UNL     1      -8.702   8.342  66.819  1.00  0.00    -0.143 C  
BRANCH  21  22
HETATM   22  C   UNL     1      -9.744   9.257  66.193  1.00  0.00    -0.349 C  
BRANCH  22  23
HETATM   23  C   UNL     1      -9.904  10.534  67.008  1.00  0.00    -0.223 C  
BRANCH  23  24
HETATM   24  C   UNL     1     -11.195  10.495  67.813  1.00  0.00    -0.344 C  
BRANCH  24  25
HETATM   25  C   UNL     1     -11.417  11.802  68.557  1.00  0.00    -0.296 C  
HETATM   26  O   UNL     1     -10.960  11.673  69.896  1.00  0.00    -0.469 OA 
HETATM   27  H   UNL     1     -11.097  12.490  70.361  1.00  0.00     0.000 HD 
ENDBRANCH  24  25
ENDBRANCH  23  24
ENDBRANCH  22  23
ENDBRANCH  21  22
ENDBRANCH  20  21
ENDBRANCH  19  20
ENDBRANCH  18  19
ENDBRANCH  17  18
ENDBRANCH  16  17
ENDBRANCH  15  16
ENDBRANCH  14  15
ENDBRANCH   9  14
ENDBRANCH   2   3
TORSDOF 14
ENDMDL
MODEL      260
REMARK 921   NORMALIZED FREE ENERGY PREDICTED BY IDOCK:   -3.21 KCAL/MOL
REMARK 922        TOTAL FREE ENERGY PREDICTED BY IDOCK:   -7.65 KCAL/MOL
REMARK 923 INTER-LIGAND FREE ENERGY PREDICTED BY IDOCK:   -5.84 KCAL/MOL
REMARK 924 INTRA-LIGAND FREE ENERGY PREDICTED BY IDOCK:   -1.82 KCAL/MOL
REMARK 927      BINDING AFFINITY PREDICTED BY RF-SCORE:    0.00 PKD
ROOT
HETATM    1  C   UNL     1     -11.014  15.485  64.872  1.00  0.00    -0.436 C  
HETATM    2  O   UNL     1     -10.073  14.668  65.555  1.00  0.00    -0.336 OA 
ENDROOT
BRANCH   2   3
HETATM    3  C   UNL     1     -10.396  13.318  65.687  1.00  0.00    -0.287 C  
HETATM    4  C   UNL     1     -10.810  12.875  66.887  1.00  0.00    -0.257 C  
HETATM    5  C   UNL     1     -11.135  11.425  67.046  1.00  0.00    -0.303 C  
HETATM    6  O   UNL     1     -10.168  12.713  63.373  1.00  0.00    -0.370 OA 
HETATM    7  O   UNL     1     -11.856  10.992  67.939  1.00  0.00    -0.600 OA 
HETATM    8  C   UNL     1     -10.241  12.356  64.544  1.00  0.00    -0.299 C  
HETATM    9  C   UNL     1     -10.502  10.481  66.083  1.00  0.00    -0.237 C  
HETATM   10  C   UNL     1      -9.536  10.057  63.785  1.00  0.00    -0.267 C  
HETATM   11  C   UNL     1     -10.108  10.917  64.877  1.00  0.00    -0.374 C  
BRANCH   4  12
HETATM   12  O   UNL     1     -10.929  13.792  67.931  1.00  0.00    -0.244 OA 
HETATM   13  C   UNL     1     -12.223  14.288  68.252  1.00  0.00    -0.146 C  
ENDBRANCH   4  12
BRANCH   9  14
HETATM   14  C   UNL     1     -10.338   9.076  66.577  1.00  0.00    -0.263 C  
BRANCH  14  15
HETATM   15  C   UNL     1      -8.883   8.717  66.886  1.00  0.00    -0.147 C  
BRANCH  15  16
HETATM   16  C   UNL     1      -8.275   9.660  67.923  1.00  0.00    -0.106 C  
BRANCH  16  17
HETATM   17  C   UNL     1      -7.599   8.888  69.050  1.00  0.00    -0.085 C  
BRANCH  17  18
HETATM   18  C   UNL     1      -8.602   8.320  70.037  1.00  0.00    -0.128 C  
BRANCH  18  19
HETATM   19  C   UNL     1      -8.498   6.801  70.030  1.00  0.00    -0.140 C  
BRANCH  19  20
HETATM   20  C   UNL     1      -7.066   6.367  69.775  1.00  0.00    -0.072 C  
BRANCH  20  21
HETATM   21  C   UNL     1      -7.023   5.248  68.746  1.00  0.00    -0.060 C  
BRANCH  21  22
HETATM   22  C   UNL     1      -8.404   5.044  68.140  1.00  0.00    -0.096 C  
BRANCH  22  23
HETATM   23  C   UNL     1      -8.309   4.814  66.637  1.00  0.00    -0.106 C  
BRANCH  23  24
HETATM   24  C   UNL     1      -7.232   5.701  66.028  1.00  0.00    -0.073 C  
BRANCH  24  25
HETATM   25  C   UNL     1      -7.443   5.870  64.532  1.00  0.00    -0.079 C  
HETATM   26  O   UNL     1      -8.695   6.495  64.294  1.00  0.00    -0.322 OA 
HETATM   27  H   UNL     1      -8.827   6.601  63.359  1.00  0.00     0.000 HD 
ENDBRANCH  24  25
ENDBRANCH  23  24
ENDBRANCH  22  23
ENDBRANCH  21  22
ENDBRANCH  20  21
ENDBRANCH  19  20
ENDBRANCH  18  19
ENDBRANCH  17  18
ENDBRANCH  16  17
ENDBRANCH  15  16
ENDBRANCH  14  15
ENDBRANCH   9  14
ENDBRANCH   2   3
TORSDOF 14
ENDMDL
MODEL      261
REMARK 921   NORMALIZED FREE ENERGY PREDICTED BY IDOCK:   -3.20 KCAL/MOL
REMARK 922        TOTAL FREE ENERGY PREDICTED BY IDOCK:   -7.64 KCAL/MOL
REMARK 923 INTER-LIGAND FREE ENERGY PREDICTED BY IDOCK:   -6.25 KCAL/MOL
REMARK 924 INTRA-LIGAND FREE ENERGY PREDICTED BY IDOCK:   -1.39 KCAL/MOL
REMARK 927      BINDING AFFINITY PREDICTED BY RF-SCORE:    0.00 PKD
ROOT
HETATM    1  C   UNL     1      -8.195   6.135  64.290  1.00  0.00    -0.044 C  
HETATM    2  O   UNL     1      -7.781   7.123  65.224  1.00  0.00    -0.099 OA 
ENDROOT
BRANCH   2   3
HETATM    3  C   UNL     1      -8.440   8.350  65.171  1.00  0.00    -0.160 C  
HETATM    4  C   UNL     1      -9.381   8.610  66.097  1.00  0.00    -0.226 C  
HETATM    5  C   UNL     1     -10.111   9.911  66.035  1.00  0.00    -0.244 C  
HETATM    6  O   UNL     1      -7.140   9.329  63.404  1.00  0.00    -0.090 OA 
HETATM    7  O   UNL     1     -10.688  10.405  66.998  1.00  0.00    -0.261 OA 
HETATM    8  C   UNL     1      -8.160   9.348  64.084  1.00  0.00    -0.145 C  
HETATM    9  C   UNL     1     -10.161  10.596  64.712  1.00  0.00    -0.412 C  
HETATM   10  C   UNL     1      -9.095  11.037  62.461  1.00  0.00    -0.362 C  
HETATM   11  C   UNL     1      -9.211  10.354  63.795  1.00  0.00    -0.302 C  
BRANCH   4  12
HETATM   12  O   UNL     1      -9.625   7.656  67.084  1.00  0.00    -0.144 OA 
HETATM   13  C   UNL     1     -10.816   6.883  66.998  1.00  0.00    -0.366 C  
ENDBRANCH   4  12
BRANCH   9  14
HETATM   14  C   UNL     1     -11.325  11.516  64.510  1.00  0.00    -0.250 C  
BRANCH  14  15
HETATM   15  C   UNL     1     -10.914  12.987  64.405  1.00  0.00    -0.400 C  
BRANCH  15  16
HETATM   16  C   UNL     1      -9.833  13.346  65.424  1.00  0.00    -0.132 C  
BRANCH  16  17
HETATM   17  C   UNL     1     -10.420  13.524  66.820  1.00  0.00    -0.273 C  
BRANCH  17  18
HETATM   18  C   UNL     1     -11.464  14.624  66.866  1.00  0.00    -0.372 C  
BRANCH  18  19
HETATM   19  C   UNL     1     -11.842  14.888  68.318  1.00  0.00    -0.308 C  
BRANCH  19  20
HETATM   20  C   UNL     1     -11.028  16.040  68.878  1.00  0.00    -0.309 C  
BRANCH  20  21
HETATM   21  C   UNL     1     -10.776  17.087  67.803  1.00  0.00    -0.318 C  
BRANCH  21  22
HETATM   22  C   UNL     1      -9.327  17.548  67.855  1.00  0.00    -0.265 C  
BRANCH  22  23
HETATM   23  C   UNL     1      -8.397  16.380  68.160  1.00  0.00    -0.186 C  
BRANCH  23  24
HETATM   24  C   UNL     1      -7.495  16.089  66.969  1.00  0.00    -0.264 C  
BRANCH  24  25
HETATM   25  C   UNL     1      -6.126  16.725  67.149  1.00  0.00    -0.174 C  
HETATM   26  O   UNL     1      -6.080  17.963  66.455  1.00  0.00    -0.149 OA 
HETATM   27  H   UNL     1      -5.225  18.361  66.568  1.00  0.00     0.000 HD 
ENDBRANCH  24  25
ENDBRANCH  23  24
ENDBRANCH  22  23
ENDBRANCH  21  22
ENDBRANCH  20  21
ENDBRANCH  19  20
ENDBRANCH  18  19
ENDBRANCH  17  18
ENDBRANCH  16  17
ENDBRANCH  15  16
ENDBRANCH  14  15
ENDBRANCH   9  14
ENDBRANCH   2   3
TORSDOF 14
ENDMDL
MODEL      262
REMARK 921   NORMALIZED FREE ENERGY PREDICTED BY IDOCK:   -3.17 KCAL/MOL
REMARK 922        TOTAL FREE ENERGY PREDICTED BY IDOCK:   -7.59 KCAL/MOL
REMARK 923 INTER-LIGAND FREE ENERGY PREDICTED BY IDOCK:   -6.65 KCAL/MOL
REMARK 924 INTRA-LIGAND FREE ENERGY PREDICTED BY IDOCK:   -0.94 KCAL/MOL
REMARK 927      BINDING AFFINITY PREDICTED BY RF-SCORE:    0.00 PKD
ROOT
HETATM    1  C   UNL     1     -10.301  13.942  65.237  1.00  0.00    -0.378 C  
HETATM    2  O   UNL     1      -9.630  13.433  66.382  1.00  0.00    -0.269 OA 
ENDROOT
BRANCH   2   3
HETATM    3  C   UNL     1     -10.364  12.589  67.213  1.00  0.00    -0.220 C  
HETATM    4  C   UNL     1     -10.840  13.087  68.369  1.00  0.00    -0.258 C  
HETATM    5  C   UNL     1     -11.608  12.184  69.279  1.00  0.00    -0.318 C  
HETATM    6  O   UNL     1     -10.458  10.697  65.735  1.00  0.00    -0.232 OA 
HETATM    7  O   UNL     1     -12.384  12.595  70.134  1.00  0.00    -0.250 OA 
HETATM    8  C   UNL     1     -10.585  11.143  66.870  1.00  0.00    -0.258 C  
HETATM    9  C   UNL     1     -11.361  10.720  69.145  1.00  0.00    -0.348 C  
HETATM   10  C   UNL     1     -10.698   8.761  67.690  1.00  0.00    -0.206 C  
HETATM   11  C   UNL     1     -10.907  10.219  67.985  1.00  0.00    -0.325 C  
BRANCH   4  12
HETATM   12  O   UNL     1     -10.605  14.429  68.662  1.00  0.00    -0.238 OA 
HETATM   13  C   UNL     1     -11.652  15.365  68.434  1.00  0.00    -0.354 C  
ENDBRANCH   4  12
BRANCH   9  14
HETATM   14  C   UNL     1     -11.636   9.909  70.374  1.00  0.00    -0.356 C  
BRANCH  14  15
HETATM   15  C   UNL     1     -10.361   9.455  71.088  1.00  0.00    -0.377 C  
BRANCH  15  16
HETATM   16  C   UNL     1     -10.662   8.452  72.200  1.00  0.00    -0.407 C  
BRANCH  16  17
HETATM   17  C   UNL     1      -9.421   8.154  73.034  1.00  0.00    -0.333 C  
BRANCH  17  18
HETATM   18  C   UNL     1      -9.641   7.002  73.996  1.00  0.00    -0.308 C  
BRANCH  18  19
HETATM   19  C   UNL     1     -10.189   5.809  73.224  1.00  0.00    -0.217 C  
BRANCH  19  20
HETATM   20  C   UNL     1      -9.135   5.256  72.282  1.00  0.00    -0.149 C  
BRANCH  20  21
HETATM   21  C   UNL     1      -9.209   3.738  72.231  1.00  0.00    -0.163 C  
BRANCH  21  22
HETATM   22  C   UNL     1      -9.651   3.286  70.847  1.00  0.00    -0.234 C  
BRANCH  22  23
HETATM   23  C   UNL     1      -8.474   3.273  69.880  1.00  0.00    -0.092 C  
BRANCH  23  24
HETATM   24  C   UNL     1      -8.878   3.867  68.537  1.00  0.00    -0.148 C  
BRANCH  24  25
HETATM   25  C   UNL     1      -8.661   5.371  68.516  1.00  0.00    -0.098 C  
HETATM   26  O   UNL     1      -8.554   5.818  67.172  1.00  0.00    -0.111 OA 
HETATM   27  H   UNL     1      -8.419   6.759  67.158  1.00  0.00     0.000 HD 
ENDBRANCH  24  25
ENDBRANCH  23  24
ENDBRANCH  22  23
ENDBRANCH  21  22
ENDBRANCH  20  21
ENDBRANCH  19  20
ENDBRANCH  18  19
ENDBRANCH  17  18
ENDBRANCH  16  17
ENDBRANCH  15  16
ENDBRANCH  14  15
ENDBRANCH   9  14
ENDBRANCH   2   3
TORSDOF 14
ENDMDL
MODEL      263
REMARK 921   NORMALIZED FREE ENERGY PREDICTED BY IDOCK:   -3.16 KCAL/MOL
REMARK 922        TOTAL FREE ENERGY PREDICTED BY IDOCK:   -7.57 KCAL/MOL
REMARK 923 INTER-LIGAND FREE ENERGY PREDICTED BY IDOCK:   -6.70 KCAL/MOL
REMARK 924 INTRA-LIGAND FREE ENERGY PREDICTED BY IDOCK:   -0.87 KCAL/MOL
REMARK 927      BINDING AFFINITY PREDICTED BY RF-SCORE:    0.00 PKD
ROOT
HETATM    1  C   UNL     1      -5.316  19.255  66.342  1.00  0.00    -0.150 C  
HETATM    2  O   UNL     1      -5.854  19.246  67.657  1.00  0.00    -0.190 OA 
ENDROOT
BRANCH   2   3
HETATM    3  C   UNL     1      -7.109  18.661  67.816  1.00  0.00    -0.220 C  
HETATM    4  C   UNL     1      -7.177  17.428  68.348  1.00  0.00    -0.223 C  
HETATM    5  C   UNL     1      -8.516  16.782  68.499  1.00  0.00    -0.244 C  
HETATM    6  O   UNL     1      -8.426  20.561  67.157  1.00  0.00    -0.336 OA 
HETATM    7  O   UNL     1      -8.735  15.866  69.285  1.00  0.00    -0.246 OA 
HETATM    8  C   UNL     1      -8.363  19.353  67.362  1.00  0.00    -0.292 C  
HETATM    9  C   UNL     1      -9.606  17.267  67.606  1.00  0.00    -0.256 C  
HETATM   10  C   UNL     1     -10.618  19.147  66.250  1.00  0.00    -0.521 C  
HETATM   11  C   UNL     1      -9.551  18.506  67.092  1.00  0.00    -0.302 C  
BRANCH   4  12
HETATM   12  O   UNL     1      -5.993  16.809  68.746  1.00  0.00    -0.140 OA 
HETATM   13  C   UNL     1      -5.465  15.770  67.930  1.00  0.00    -0.135 C  
ENDBRANCH   4  12
BRANCH   9  14
HETATM   14  C   UNL     1     -10.700  16.281  67.336  1.00  0.00    -0.287 C  
BRANCH  14  15
HETATM   15  C   UNL     1     -10.299  15.205  66.324  1.00  0.00    -0.303 C  
BRANCH  15  16
HETATM   16  C   UNL     1     -11.465  14.825  65.412  1.00  0.00    -0.341 C  
BRANCH  16  17
HETATM   17  C   UNL     1     -12.116  13.520  65.854  1.00  0.00    -0.477 C  
BRANCH  17  18
HETATM   18  C   UNL     1     -11.427  12.306  65.260  1.00  0.00    -0.399 C  
BRANCH  18  19
HETATM   19  C   UNL     1     -11.178  11.287  66.365  1.00  0.00    -0.190 C  
BRANCH  19  20
HETATM   20  C   UNL     1      -9.749  10.778  66.305  1.00  0.00    -0.248 C  
BRANCH  20  21
HETATM   21  C   UNL     1      -8.792  11.807  66.888  1.00  0.00    -0.191 C  
BRANCH  21  22
HETATM   22  C   UNL     1      -7.932  11.165  67.966  1.00  0.00    -0.117 C  
BRANCH  22  23
HETATM   23  C   UNL     1      -8.761  10.849  69.205  1.00  0.00    -0.055 C  
BRANCH  23  24
HETATM   24  C   UNL     1      -9.034   9.354  69.298  1.00  0.00    -0.154 C  
BRANCH  24  25
HETATM   25  C   UNL     1     -10.526   9.066  69.269  1.00  0.00    -0.228 C  
HETATM   26  O   UNL     1     -10.899   8.607  67.978  1.00  0.00    -0.458 OA 
HETATM   27  H   UNL     1     -11.832   8.427  67.960  1.00  0.00     0.000 HD 
ENDBRANCH  24  25
ENDBRANCH  23  24
ENDBRANCH  22  23
ENDBRANCH  21  22
ENDBRANCH  20  21
ENDBRANCH  19  20
ENDBRANCH  18  19
ENDBRANCH  17  18
ENDBRANCH  16  17
ENDBRANCH  15  16
ENDBRANCH  14  15
ENDBRANCH   9  14
ENDBRANCH   2   3
TORSDOF 14
ENDMDL
MODEL      264
REMARK 921   NORMALIZED FREE ENERGY PREDICTED BY IDOCK:   -3.15 KCAL/MOL
REMARK 922        TOTAL FREE ENERGY PREDICTED BY IDOCK:   -7.55 KCAL/MOL
REMARK 923 INTER-LIGAND FREE ENERGY PREDICTED BY IDOCK:   -5.16 KCAL/MOL
REMARK 924 INTRA-LIGAND FREE ENERGY PREDICTED BY IDOCK:   -2.39 KCAL/MOL
REMARK 927      BINDING AFFINITY PREDICTED BY RF-SCORE:    0.00 PKD
ROOT
HETATM    1  C   UNL     1      -7.435   4.345  65.371  1.00  0.00    -0.080 C  
HETATM    2  O   UNL     1      -8.386   5.401  65.349  1.00  0.00    -0.126 OA 
ENDROOT
BRANCH   2   3
HETATM    3  C   UNL     1      -8.473   6.189  66.495  1.00  0.00    -0.119 C  
HETATM    4  C   UNL     1      -7.805   7.357  66.520  1.00  0.00    -0.098 C  
HETATM    5  C   UNL     1      -7.871   8.197  67.753  1.00  0.00    -0.118 C  
HETATM    6  O   UNL     1     -10.105   4.867  67.662  1.00  0.00    -0.162 OA 
HETATM    7  O   UNL     1      -7.635   9.401  67.759  1.00  0.00    -0.087 OA 
HETATM    8  C   UNL     1      -9.244   5.740  67.703  1.00  0.00    -0.105 C  
HETATM    9  C   UNL     1      -8.199   7.501  69.029  1.00  0.00    -0.128 C  
HETATM   10  C   UNL     1      -9.351   5.590  70.218  1.00  0.00    -0.194 C  
HETATM   11  C   UNL     1      -8.884   6.347  69.008  1.00  0.00    -0.129 C  
BRANCH   4  12
HETATM   12  O   UNL     1      -7.088   7.738  65.386  1.00  0.00    -0.058 OA 
HETATM   13  C   UNL     1      -7.776   8.426  64.349  1.00  0.00    -0.133 C  
ENDBRANCH   4  12
BRANCH   9  14
HETATM   14  C   UNL     1      -7.696   8.170  70.271  1.00  0.00    -0.085 C  
BRANCH  14  15
HETATM   15  C   UNL     1      -6.456   7.490  70.857  1.00  0.00    -0.039 C  
BRANCH  15  16
HETATM   16  C   UNL     1      -6.636   7.165  72.339  1.00  0.00    -0.056 C  
BRANCH  16  17
HETATM   17  C   UNL     1      -7.899   7.808  72.901  1.00  0.00    -0.151 C  
BRANCH  17  18
HETATM   18  C   UNL     1      -8.652   6.873  73.829  1.00  0.00    -0.165 C  
BRANCH  18  19
HETATM   19  C   UNL     1     -10.147   7.019  73.574  1.00  0.00    -0.348 C  
BRANCH  19  20
HETATM   20  C   UNL     1     -10.415   8.191  72.648  1.00  0.00    -0.401 C  
BRANCH  20  21
HETATM   21  C   UNL     1     -11.906   8.323  72.373  1.00  0.00    -0.461 C  
BRANCH  21  22
HETATM   22  C   UNL     1     -12.148   9.391  71.317  1.00  0.00    -0.424 C  
BRANCH  22  23
HETATM   23  C   UNL     1     -10.939   9.531  70.401  1.00  0.00    -0.333 C  
BRANCH  23  24
HETATM   24  C   UNL     1     -11.018  10.826  69.605  1.00  0.00    -0.320 C  
BRANCH  24  25
HETATM   25  C   UNL     1     -12.104  11.739  70.150  1.00  0.00    -0.317 C  
HETATM   26  O   UNL     1     -11.573  13.039  70.363  1.00  0.00    -0.525 OA 
HETATM   27  H   UNL     1     -12.252  13.610  70.703  1.00  0.00     0.000 HD 
ENDBRANCH  24  25
ENDBRANCH  23  24
ENDBRANCH  22  23
ENDBRANCH  21  22
ENDBRANCH  20  21
ENDBRANCH  19  20
ENDBRANCH  18  19
ENDBRANCH  17  18
ENDBRANCH  16  17
ENDBRANCH  15  16
ENDBRANCH  14  15
ENDBRANCH   9  14
ENDBRANCH   2   3
TORSDOF 14
ENDMDL
MODEL      265
REMARK 921   NORMALIZED FREE ENERGY PREDICTED BY IDOCK:   -3.15 KCAL/MOL
REMARK 922        TOTAL FREE ENERGY PREDICTED BY IDOCK:   -7.55 KCAL/MOL
REMARK 923 INTER-LIGAND FREE ENERGY PREDICTED BY IDOCK:   -6.16 KCAL/MOL
REMARK 924 INTRA-LIGAND FREE ENERGY PREDICTED BY IDOCK:   -1.38 KCAL/MOL
REMARK 927      BINDING AFFINITY PREDICTED BY RF-SCORE:    0.00 PKD
ROOT
HETATM    1  C   UNL     1      -8.219   6.430  64.774  1.00  0.00    -0.092 C  
HETATM    2  O   UNL     1      -7.894   7.543  65.596  1.00  0.00    -0.097 OA 
ENDROOT
BRANCH   2   3
HETATM    3  C   UNL     1      -8.630   8.709  65.390  1.00  0.00    -0.181 C  
HETATM    4  C   UNL     1      -9.691   8.944  66.182  1.00  0.00    -0.268 C  
HETATM    5  C   UNL     1     -10.501  10.178  65.954  1.00  0.00    -0.071 C  
HETATM    6  O   UNL     1      -7.200   9.691  63.726  1.00  0.00    -0.105 OA 
HETATM    7  O   UNL     1     -11.223  10.676  66.810  1.00  0.00    -0.191 OA 
HETATM    8  C   UNL     1      -8.293   9.666  64.282  1.00  0.00    -0.168 C  
HETATM    9  C   UNL     1     -10.440  10.784  64.593  1.00  0.00    -0.346 C  
HETATM   10  C   UNL     1      -9.146  11.185  62.458  1.00  0.00    -0.347 C  
HETATM   11  C   UNL     1      -9.372  10.569  63.810  1.00  0.00    -0.319 C  
BRANCH   4  12
HETATM   12  O   UNL     1      -9.983   8.028  67.193  1.00  0.00    -0.187 OA 
HETATM   13  C   UNL     1     -11.036   7.096  66.978  1.00  0.00    -0.234 C  
ENDBRANCH   4  12
BRANCH   9  14
HETATM   14  C   UNL     1     -11.635  11.597  64.200  1.00  0.00    -0.342 C  
BRANCH  14  15
HETATM   15  C   UNL     1     -11.325  13.090  64.066  1.00  0.00    -0.458 C  
BRANCH  15  16
HETATM   16  C   UNL     1     -10.582  13.625  65.290  1.00  0.00    -0.354 C  
BRANCH  16  17
HETATM   17  C   UNL     1     -11.543  13.957  66.425  1.00  0.00    -0.382 C  
BRANCH  17  18
HETATM   18  C   UNL     1     -10.835  14.062  67.762  1.00  0.00    -0.257 C  
BRANCH  18  19
HETATM   19  C   UNL     1     -11.841  14.488  68.824  1.00  0.00    -0.350 C  
BRANCH  19  20
HETATM   20  C   UNL     1     -12.325  13.283  69.610  1.00  0.00    -0.154 C  
BRANCH  20  21
HETATM   21  C   UNL     1     -11.161  12.365  69.950  1.00  0.00     0.067 C  
BRANCH  21  22
HETATM   22  C   UNL     1     -11.663  10.944  70.156  1.00  0.00    -0.433 C  
BRANCH  22  23
HETATM   23  C   UNL     1     -10.608   9.930  69.735  1.00  0.00    -0.296 C  
BRANCH  23  24
HETATM   24  C   UNL     1      -9.870   9.388  70.951  1.00  0.00    -0.338 C  
BRANCH  24  25
HETATM   25  C   UNL     1      -8.701   8.509  70.538  1.00  0.00    -0.152 C  
HETATM   26  O   UNL     1      -8.193   8.948  69.286  1.00  0.00    -0.110 OA 
HETATM   27  H   UNL     1      -7.462   8.399  69.028  1.00  0.00     0.000 HD 
ENDBRANCH  24  25
ENDBRANCH  23  24
ENDBRANCH  22  23
ENDBRANCH  21  22
ENDBRANCH  20  21
ENDBRANCH  19  20
ENDBRANCH  18  19
ENDBRANCH  17  18
ENDBRANCH  16  17
ENDBRANCH  15  16
ENDBRANCH  14  15
ENDBRANCH   9  14
ENDBRANCH   2   3
TORSDOF 14
ENDMDL
MODEL      266
REMARK 921   NORMALIZED FREE ENERGY PREDICTED BY IDOCK:   -3.13 KCAL/MOL
REMARK 922        TOTAL FREE ENERGY PREDICTED BY IDOCK:   -7.52 KCAL/MOL
REMARK 923 INTER-LIGAND FREE ENERGY PREDICTED BY IDOCK:   -6.21 KCAL/MOL
REMARK 924 INTRA-LIGAND FREE ENERGY PREDICTED BY IDOCK:   -1.30 KCAL/MOL
REMARK 927      BINDING AFFINITY PREDICTED BY RF-SCORE:    0.00 PKD
ROOT
HETATM    1  C   UNL     1     -12.619  13.562  66.946  1.00  0.00     0.087 C  
HETATM    2  O   UNL     1     -11.853  13.737  68.130  1.00  0.00    -0.343 OA 
ENDROOT
BRANCH   2   3
HETATM    3  C   UNL     1     -11.235  12.601  68.650  1.00  0.00    -0.282 C  
HETATM    4  C   UNL     1     -10.167  12.102  68.002  1.00  0.00    -0.201 C  
HETATM    5  C   UNL     1      -9.513  10.870  68.536  1.00  0.00    -0.185 C  
HETATM    6  O   UNL     1     -12.518  12.444  70.675  1.00  0.00    -0.315 OA 
HETATM    7  O   UNL     1      -8.358  10.554  68.272  1.00  0.00    -0.114 OA 
HETATM    8  C   UNL     1     -11.765  11.905  69.872  1.00  0.00    -0.308 C  
HETATM    9  C   UNL     1     -10.345   9.979  69.393  1.00  0.00    -0.245 C  
HETATM   10  C   UNL     1     -12.266   9.715  71.017  1.00  0.00    -0.409 C  
HETATM   11  C   UNL     1     -11.398  10.480  70.058  1.00  0.00    -0.392 C  
BRANCH   4  12
HETATM   12  O   UNL     1      -9.709  12.764  66.863  1.00  0.00    -0.222 OA 
HETATM   13  C   UNL     1      -8.698  13.752  67.016  1.00  0.00    -0.198 C  
ENDBRANCH   4  12
BRANCH   9  14
HETATM   14  C   UNL     1      -9.926   8.542  69.422  1.00  0.00    -0.194 C  
BRANCH  14  15
HETATM   15  C   UNL     1     -10.499   7.728  68.260  1.00  0.00    -0.215 C  
BRANCH  15  16
HETATM   16  C   UNL     1     -11.064   6.389  68.731  1.00  0.00    -0.404 C  
BRANCH  16  17
HETATM   17  C   UNL     1      -9.968   5.338  68.868  1.00  0.00    -0.250 C  
BRANCH  17  18
HETATM   18  C   UNL     1      -9.823   4.845  70.295  1.00  0.00    -0.306 C  
BRANCH  18  19
HETATM   19  C   UNL     1     -10.805   5.598  71.183  1.00  0.00    -0.288 C  
BRANCH  19  20
HETATM   20  C   UNL     1     -10.687   5.130  72.622  1.00  0.00    -0.291 C  
BRANCH  20  21
HETATM   21  C   UNL     1     -10.835   6.303  73.578  1.00  0.00    -0.199 C  
BRANCH  21  22
HETATM   22  C   UNL     1      -9.470   6.724  74.101  1.00  0.00    -0.268 C  
BRANCH  22  23
HETATM   23  C   UNL     1      -9.024   8.032  73.460  1.00  0.00    -0.327 C  
BRANCH  23  24
HETATM   24  C   UNL     1      -7.658   8.448  73.990  1.00  0.00    -0.200 C  
BRANCH  24  25
HETATM   25  C   UNL     1      -6.603   8.380  72.899  1.00  0.00    -0.092 C  
HETATM   26  O   UNL     1      -5.315   8.564  73.469  1.00  0.00    -0.056 OA 
HETATM   27  H   UNL     1      -4.654   8.521  72.787  1.00  0.00     0.000 HD 
ENDBRANCH  24  25
ENDBRANCH  23  24
ENDBRANCH  22  23
ENDBRANCH  21  22
ENDBRANCH  20  21
ENDBRANCH  19  20
ENDBRANCH  18  19
ENDBRANCH  17  18
ENDBRANCH  16  17
ENDBRANCH  15  16
ENDBRANCH  14  15
ENDBRANCH   9  14
ENDBRANCH   2   3
TORSDOF 14
ENDMDL
MODEL      267
REMARK 921   NORMALIZED FREE ENERGY PREDICTED BY IDOCK:   -3.12 KCAL/MOL
REMARK 922        TOTAL FREE ENERGY PREDICTED BY IDOCK:   -7.50 KCAL/MOL
REMARK 923 INTER-LIGAND FREE ENERGY PREDICTED BY IDOCK:   -5.89 KCAL/MOL
REMARK 924 INTRA-LIGAND FREE ENERGY PREDICTED BY IDOCK:   -1.61 KCAL/MOL
REMARK 927      BINDING AFFINITY PREDICTED BY RF-SCORE:    0.00 PKD
ROOT
HETATM    1  C   UNL     1     -10.339  16.572  65.646  1.00  0.00    -0.322 C  
HETATM    2  O   UNL     1     -11.452  16.243  66.467  1.00  0.00     0.302 OA 
ENDROOT
BRANCH   2   3
HETATM    3  C   UNL     1     -11.606  14.900  66.804  1.00  0.00    -0.269 C  
HETATM    4  C   UNL     1     -11.310  14.518  68.060  1.00  0.00    -0.306 C  
HETATM    5  C   UNL     1     -11.448  13.076  68.425  1.00  0.00    -0.310 C  
HETATM    6  O   UNL     1     -12.606  14.172  64.744  1.00  0.00    -0.608 OA 
HETATM    7  O   UNL     1     -11.574  12.684  69.580  1.00  0.00    -0.287 OA 
HETATM    8  C   UNL     1     -12.039  13.878  65.791  1.00  0.00    -0.425 C  
HETATM    9  C   UNL     1     -11.380  12.087  67.312  1.00  0.00    -0.394 C  
HETATM   10  C   UNL     1     -11.751  11.549  64.869  1.00  0.00     0.021 C  
HETATM   11  C   UNL     1     -11.696  12.461  66.062  1.00  0.00    -0.469 C  
BRANCH   4  12
HETATM   12  O   UNL     1     -10.897  15.489  68.971  1.00  0.00    -0.227 OA 
HETATM   13  C   UNL     1      -9.505  15.629  69.227  1.00  0.00    -0.264 C  
ENDBRANCH   4  12
BRANCH   9  14
HETATM   14  C   UNL     1     -10.928  10.714  67.701  1.00  0.00    -0.370 C  
BRANCH  14  15
HETATM   15  C   UNL     1      -9.530  10.698  68.325  1.00  0.00    -0.161 C  
BRANCH  15  16
HETATM   16  C   UNL     1      -8.476  10.194  67.339  1.00  0.00    -0.122 C  
BRANCH  16  17
HETATM   17  C   UNL     1      -7.065  10.471  67.842  1.00  0.00    -0.083 C  
BRANCH  17  18
HETATM   18  C   UNL     1      -7.057  11.399  69.042  1.00  0.00    -0.117 C  
BRANCH  18  19
HETATM   19  C   UNL     1      -6.551  10.634  70.258  1.00  0.00    -0.127 C  
BRANCH  19  20
HETATM   20  C   UNL     1      -6.161   9.219  69.870  1.00  0.00    -0.038 C  
BRANCH  20  21
HETATM   21  C   UNL     1      -6.746   8.216  70.853  1.00  0.00    -0.038 C  
BRANCH  21  22
HETATM   22  C   UNL     1      -7.970   7.547  70.245  1.00  0.00    -0.103 C  
BRANCH  22  23
HETATM   23  C   UNL     1      -9.252   8.188  70.763  1.00  0.00    -0.165 C  
BRANCH  23  24
HETATM   24  C   UNL     1     -10.061   7.186  71.573  1.00  0.00    -0.197 C  
BRANCH  24  25
HETATM   25  C   UNL     1     -10.958   6.351  70.675  1.00  0.00    -0.298 C  
HETATM   26  O   UNL     1     -12.258   6.922  70.633  1.00  0.00    -0.516 OA 
HETATM   27  H   UNL     1     -12.819   6.400  70.071  1.00  0.00     0.000 HD 
ENDBRANCH  24  25
ENDBRANCH  23  24
ENDBRANCH  22  23
ENDBRANCH  21  22
ENDBRANCH  20  21
ENDBRANCH  19  20
ENDBRANCH  18  19
ENDBRANCH  17  18
ENDBRANCH  16  17
ENDBRANCH  15  16
ENDBRANCH  14  15
ENDBRANCH   9  14
ENDBRANCH   2   3
TORSDOF 14
ENDMDL
MODEL      268
REMARK 921   NORMALIZED FREE ENERGY PREDICTED BY IDOCK:   -3.12 KCAL/MOL
REMARK 922        TOTAL FREE ENERGY PREDICTED BY IDOCK:   -7.50 KCAL/MOL
REMARK 923 INTER-LIGAND FREE ENERGY PREDICTED BY IDOCK:   -5.97 KCAL/MOL
REMARK 924 INTRA-LIGAND FREE ENERGY PREDICTED BY IDOCK:   -1.53 KCAL/MOL
REMARK 927      BINDING AFFINITY PREDICTED BY RF-SCORE:    0.00 PKD
ROOT
HETATM    1  C   UNL     1     -10.426  16.907  68.795  1.00  0.00    -0.343 C  
HETATM    2  O   UNL     1     -10.121  16.600  67.441  1.00  0.00    -0.261 OA 
ENDROOT
BRANCH   2   3
HETATM    3  C   UNL     1      -9.328  15.475  67.218  1.00  0.00    -0.212 C  
HETATM    4  C   UNL     1      -9.939  14.300  66.982  1.00  0.00    -0.258 C  
HETATM    5  C   UNL     1      -9.099  13.083  66.767  1.00  0.00    -0.210 C  
HETATM    6  O   UNL     1      -7.201  16.591  67.193  1.00  0.00    -0.149 OA 
HETATM    7  O   UNL     1      -9.505  12.080  66.190  1.00  0.00    -0.232 OA 
HETATM    8  C   UNL     1      -7.829  15.542  67.287  1.00  0.00    -0.204 C  
HETATM    9  C   UNL     1      -7.720  13.104  67.332  1.00  0.00    -0.151 C  
HETATM   10  C   UNL     1      -5.688  14.437  68.030  1.00  0.00    -0.139 C  
HETATM   11  C   UNL     1      -7.101  14.276  67.547  1.00  0.00    -0.189 C  
BRANCH   4  12
HETATM   12  O   UNL     1     -11.332  14.270  66.938  1.00  0.00    -0.317 OA 
HETATM   13  C   UNL     1     -12.031  13.669  68.022  1.00  0.00    -0.350 C  
ENDBRANCH   4  12
BRANCH   9  14
HETATM   14  C   UNL     1      -7.132  11.762  67.639  1.00  0.00    -0.107 C  
BRANCH  14  15
HETATM   15  C   UNL     1      -7.255  11.379  69.116  1.00  0.00    -0.102 C  
BRANCH  15  16
HETATM   16  C   UNL     1      -8.118  10.132  69.307  1.00  0.00    -0.149 C  
BRANCH  16  17
HETATM   17  C   UNL     1      -9.602  10.478  69.325  1.00  0.00    -0.199 C  
BRANCH  17  18
HETATM   18  C   UNL     1     -10.412   9.574  68.416  1.00  0.00    -0.261 C  
BRANCH  18  19
HETATM   19  C   UNL     1     -11.002   8.439  69.242  1.00  0.00     0.028 C  
BRANCH  19  20
HETATM   20  C   UNL     1     -10.403   7.109  68.822  1.00  0.00    -0.200 C  
BRANCH  20  21
HETATM   21  C   UNL     1     -10.744   6.026  69.835  1.00  0.00    -0.393 C  
BRANCH  21  22
HETATM   22  C   UNL     1     -11.811   6.530  70.795  1.00  0.00    -0.394 C  
BRANCH  22  23
HETATM   23  C   UNL     1     -11.367   6.354  72.241  1.00  0.00    -0.330 C  
BRANCH  23  24
HETATM   24  C   UNL     1     -10.966   7.693  72.844  1.00  0.00    -0.456 C  
BRANCH  24  25
HETATM   25  C   UNL     1      -9.482   7.726  73.169  1.00  0.00    -0.264 C  
HETATM   26  O   UNL     1      -8.943   6.416  73.073  1.00  0.00    -0.130 OA 
HETATM   27  H   UNL     1      -8.015   6.436  73.275  1.00  0.00     0.000 HD 
ENDBRANCH  24  25
ENDBRANCH  23  24
ENDBRANCH  22  23
ENDBRANCH  21  22
ENDBRANCH  20  21
ENDBRANCH  19  20
ENDBRANCH  18  19
ENDBRANCH  17  18
ENDBRANCH  16  17
ENDBRANCH  15  16
ENDBRANCH  14  15
ENDBRANCH   9  14
ENDBRANCH   2   3
TORSDOF 14
ENDMDL
MODEL      269
REMARK 921   NORMALIZED FREE ENERGY PREDICTED BY IDOCK:   -3.12 KCAL/MOL
REMARK 922        TOTAL FREE ENERGY PREDICTED BY IDOCK:   -7.49 KCAL/MOL
REMARK 923 INTER-LIGAND FREE ENERGY PREDICTED BY IDOCK:   -6.46 KCAL/MOL
REMARK 924 INTRA-LIGAND FREE ENERGY PREDICTED BY IDOCK:   -1.03 KCAL/MOL
REMARK 927      BINDING AFFINITY PREDICTED BY RF-SCORE:    0.00 PKD
ROOT
HETATM    1  C   UNL     1      -7.669   3.253  67.842  1.00  0.00    -0.064 C  
HETATM    2  O   UNL     1      -8.990   3.754  67.998  1.00  0.00    -0.106 OA 
ENDROOT
BRANCH   2   3
HETATM    3  C   UNL     1      -9.117   5.124  68.223  1.00  0.00    -0.112 C  
HETATM    4  C   UNL     1      -9.531   5.902  67.207  1.00  0.00    -0.114 C  
HETATM    5  C   UNL     1      -9.647   7.375  67.430  1.00  0.00    -0.148 C  
HETATM    6  O   UNL     1      -8.667   5.097  70.583  1.00  0.00    -0.122 OA 
HETATM    7  O   UNL     1     -10.346   8.107  66.738  1.00  0.00    -0.311 OA 
HETATM    8  C   UNL     1      -8.755   5.742  69.544  1.00  0.00    -0.111 C  
HETATM    9  C   UNL     1      -8.825   7.959  68.528  1.00  0.00    -0.134 C  
HETATM   10  C   UNL     1      -7.674   7.668  70.761  1.00  0.00    -0.085 C  
HETATM   11  C   UNL     1      -8.430   7.189  69.553  1.00  0.00    -0.134 C  
BRANCH   4  12
HETATM   12  O   UNL     1      -9.845   5.298  65.991  1.00  0.00    -0.164 OA 
HETATM   13  C   UNL     1      -8.827   5.195  65.003  1.00  0.00    -0.134 C  
ENDBRANCH   4  12
BRANCH   9  14
HETATM   14  C   UNL     1      -8.484   9.409  68.371  1.00  0.00    -0.120 C  
BRANCH  14  15
HETATM   15  C   UNL     1      -9.529  10.340  68.992  1.00  0.00    -0.206 C  
BRANCH  15  16
HETATM   16  C   UNL     1      -9.594  11.682  68.264  1.00  0.00    -0.198 C  
BRANCH  16  17
HETATM   17  C   UNL     1     -10.332  11.561  66.936  1.00  0.00    -0.258 C  
BRANCH  17  18
HETATM   18  C   UNL     1     -11.692  12.231  66.974  1.00  0.00    -0.399 C  
BRANCH  18  19
HETATM   19  C   UNL     1     -11.887  12.882  68.337  1.00  0.00    -0.357 C  
BRANCH  19  20
HETATM   20  C   UNL     1     -11.907  14.394  68.205  1.00  0.00    -0.362 C  
BRANCH  20  21
HETATM   21  C   UNL     1     -11.247  15.044  69.412  1.00  0.00    -0.299 C  
BRANCH  21  22
HETATM   22  C   UNL     1     -11.932  14.583  70.689  1.00  0.00    -0.387 C  
BRANCH  22  23
HETATM   23  C   UNL     1     -13.156  15.439  70.988  1.00  0.00    -0.565 C  
BRANCH  23  24
HETATM   24  C   UNL     1     -13.409  15.505  72.488  1.00  0.00    -0.591 C  
BRANCH  24  25
HETATM   25  C   UNL     1     -12.488  14.559  73.242  1.00  0.00    -0.258 C  
HETATM   26  O   UNL     1     -12.286  15.042  74.562  1.00  0.00    -0.727 OA 
HETATM   27  H   UNL     1     -11.710  14.451  75.034  1.00  0.00     0.000 HD 
ENDBRANCH  24  25
ENDBRANCH  23  24
ENDBRANCH  22  23
ENDBRANCH  21  22
ENDBRANCH  20  21
ENDBRANCH  19  20
ENDBRANCH  18  19
ENDBRANCH  17  18
ENDBRANCH  16  17
ENDBRANCH  15  16
ENDBRANCH  14  15
ENDBRANCH   9  14
ENDBRANCH   2   3
TORSDOF 14
ENDMDL
MODEL      270
REMARK 921   NORMALIZED FREE ENERGY PREDICTED BY IDOCK:   -3.10 KCAL/MOL
REMARK 922        TOTAL FREE ENERGY PREDICTED BY IDOCK:   -7.46 KCAL/MOL
REMARK 923 INTER-LIGAND FREE ENERGY PREDICTED BY IDOCK:   -4.81 KCAL/MOL
REMARK 924 INTRA-LIGAND FREE ENERGY PREDICTED BY IDOCK:   -2.65 KCAL/MOL
REMARK 927      BINDING AFFINITY PREDICTED BY RF-SCORE:    0.00 PKD
ROOT
HETATM    1  C   UNL     1     -10.827   4.993  66.095  1.00  0.00    -0.095 C  
HETATM    2  O   UNL     1     -10.701   6.315  66.603  1.00  0.00    -0.264 OA 
ENDROOT
BRANCH   2   3
HETATM    3  C   UNL     1      -9.476   6.651  67.174  1.00  0.00    -0.136 C  
HETATM    4  C   UNL     1      -9.436   6.910  68.494  1.00  0.00    -0.133 C  
HETATM    5  C   UNL     1      -8.132   7.296  69.112  1.00  0.00    -0.121 C  
HETATM    6  O   UNL     1      -8.111   6.278  65.233  1.00  0.00    -0.120 OA 
HETATM    7  O   UNL     1      -7.898   7.187  70.311  1.00  0.00    -0.100 OA 
HETATM    8  C   UNL     1      -8.229   6.777  66.346  1.00  0.00    -0.117 C  
HETATM    9  C   UNL     1      -7.101   7.881  68.208  1.00  0.00    -0.088 C  
HETATM   10  C   UNL     1      -6.104   8.058  65.891  1.00  0.00    -0.038 C  
HETATM   11  C   UNL     1      -7.126   7.605  66.895  1.00  0.00    -0.084 C  
BRANCH   4  12
HETATM   12  O   UNL     1     -10.615   6.797  69.230  1.00  0.00    -0.205 OA 
HETATM   13  C   UNL     1     -10.794   5.647  70.047  1.00  0.00    -0.296 C  
ENDBRANCH   4  12
BRANCH   9  14
HETATM   14  C   UNL     1      -6.100   8.775  68.872  1.00  0.00    -0.044 C  
BRANCH  14  15
HETATM   15  C   UNL     1      -6.616  10.201  69.077  1.00  0.00    -0.053 C  
BRANCH  15  16
HETATM   16  C   UNL     1      -5.805  11.218  68.274  1.00  0.00    -0.045 C  
BRANCH  16  17
HETATM   17  C   UNL     1      -6.513  11.598  66.980  1.00  0.00    -0.148 C  
BRANCH  17  18
HETATM   18  C   UNL     1      -8.023  11.561  67.121  1.00  0.00    -0.160 C  
BRANCH  18  19
HETATM   19  C   UNL     1      -8.613  10.794  65.945  1.00  0.00    -0.182 C  
BRANCH  19  20
HETATM   20  C   UNL     1      -9.965  10.213  66.314  1.00  0.00    -0.304 C  
BRANCH  20  21
HETATM   21  C   UNL     1     -10.246  10.414  67.795  1.00  0.00    -0.229 C  
BRANCH  21  22
HETATM   22  C   UNL     1     -11.623  11.032  67.984  1.00  0.00    -0.326 C  
BRANCH  22  23
HETATM   23  C   UNL     1     -11.694  12.408  67.334  1.00  0.00    -0.417 C  
BRANCH  23  24
HETATM   24  C   UNL     1     -11.826  13.494  68.393  1.00  0.00    -0.408 C  
BRANCH  24  25
HETATM   25  C   UNL     1     -10.475  14.111  68.716  1.00  0.00    -0.247 C  
HETATM   26  O   UNL     1     -10.532  14.748  69.984  1.00  0.00    -0.452 OA 
HETATM   27  H   UNL     1      -9.688  15.134  70.187  1.00  0.00     0.000 HD 
ENDBRANCH  24  25
ENDBRANCH  23  24
ENDBRANCH  22  23
ENDBRANCH  21  22
ENDBRANCH  20  21
ENDBRANCH  19  20
ENDBRANCH  18  19
ENDBRANCH  17  18
ENDBRANCH  16  17
ENDBRANCH  15  16
ENDBRANCH  14  15
ENDBRANCH   9  14
ENDBRANCH   2   3
TORSDOF 14
ENDMDL
MODEL      271
REMARK 921   NORMALIZED FREE ENERGY PREDICTED BY IDOCK:   -3.10 KCAL/MOL
REMARK 922        TOTAL FREE ENERGY PREDICTED BY IDOCK:   -7.45 KCAL/MOL
REMARK 923 INTER-LIGAND FREE ENERGY PREDICTED BY IDOCK:   -6.01 KCAL/MOL
REMARK 924 INTRA-LIGAND FREE ENERGY PREDICTED BY IDOCK:   -1.44 KCAL/MOL
REMARK 927      BINDING AFFINITY PREDICTED BY RF-SCORE:    0.00 PKD
ROOT
HETATM    1  C   UNL     1      -9.232   3.939  68.865  1.00  0.00    -0.152 C  
HETATM    2  O   UNL     1      -8.719   5.094  69.516  1.00  0.00    -0.097 OA 
ENDROOT
BRANCH   2   3
HETATM    3  C   UNL     1      -9.610   6.147  69.716  1.00  0.00    -0.150 C  
HETATM    4  C   UNL     1      -9.718   7.084  68.757  1.00  0.00    -0.143 C  
HETATM    5  C   UNL     1     -10.652   8.230  68.973  1.00  0.00    -0.150 C  
HETATM    6  O   UNL     1     -10.592   5.343  71.757  1.00  0.00    -0.224 OA 
HETATM    7  O   UNL     1     -11.105   8.908  68.057  1.00  0.00     0.018 OA 
HETATM    8  C   UNL     1     -10.401   6.278  70.987  1.00  0.00    -0.211 C  
HETATM    9  C   UNL     1     -10.995   8.567  70.383  1.00  0.00    -0.254 C  
HETATM   10  C   UNL     1     -11.304   7.809  72.776  1.00  0.00    -0.446 C  
HETATM   11  C   UNL     1     -10.909   7.627  71.338  1.00  0.00    -0.250 C  
BRANCH   4  12
HETATM   12  O   UNL     1      -8.959   6.938  67.596  1.00  0.00    -0.118 OA 
HETATM   13  C   UNL     1      -7.826   7.779  67.419  1.00  0.00    -0.118 C  
ENDBRANCH   4  12
BRANCH   9  14
HETATM   14  C   UNL     1     -11.403   9.988  70.621  1.00  0.00    -0.425 C  
BRANCH  14  15
HETATM   15  C   UNL     1     -12.919  10.167  70.715  1.00  0.00    -0.380 C  
BRANCH  15  16
HETATM   16  C   UNL     1     -13.295  11.351  71.606  1.00  0.00    -0.288 C  
BRANCH  16  17
HETATM   17  C   UNL     1     -12.287  12.487  71.478  1.00  0.00     0.067 C  
BRANCH  17  18
HETATM   18  C   UNL     1     -12.951  13.805  71.127  1.00  0.00    -0.370 C  
BRANCH  18  19
HETATM   19  C   UNL     1     -12.641  14.145  69.675  1.00  0.00    -0.084 C  
BRANCH  19  20
HETATM   20  C   UNL     1     -11.474  13.314  69.173  1.00  0.00    -0.357 C  
BRANCH  20  21
HETATM   21  C   UNL     1     -11.877  12.521  67.939  1.00  0.00    -0.383 C  
BRANCH  21  22
HETATM   22  C   UNL     1     -11.040  12.957  66.745  1.00  0.00    -0.315 C  
BRANCH  22  23
HETATM   23  C   UNL     1     -10.343  14.282  67.026  1.00  0.00    -0.267 C  
BRANCH  23  24
HETATM   24  C   UNL     1     -11.024  15.415  66.272  1.00  0.00    -0.278 C  
BRANCH  24  25
HETATM   25  C   UNL     1     -10.127  16.640  66.195  1.00  0.00    -0.345 C  
HETATM   26  O   UNL     1     -10.097  17.289  67.458  1.00  0.00    -0.293 OA 
HETATM   27  H   UNL     1      -9.536  18.054  67.411  1.00  0.00     0.000 HD 
ENDBRANCH  24  25
ENDBRANCH  23  24
ENDBRANCH  22  23
ENDBRANCH  21  22
ENDBRANCH  20  21
ENDBRANCH  19  20
ENDBRANCH  18  19
ENDBRANCH  17  18
ENDBRANCH  16  17
ENDBRANCH  15  16
ENDBRANCH  14  15
ENDBRANCH   9  14
ENDBRANCH   2   3
TORSDOF 14
ENDMDL
MODEL      272
REMARK 921   NORMALIZED FREE ENERGY PREDICTED BY IDOCK:   -3.09 KCAL/MOL
REMARK 922        TOTAL FREE ENERGY PREDICTED BY IDOCK:   -7.44 KCAL/MOL
REMARK 923 INTER-LIGAND FREE ENERGY PREDICTED BY IDOCK:   -5.66 KCAL/MOL
REMARK 924 INTRA-LIGAND FREE ENERGY PREDICTED BY IDOCK:   -1.78 KCAL/MOL
REMARK 927      BINDING AFFINITY PREDICTED BY RF-SCORE:    0.00 PKD
ROOT
HETATM    1  C   UNL     1     -11.793  11.858  69.836  1.00  0.00    -0.343 C  
HETATM    2  O   UNL     1     -12.188  11.285  68.596  1.00  0.00    -0.562 OA 
ENDROOT
BRANCH   2   3
HETATM    3  C   UNL     1     -11.171  10.769  67.794  1.00  0.00    -0.316 C  
HETATM    4  C   UNL     1     -10.652  11.558  66.836  1.00  0.00    -0.247 C  
HETATM    5  C   UNL     1      -9.578  11.008  65.954  1.00  0.00    -0.218 C  
HETATM    6  O   UNL     1     -10.881   8.685  68.954  1.00  0.00    -0.133 OA 
HETATM    7  O   UNL     1      -8.794  11.714  65.330  1.00  0.00    -0.011 OA 
HETATM    8  C   UNL     1     -10.690   9.354  67.944  1.00  0.00    -0.210 C  
HETATM    9  C   UNL     1      -9.513   9.526  65.813  1.00  0.00    -0.314 C  
HETATM   10  C   UNL     1      -9.935   7.237  66.801  1.00  0.00    -0.287 C  
HETATM   11  C   UNL     1     -10.011   8.737  66.778  1.00  0.00    -0.338 C  
BRANCH   4  12
HETATM   12  O   UNL     1     -11.131  12.862  66.715  1.00  0.00    -0.267 OA 
HETATM   13  C   UNL     1     -11.991  13.169  65.625  1.00  0.00    -0.415 C  
ENDBRANCH   4  12
BRANCH   9  14
HETATM   14  C   UNL     1      -8.889   9.030  64.546  1.00  0.00    -0.123 C  
BRANCH  14  15
HETATM   15  C   UNL     1      -7.603   8.236  64.783  1.00  0.00    -0.103 C  
BRANCH  15  16
HETATM   16  C   UNL     1      -6.548   9.071  65.509  1.00  0.00    -0.068 C  
BRANCH  16  17
HETATM   17  C   UNL     1      -6.135   8.424  66.826  1.00  0.00    -0.054 C  
BRANCH  17  18
HETATM   18  C   UNL     1      -6.012   6.917  66.710  1.00  0.00    -0.029 C  
BRANCH  18  19
HETATM   19  C   UNL     1      -6.122   6.302  68.100  1.00  0.00    -0.027 C  
BRANCH  19  20
HETATM   20  C   UNL     1      -7.264   6.935  68.872  1.00  0.00    -0.091 C  
BRANCH  20  21
HETATM   21  C   UNL     1      -7.591   6.114  70.110  1.00  0.00    -0.096 C  
BRANCH  21  22
HETATM   22  C   UNL     1      -9.099   6.019  70.289  1.00  0.00    -0.159 C  
BRANCH  22  23
HETATM   23  C   UNL     1      -9.505   6.432  71.698  1.00  0.00    -0.160 C  
BRANCH  23  24
HETATM   24  C   UNL     1      -9.464   7.947  71.844  1.00  0.00    -0.220 C  
BRANCH  24  25
HETATM   25  C   UNL     1     -10.709   8.464  72.547  1.00  0.00    -0.302 C  
HETATM   26  O   UNL     1     -11.393   7.382  73.163  1.00  0.00    -0.562 OA 
HETATM   27  H   UNL     1     -12.170   7.705  73.603  1.00  0.00     0.000 HD 
ENDBRANCH  24  25
ENDBRANCH  23  24
ENDBRANCH  22  23
ENDBRANCH  21  22
ENDBRANCH  20  21
ENDBRANCH  19  20
ENDBRANCH  18  19
ENDBRANCH  17  18
ENDBRANCH  16  17
ENDBRANCH  15  16
ENDBRANCH  14  15
ENDBRANCH   9  14
ENDBRANCH   2   3
TORSDOF 14
ENDMDL
MODEL      273
REMARK 921   NORMALIZED FREE ENERGY PREDICTED BY IDOCK:   -3.08 KCAL/MOL
REMARK 922        TOTAL FREE ENERGY PREDICTED BY IDOCK:   -7.43 KCAL/MOL
REMARK 923 INTER-LIGAND FREE ENERGY PREDICTED BY IDOCK:   -7.30 KCAL/MOL
REMARK 924 INTRA-LIGAND FREE ENERGY PREDICTED BY IDOCK:   -0.13 KCAL/MOL
REMARK 927      BINDING AFFINITY PREDICTED BY RF-SCORE:    0.00 PKD
ROOT
HETATM    1  C   UNL     1      -7.788   7.221  65.097  1.00  0.00    -0.123 C  
HETATM    2  O   UNL     1      -8.944   6.832  65.827  1.00  0.00    -0.122 OA 
ENDROOT
BRANCH   2   3
HETATM    3  C   UNL     1      -9.242   7.574  66.969  1.00  0.00    -0.138 C  
HETATM    4  C   UNL     1      -9.077   6.991  68.169  1.00  0.00    -0.128 C  
HETATM    5  C   UNL     1      -9.417   7.768  69.399  1.00  0.00    -0.156 C  
HETATM    6  O   UNL     1      -9.678   9.669  65.877  1.00  0.00    -0.235 OA 
HETATM    7  O   UNL     1      -8.969   7.500  70.509  1.00  0.00    -0.150 OA 
HETATM    8  C   UNL     1      -9.784   8.972  66.880  1.00  0.00    -0.200 C  
HETATM    9  C   UNL     1     -10.385   8.890  69.244  1.00  0.00    -0.221 C  
HETATM   10  C   UNL     1     -11.409  10.679  67.778  1.00  0.00    -0.320 C  
HETATM   11  C   UNL     1     -10.535   9.488  68.051  1.00  0.00    -0.279 C  
BRANCH   4  12
HETATM   12  O   UNL     1      -8.585   5.686  68.215  1.00  0.00    -0.108 OA 
HETATM   13  C   UNL     1      -7.187   5.497  68.389  1.00  0.00    -0.075 C  
ENDBRANCH   4  12
BRANCH   9  14
HETATM   14  C   UNL     1     -11.150   9.253  70.480  1.00  0.00    -0.317 C  
BRANCH  14  15
HETATM   15  C   UNL     1     -11.927  10.563  70.339  1.00  0.00    -0.425 C  
BRANCH  15  16
HETATM   16  C   UNL     1     -13.150  10.597  71.255  1.00  0.00    -0.456 C  
BRANCH  16  17
HETATM   17  C   UNL     1     -13.204  11.886  72.067  1.00  0.00    -0.461 C  
BRANCH  17  18
HETATM   18  C   UNL     1     -13.146  13.120  71.186  1.00  0.00    -0.202 C  
BRANCH  18  19
HETATM   19  C   UNL     1     -12.801  14.328  72.048  1.00  0.00    -0.428 C  
BRANCH  19  20
HETATM   20  C   UNL     1     -12.550  15.546  71.178  1.00  0.00    -0.509 C  
BRANCH  20  21
HETATM   21  C   UNL     1     -11.306  15.345  70.325  1.00  0.00    -0.332 C  
BRANCH  21  22
HETATM   22  C   UNL     1     -11.619  15.655  68.869  1.00  0.00    -0.392 C  
BRANCH  22  23
HETATM   23  C   UNL     1     -11.335  14.447  67.985  1.00  0.00    -0.316 C  
BRANCH  23  24
HETATM   24  C   UNL     1     -11.844  14.688  66.570  1.00  0.00    -0.317 C  
BRANCH  24  25
HETATM   25  C   UNL     1     -11.115  13.809  65.568  1.00  0.00    -0.298 C  
HETATM   26  O   UNL     1     -11.273  14.343  64.261  1.00  0.00    -0.596 OA 
HETATM   27  H   UNL     1     -10.817  13.794  63.634  1.00  0.00     0.000 HD 
ENDBRANCH  24  25
ENDBRANCH  23  24
ENDBRANCH  22  23
ENDBRANCH  21  22
ENDBRANCH  20  21
ENDBRANCH  19  20
ENDBRANCH  18  19
ENDBRANCH  17  18
ENDBRANCH  16  17
ENDBRANCH  15  16
ENDBRANCH  14  15
ENDBRANCH   9  14
ENDBRANCH   2   3
TORSDOF 14
ENDMDL
MODEL      274
REMARK 921   NORMALIZED FREE ENERGY PREDICTED BY IDOCK:   -3.08 KCAL/MOL
REMARK 922        TOTAL FREE ENERGY PREDICTED BY IDOCK:   -7.42 KCAL/MOL
REMARK 923 INTER-LIGAND FREE ENERGY PREDICTED BY IDOCK:   -5.49 KCAL/MOL
REMARK 924 INTRA-LIGAND FREE ENERGY PREDICTED BY IDOCK:   -1.94 KCAL/MOL
REMARK 927      BINDING AFFINITY PREDICTED BY RF-SCORE:    0.00 PKD
ROOT
HETATM    1  C   UNL     1     -12.040   8.831  72.007  1.00  0.00    -0.377 C  
HETATM    2  O   UNL     1     -11.863   7.440  72.243  1.00  0.00    -0.291 OA 
ENDROOT
BRANCH   2   3
HETATM    3  C   UNL     1     -10.803   6.824  71.580  1.00  0.00    -0.229 C  
HETATM    4  C   UNL     1      -9.702   6.513  72.288  1.00  0.00    -0.153 C  
HETATM    5  C   UNL     1      -8.550   5.875  71.583  1.00  0.00    -0.132 C  
HETATM    6  O   UNL     1     -11.892   6.519  69.460  1.00  0.00    -0.266 OA 
HETATM    7  O   UNL     1      -7.685   5.225  72.160  1.00  0.00    -0.096 OA 
HETATM    8  C   UNL     1     -10.848   6.551  70.104  1.00  0.00    -0.282 C  
HETATM    9  C   UNL     1      -8.451   6.094  70.112  1.00  0.00    -0.133 C  
HETATM   10  C   UNL     1      -9.608   6.543  67.908  1.00  0.00    -0.119 C  
HETATM   11  C   UNL     1      -9.553   6.382  69.401  1.00  0.00    -0.152 C  
BRANCH   4  12
HETATM   12  O   UNL     1      -9.687   6.792  73.654  1.00  0.00    -0.178 OA 
HETATM   13  C   UNL     1      -8.726   7.718  74.146  1.00  0.00    -0.238 C  
ENDBRANCH   4  12
BRANCH   9  14
HETATM   14  C   UNL     1      -7.072   5.988  69.539  1.00  0.00    -0.069 C  
BRANCH  14  15
HETATM   15  C   UNL     1      -6.423   7.351  69.286  1.00  0.00    -0.036 C  
BRANCH  15  16
HETATM   16  C   UNL     1      -6.173   8.109  70.590  1.00  0.00    -0.036 C  
BRANCH  16  17
HETATM   17  C   UNL     1      -7.172   9.246  70.773  1.00  0.00    -0.126 C  
BRANCH  17  18
HETATM   18  C   UNL     1      -6.874  10.422  69.862  1.00  0.00    -0.143 C  
BRANCH  18  19
HETATM   19  C   UNL     1      -8.106  10.720  69.017  1.00  0.00    -0.140 C  
BRANCH  19  20
HETATM   20  C   UNL     1      -9.331  10.048  69.610  1.00  0.00    -0.242 C  
BRANCH  20  21
HETATM   21  C   UNL     1     -10.599  10.592  68.969  1.00  0.00    -0.249 C  
BRANCH  21  22
HETATM   22  C   UNL     1     -10.424  10.679  67.461  1.00  0.00    -0.272 C  
BRANCH  22  23
HETATM   23  C   UNL     1     -10.587  12.114  66.977  1.00  0.00    -0.256 C  
BRANCH  23  24
HETATM   24  C   UNL     1     -11.640  12.193  65.880  1.00  0.00    -0.425 C  
BRANCH  24  25
HETATM   25  C   UNL     1     -11.021  12.603  64.554  1.00  0.00    -0.332 C  
HETATM   26  O   UNL     1     -11.108  14.012  64.402  1.00  0.00    -0.516 OA 
HETATM   27  H   UNL     1     -10.721  14.269  63.573  1.00  0.00     0.000 HD 
ENDBRANCH  24  25
ENDBRANCH  23  24
ENDBRANCH  22  23
ENDBRANCH  21  22
ENDBRANCH  20  21
ENDBRANCH  19  20
ENDBRANCH  18  19
ENDBRANCH  17  18
ENDBRANCH  16  17
ENDBRANCH  15  16
ENDBRANCH  14  15
ENDBRANCH   9  14
ENDBRANCH   2   3
TORSDOF 14
ENDMDL
MODEL      275
REMARK 921   NORMALIZED FREE ENERGY PREDICTED BY IDOCK:   -3.06 KCAL/MOL
REMARK 922        TOTAL FREE ENERGY PREDICTED BY IDOCK:   -7.39 KCAL/MOL
REMARK 923 INTER-LIGAND FREE ENERGY PREDICTED BY IDOCK:   -7.73 KCAL/MOL
REMARK 924 INTRA-LIGAND FREE ENERGY PREDICTED BY IDOCK:    0.35 KCAL/MOL
REMARK 927      BINDING AFFINITY PREDICTED BY RF-SCORE:    0.00 PKD
ROOT
HETATM    1  C   UNL     1      -9.988  15.171  65.745  1.00  0.00    -0.345 C  
HETATM    2  O   UNL     1     -11.358  15.063  66.109  1.00  0.00    -0.339 OA 
ENDROOT
BRANCH   2   3
HETATM    3  C   UNL     1     -11.674  14.115  67.080  1.00  0.00    -0.403 C  
HETATM    4  C   UNL     1     -11.950  14.543  68.325  1.00  0.00    -0.268 C  
HETATM    5  C   UNL     1     -12.266  13.534  69.380  1.00  0.00    -0.228 C  
HETATM    6  O   UNL     1     -11.724  12.193  65.639  1.00  0.00    -0.375 OA 
HETATM    7  O   UNL     1     -12.880  13.804  70.406  1.00  0.00    -0.233 OA 
HETATM    8  C   UNL     1     -11.663  12.643  66.778  1.00  0.00    -0.392 C  
HETATM    9  C   UNL     1     -11.757  12.150  69.166  1.00  0.00    -0.384 C  
HETATM   10  C   UNL     1     -11.070  10.321  67.561  1.00  0.00    -0.302 C  
HETATM   11  C   UNL     1     -11.503  11.713  67.922  1.00  0.00    -0.381 C  
BRANCH   4  12
HETATM   12  O   UNL     1     -11.938  15.915  68.575  1.00  0.00    -0.306 OA 
HETATM   13  C   UNL     1     -10.863  16.456  69.332  1.00  0.00    -0.327 C  
ENDBRANCH   4  12
BRANCH   9  14
HETATM   14  C   UNL     1     -11.548  11.343  70.411  1.00  0.00    -0.267 C  
BRANCH  14  15
HETATM   15  C   UNL     1     -12.727  10.421  70.730  1.00  0.00    -0.460 C  
BRANCH  15  16
HETATM   16  C   UNL     1     -12.558   9.737  72.087  1.00  0.00    -0.367 C  
BRANCH  16  17
HETATM   17  C   UNL     1     -11.530   8.614  72.021  1.00  0.00    -0.437 C  
BRANCH  17  18
HETATM   18  C   UNL     1     -11.650   7.802  70.745  1.00  0.00    -0.270 C  
BRANCH  18  19
HETATM   19  C   UNL     1     -10.276   7.686  70.099  1.00  0.00    -0.204 C  
BRANCH  19  20
HETATM   20  C   UNL     1     -10.335   8.109  68.643  1.00  0.00    -0.224 C  
BRANCH  20  21
HETATM   21  C   UNL     1     -10.262   6.894  67.731  1.00  0.00    -0.224 C  
BRANCH  21  22
HETATM   22  C   UNL     1      -9.660   7.287  66.390  1.00  0.00    -0.169 C  
BRANCH  22  23
HETATM   23  C   UNL     1      -9.584   8.802  66.253  1.00  0.00    -0.328 C  
BRANCH  23  24
HETATM   24  C   UNL     1      -8.246   9.219  65.659  1.00  0.00    -0.119 C  
BRANCH  24  25
HETATM   25  C   UNL     1      -8.361  10.542  64.921  1.00  0.00    -0.135 C  
HETATM   26  O   UNL     1      -9.634  10.632  64.298  1.00  0.00    -0.242 OA 
HETATM   27  H   UNL     1      -9.707  11.459  63.836  1.00  0.00     0.000 HD 
ENDBRANCH  24  25
ENDBRANCH  23  24
ENDBRANCH  22  23
ENDBRANCH  21  22
ENDBRANCH  20  21
ENDBRANCH  19  20
ENDBRANCH  18  19
ENDBRANCH  17  18
ENDBRANCH  16  17
ENDBRANCH  15  16
ENDBRANCH  14  15
ENDBRANCH   9  14
ENDBRANCH   2   3
TORSDOF 14
ENDMDL
MODEL      276
REMARK 921   NORMALIZED FREE ENERGY PREDICTED BY IDOCK:   -3.04 KCAL/MOL
REMARK 922        TOTAL FREE ENERGY PREDICTED BY IDOCK:   -7.35 KCAL/MOL
REMARK 923 INTER-LIGAND FREE ENERGY PREDICTED BY IDOCK:   -6.07 KCAL/MOL
REMARK 924 INTRA-LIGAND FREE ENERGY PREDICTED BY IDOCK:   -1.29 KCAL/MOL
REMARK 927      BINDING AFFINITY PREDICTED BY RF-SCORE:    0.00 PKD
ROOT
HETATM    1  C   UNL     1      -8.377   2.217  67.638  1.00  0.00    -0.069 C  
HETATM    2  O   UNL     1      -9.556   2.932  67.986  1.00  0.00    -0.195 OA 
ENDROOT
BRANCH   2   3
HETATM    3  C   UNL     1      -9.435   4.315  68.109  1.00  0.00    -0.157 C  
HETATM    4  C   UNL     1      -9.919   5.089  67.121  1.00  0.00    -0.195 C  
HETATM    5  C   UNL     1      -9.773   6.572  67.231  1.00  0.00    -0.132 C  
HETATM    6  O   UNL     1      -8.547   4.355  70.341  1.00  0.00    -0.075 OA 
HETATM    7  O   UNL     1     -10.478   7.364  66.616  1.00  0.00    -0.254 OA 
HETATM    8  C   UNL     1      -8.739   4.944  69.283  1.00  0.00    -0.087 C  
HETATM    9  C   UNL     1      -8.679   7.080  68.105  1.00  0.00    -0.127 C  
HETATM   10  C   UNL     1      -7.174   6.740  70.109  1.00  0.00    -0.076 C  
HETATM   11  C   UNL     1      -8.210   6.318  69.106  1.00  0.00    -0.114 C  
BRANCH   4  12
HETATM   12  O   UNL     1     -10.548   4.472  66.039  1.00  0.00    -0.269 OA 
HETATM   13  C   UNL     1      -9.818   4.325  64.827  1.00  0.00    -0.158 C  
ENDBRANCH   4  12
BRANCH   9  14
HETATM   14  C   UNL     1      -8.167   8.445  67.763  1.00  0.00    -0.126 C  
BRANCH  14  15
HETATM   15  C   UNL     1      -8.977   9.569  68.412  1.00  0.00    -0.127 C  
BRANCH  15  16
HETATM   16  C   UNL     1      -9.281  10.693  67.422  1.00  0.00    -0.153 C  
BRANCH  16  17
HETATM   17  C   UNL     1      -8.507  10.513  66.121  1.00  0.00    -0.154 C  
BRANCH  17  18
HETATM   18  C   UNL     1      -9.387  10.707  64.901  1.00  0.00    -0.271 C  
BRANCH  18  19
HETATM   19  C   UNL     1     -10.780  11.123  65.354  1.00  0.00    -0.259 C  
BRANCH  19  20
HETATM   20  C   UNL     1     -11.382  12.118  64.379  1.00  0.00    -0.407 C  
BRANCH  20  21
HETATM   21  C   UNL     1     -12.574  12.825  65.006  1.00  0.00    -0.538 C  
BRANCH  21  22
HETATM   22  C   UNL     1     -12.094  13.946  65.915  1.00  0.00    -0.459 C  
BRANCH  22  23
HETATM   23  C   UNL     1     -12.083  13.497  67.371  1.00  0.00    -0.360 C  
BRANCH  23  24
HETATM   24  C   UNL     1     -11.524  14.594  68.265  1.00  0.00    -0.337 C  
BRANCH  24  25
HETATM   25  C   UNL     1     -11.937  14.385  69.713  1.00  0.00    -0.332 C  
HETATM   26  O   UNL     1     -12.942  15.326  70.063  1.00  0.00    -0.633 OA 
HETATM   27  H   UNL     1     -13.201  15.196  70.968  1.00  0.00     0.000 HD 
ENDBRANCH  24  25
ENDBRANCH  23  24
ENDBRANCH  22  23
ENDBRANCH  21  22
ENDBRANCH  20  21
ENDBRANCH  19  20
ENDBRANCH  18  19
ENDBRANCH  17  18
ENDBRANCH  16  17
ENDBRANCH  15  16
ENDBRANCH  14  15
ENDBRANCH   9  14
ENDBRANCH   2   3
TORSDOF 14
ENDMDL
MODEL      277
REMARK 921   NORMALIZED FREE ENERGY PREDICTED BY IDOCK:   -3.04 KCAL/MOL
REMARK 922        TOTAL FREE ENERGY PREDICTED BY IDOCK:   -7.35 KCAL/MOL
REMARK 923 INTER-LIGAND FREE ENERGY PREDICTED BY IDOCK:   -5.37 KCAL/MOL
REMARK 924 INTRA-LIGAND FREE ENERGY PREDICTED BY IDOCK:   -1.99 KCAL/MOL
REMARK 927      BINDING AFFINITY PREDICTED BY RF-SCORE:    0.00 PKD
ROOT
HETATM    1  C   UNL     1     -11.707   9.199  71.944  1.00  0.00    -0.366 C  
HETATM    2  O   UNL     1     -11.532   7.862  72.393  1.00  0.00    -0.324 OA 
ENDROOT
BRANCH   2   3
HETATM    3  C   UNL     1     -10.735   7.037  71.601  1.00  0.00    -0.220 C  
HETATM    4  C   UNL     1      -9.492   6.748  72.029  1.00  0.00    -0.141 C  
HETATM    5  C   UNL     1      -8.620   5.885  71.176  1.00  0.00    -0.129 C  
HETATM    6  O   UNL     1     -12.397   6.473  69.961  1.00  0.00    -0.031 OA 
HETATM    7  O   UNL     1      -7.657   5.264  71.613  1.00  0.00    -0.096 OA 
HETATM    8  C   UNL     1     -11.213   6.514  70.276  1.00  0.00    -0.374 C  
HETATM    9  C   UNL     1      -8.937   5.831  69.721  1.00  0.00    -0.137 C  
HETATM   10  C   UNL     1     -10.654   5.997  67.872  1.00  0.00    -0.337 C  
HETATM   11  C   UNL     1     -10.182   6.097  69.295  1.00  0.00    -0.251 C  
BRANCH   4  12
HETATM   12  O   UNL     1      -9.075   7.260  73.257  1.00  0.00    -0.135 OA 
HETATM   13  C   UNL     1      -8.166   8.354  73.260  1.00  0.00    -0.109 C  
ENDBRANCH   4  12
BRANCH   9  14
HETATM   14  C   UNL     1      -7.785   5.490  68.827  1.00  0.00    -0.091 C  
BRANCH  14  15
HETATM   15  C   UNL     1      -7.288   6.685  68.011  1.00  0.00    -0.097 C  
BRANCH  15  16
HETATM   16  C   UNL     1      -6.562   7.706  68.887  1.00  0.00    -0.049 C  
BRANCH  16  17
HETATM   17  C   UNL     1      -7.427   8.935  69.143  1.00  0.00    -0.073 C  
BRANCH  17  18
HETATM   18  C   UNL     1      -7.362   9.929  67.999  1.00  0.00    -0.084 C  
BRANCH  18  19
HETATM   19  C   UNL     1      -8.778  10.255  67.543  1.00  0.00    -0.125 C  
BRANCH  19  20
HETATM   20  C   UNL     1      -9.794   9.659  68.501  1.00  0.00    -0.170 C  
BRANCH  20  21
HETATM   21  C   UNL     1     -11.148  10.331  68.327  1.00  0.00    -0.311 C  
BRANCH  21  22
HETATM   22  C   UNL     1     -10.959  11.800  67.979  1.00  0.00    -0.274 C  
BRANCH  22  23
HETATM   23  C   UNL     1     -11.322  12.688  69.162  1.00  0.00    -0.339 C  
BRANCH  23  24
HETATM   24  C   UNL     1     -12.117  13.900  68.696  1.00  0.00    -0.337 C  
BRANCH  24  25
HETATM   25  C   UNL     1     -11.964  15.061  69.665  1.00  0.00    -0.321 C  
HETATM   26  O   UNL     1     -12.969  14.984  70.666  1.00  0.00    -0.450 OA 
HETATM   27  H   UNL     1     -12.873  15.709  71.272  1.00  0.00     0.000 HD 
ENDBRANCH  24  25
ENDBRANCH  23  24
ENDBRANCH  22  23
ENDBRANCH  21  22
ENDBRANCH  20  21
ENDBRANCH  19  20
ENDBRANCH  18  19
ENDBRANCH  17  18
ENDBRANCH  16  17
ENDBRANCH  15  16
ENDBRANCH  14  15
ENDBRANCH   9  14
ENDBRANCH   2   3
TORSDOF 14
ENDMDL
MODEL      278
REMARK 921   NORMALIZED FREE ENERGY PREDICTED BY IDOCK:   -3.02 KCAL/MOL
REMARK 922        TOTAL FREE ENERGY PREDICTED BY IDOCK:   -7.32 KCAL/MOL
REMARK 923 INTER-LIGAND FREE ENERGY PREDICTED BY IDOCK:   -7.08 KCAL/MOL
REMARK 924 INTRA-LIGAND FREE ENERGY PREDICTED BY IDOCK:   -0.24 KCAL/MOL
REMARK 927      BINDING AFFINITY PREDICTED BY RF-SCORE:    0.00 PKD
ROOT
HETATM    1  C   UNL     1      -9.376  10.376  63.104  1.00  0.00    -0.312 C  
HETATM    2  O   UNL     1      -8.654  10.486  64.323  1.00  0.00    -0.179 OA 
ENDROOT
BRANCH   2   3
HETATM    3  C   UNL     1      -9.307  11.115  65.382  1.00  0.00    -0.219 C  
HETATM    4  C   UNL     1      -9.058  10.685  66.632  1.00  0.00    -0.160 C  
HETATM    5  C   UNL     1      -9.771  11.335  67.772  1.00  0.00    -0.173 C  
HETATM    6  O   UNL     1     -10.363  12.858  64.109  1.00  0.00    -0.410 OA 
HETATM    7  O   UNL     1      -9.365  11.297  68.929  1.00  0.00    -0.163 OA 
HETATM    8  C   UNL     1     -10.305  12.214  65.151  1.00  0.00    -0.279 C  
HETATM    9  C   UNL     1     -11.059  12.018  67.464  1.00  0.00    -0.331 C  
HETATM   10  C   UNL     1     -12.514  13.245  65.798  1.00  0.00    -0.480 C  
HETATM   11  C   UNL     1     -11.299  12.468  66.222  1.00  0.00    -0.386 C  
BRANCH   4  12
HETATM   12  O   UNL     1      -8.136   9.654  66.810  1.00  0.00    -0.112 OA 
HETATM   13  C   UNL     1      -8.616   8.380  67.220  1.00  0.00    -0.123 C  
ENDBRANCH   4  12
BRANCH   9  14
HETATM   14  C   UNL     1     -12.017  12.128  68.609  1.00  0.00    -0.290 C  
BRANCH  14  15
HETATM   15  C   UNL     1     -11.744  13.339  69.504  1.00  0.00    -0.384 C  
BRANCH  15  16
HETATM   16  C   UNL     1     -11.328  14.563  68.688  1.00  0.00    -0.300 C  
BRANCH  16  17
HETATM   17  C   UNL     1     -10.166  15.300  69.342  1.00  0.00    -0.258 C  
BRANCH  17  18
HETATM   18  C   UNL     1      -9.060  15.617  68.353  1.00  0.00    -0.190 C  
BRANCH  18  19
HETATM   19  C   UNL     1      -7.960  16.389  69.070  1.00  0.00    -0.227 C  
BRANCH  19  20
HETATM   20  C   UNL     1      -7.218  17.286  68.096  1.00  0.00    -0.196 C  
BRANCH  20  21
HETATM   21  C   UNL     1      -7.030  18.675  68.687  1.00  0.00    -0.297 C  
BRANCH  21  22
HETATM   22  C   UNL     1      -7.770  19.703  67.845  1.00  0.00    -0.331 C  
BRANCH  22  23
HETATM   23  C   UNL     1      -6.818  20.783  67.348  1.00  0.00    -0.411 C  
BRANCH  23  24
HETATM   24  C   UNL     1      -5.815  20.201  66.362  1.00  0.00    -0.189 C  
BRANCH  24  25
HETATM   25  C   UNL     1      -5.485  21.197  65.263  1.00  0.00    -0.195 C  
HETATM   26  O   UNL     1      -6.503  21.171  64.273  1.00  0.00    -0.483 OA 
HETATM   27  H   UNL     1      -6.297  21.793  63.586  1.00  0.00     0.000 HD 
ENDBRANCH  24  25
ENDBRANCH  23  24
ENDBRANCH  22  23
ENDBRANCH  21  22
ENDBRANCH  20  21
ENDBRANCH  19  20
ENDBRANCH  18  19
ENDBRANCH  17  18
ENDBRANCH  16  17
ENDBRANCH  15  16
ENDBRANCH  14  15
ENDBRANCH   9  14
ENDBRANCH   2   3
TORSDOF 14
ENDMDL
MODEL      279
REMARK 921   NORMALIZED FREE ENERGY PREDICTED BY IDOCK:   -3.02 KCAL/MOL
REMARK 922        TOTAL FREE ENERGY PREDICTED BY IDOCK:   -7.30 KCAL/MOL
REMARK 923 INTER-LIGAND FREE ENERGY PREDICTED BY IDOCK:   -6.26 KCAL/MOL
REMARK 924 INTRA-LIGAND FREE ENERGY PREDICTED BY IDOCK:   -1.05 KCAL/MOL
REMARK 927      BINDING AFFINITY PREDICTED BY RF-SCORE:    0.00 PKD
ROOT
HETATM    1  C   UNL     1     -10.630   4.855  65.728  1.00  0.00    -0.182 C  
HETATM    2  O   UNL     1      -9.666   5.403  66.618  1.00  0.00    -0.139 OA 
ENDROOT
BRANCH   2   3
HETATM    3  C   UNL     1      -9.714   6.781  66.821  1.00  0.00    -0.171 C  
HETATM    4  C   UNL     1     -10.469   7.251  67.831  1.00  0.00    -0.209 C  
HETATM    5  C   UNL     1     -10.548   8.728  68.043  1.00  0.00    -0.159 C  
HETATM    6  O   UNL     1      -8.067   7.398  65.185  1.00  0.00    -0.123 OA 
HETATM    7  O   UNL     1     -10.874   9.238  69.109  1.00  0.00    -0.213 OA 
HETATM    8  C   UNL     1      -8.992   7.737  65.915  1.00  0.00    -0.113 C  
HETATM    9  C   UNL     1     -10.253   9.597  66.868  1.00  0.00    -0.304 C  
HETATM   10  C   UNL     1      -9.040   9.932  64.674  1.00  0.00    -0.288 C  
HETATM   11  C   UNL     1      -9.482   9.137  65.870  1.00  0.00    -0.326 C  
BRANCH   4  12
HETATM   12  O   UNL     1     -11.137   6.337  68.645  1.00  0.00    -0.334 OA 
HETATM   13  C   UNL     1     -10.466   5.840  69.796  1.00  0.00    -0.292 C  
ENDBRANCH   4  12
BRANCH   9  14
HETATM   14  C   UNL     1     -10.885  10.954  66.899  1.00  0.00    -0.307 C  
BRANCH  14  15
HETATM   15  C   UNL     1     -10.080  11.970  67.712  1.00  0.00    -0.199 C  
BRANCH  15  16
HETATM   16  C   UNL     1      -8.726  12.265  67.067  1.00  0.00    -0.199 C  
BRANCH  16  17
HETATM   17  C   UNL     1      -7.589  12.132  68.072  1.00  0.00    -0.123 C  
BRANCH  17  18
HETATM   18  C   UNL     1      -6.673  13.341  68.064  1.00  0.00    -0.127 C  
BRANCH  18  19
HETATM   19  C   UNL     1      -7.320  14.459  68.870  1.00  0.00    -0.127 C  
BRANCH  19  20
HETATM   20  C   UNL     1      -7.284  15.763  68.094  1.00  0.00    -0.124 C  
BRANCH  20  21
HETATM   21  C   UNL     1      -8.619  16.012  67.408  1.00  0.00    -0.194 C  
BRANCH  21  22
HETATM   22  C   UNL     1      -9.709  16.214  68.450  1.00  0.00    -0.219 C  
BRANCH  22  23
HETATM   23  C   UNL     1     -10.746  17.218  67.962  1.00  0.00    -0.367 C  
BRANCH  23  24
HETATM   24  C   UNL     1     -10.130  18.605  67.838  1.00  0.00    -0.407 C  
BRANCH  24  25
HETATM   25  C   UNL     1     -10.369  19.189  66.455  1.00  0.00    -0.442 C  
HETATM   26  O   UNL     1      -9.476  20.271  66.233  1.00  0.00    -0.567 OA 
HETATM   27  H   UNL     1      -9.625  20.636  65.369  1.00  0.00     0.000 HD 
ENDBRANCH  24  25
ENDBRANCH  23  24
ENDBRANCH  22  23
ENDBRANCH  21  22
ENDBRANCH  20  21
ENDBRANCH  19  20
ENDBRANCH  18  19
ENDBRANCH  17  18
ENDBRANCH  16  17
ENDBRANCH  15  16
ENDBRANCH  14  15
ENDBRANCH   9  14
ENDBRANCH   2   3
TORSDOF 14
ENDMDL
MODEL      280
REMARK 921   NORMALIZED FREE ENERGY PREDICTED BY IDOCK:   -3.01 KCAL/MOL
REMARK 922        TOTAL FREE ENERGY PREDICTED BY IDOCK:   -7.30 KCAL/MOL
REMARK 923 INTER-LIGAND FREE ENERGY PREDICTED BY IDOCK:   -5.43 KCAL/MOL
REMARK 924 INTRA-LIGAND FREE ENERGY PREDICTED BY IDOCK:   -1.86 KCAL/MOL
REMARK 927      BINDING AFFINITY PREDICTED BY RF-SCORE:    0.00 PKD
ROOT
HETATM    1  C   UNL     1     -10.001   5.155  66.235  1.00  0.00    -0.210 C  
HETATM    2  O   UNL     1      -8.613   5.338  66.483  1.00  0.00    -0.112 OA 
ENDROOT
BRANCH   2   3
HETATM    3  C   UNL     1      -8.191   6.640  66.743  1.00  0.00    -0.114 C  
HETATM    4  C   UNL     1      -7.909   6.979  68.013  1.00  0.00    -0.114 C  
HETATM    5  C   UNL     1      -7.479   8.380  68.306  1.00  0.00    -0.096 C  
HETATM    6  O   UNL     1      -8.036   7.380  64.462  1.00  0.00    -0.133 OA 
HETATM    7  O   UNL     1      -6.854   8.694  69.313  1.00  0.00    -0.049 OA 
HETATM    8  C   UNL     1      -8.095   7.669  65.652  1.00  0.00    -0.127 C  
HETATM    9  C   UNL     1      -7.883   9.430  67.329  1.00  0.00    -0.099 C  
HETATM   10  C   UNL     1      -8.476  10.062  64.953  1.00  0.00    -0.173 C  
HETATM   11  C   UNL     1      -8.142   9.096  66.055  1.00  0.00    -0.110 C  
BRANCH   4  12
HETATM   12  O   UNL     1      -8.021   6.003  69.003  1.00  0.00    -0.101 OA 
HETATM   13  C   UNL     1      -6.853   5.284  69.380  1.00  0.00    -0.054 C  
ENDBRANCH   4  12
BRANCH   9  14
HETATM   14  C   UNL     1      -7.985  10.817  67.884  1.00  0.00    -0.110 C  
BRANCH  14  15
HETATM   15  C   UNL     1      -9.208  11.013  68.782  1.00  0.00    -0.167 C  
BRANCH  15  16
HETATM   16  C   UNL     1     -10.366  11.666  68.027  1.00  0.00    -0.208 C  
BRANCH  16  17
HETATM   17  C   UNL     1     -11.712  11.129  68.499  1.00  0.00    -0.368 C  
BRANCH  17  18
HETATM   18  C   UNL     1     -12.095  11.665  69.865  1.00  0.00    -0.373 C  
BRANCH  18  19
HETATM   19  C   UNL     1     -12.802  10.566  70.648  1.00  0.00    -0.407 C  
BRANCH  19  20
HETATM   20  C   UNL     1     -11.828   9.864  71.577  1.00  0.00    -0.445 C  
BRANCH  20  21
HETATM   21  C   UNL     1     -11.812   8.368  71.300  1.00  0.00    -0.327 C  
BRANCH  21  22
HETATM   22  C   UNL     1     -10.451   7.953  70.763  1.00  0.00    -0.218 C  
BRANCH  22  23
HETATM   23  C   UNL     1      -9.693   7.121  71.789  1.00  0.00    -0.168 C  
BRANCH  23  24
HETATM   24  C   UNL     1     -10.379   7.192  73.147  1.00  0.00    -0.336 C  
BRANCH  24  25
HETATM   25  C   UNL     1     -10.653   5.802  73.696  1.00  0.00    -0.276 C  
HETATM   26  O   UNL     1     -11.843   5.286  73.118  1.00  0.00    -0.540 OA 
HETATM   27  H   UNL     1     -12.015   4.416  73.461  1.00  0.00     0.000 HD 
ENDBRANCH  24  25
ENDBRANCH  23  24
ENDBRANCH  22  23
ENDBRANCH  21  22
ENDBRANCH  20  21
ENDBRANCH  19  20
ENDBRANCH  18  19
ENDBRANCH  17  18
ENDBRANCH  16  17
ENDBRANCH  15  16
ENDBRANCH  14  15
ENDBRANCH   9  14
ENDBRANCH   2   3
TORSDOF 14
ENDMDL
MODEL      281
REMARK 921   NORMALIZED FREE ENERGY PREDICTED BY IDOCK:   -3.00 KCAL/MOL
REMARK 922        TOTAL FREE ENERGY PREDICTED BY IDOCK:   -7.27 KCAL/MOL
REMARK 923 INTER-LIGAND FREE ENERGY PREDICTED BY IDOCK:   -6.71 KCAL/MOL
REMARK 924 INTRA-LIGAND FREE ENERGY PREDICTED BY IDOCK:   -0.57 KCAL/MOL
REMARK 927      BINDING AFFINITY PREDICTED BY RF-SCORE:    0.00 PKD
ROOT
HETATM    1  C   UNL     1     -11.278  16.283  70.135  1.00  0.00    -0.333 C  
HETATM    2  O   UNL     1     -12.482  15.550  69.947  1.00  0.00    -0.336 OA 
ENDROOT
BRANCH   2   3
HETATM    3  C   UNL     1     -12.350  14.187  69.690  1.00  0.00    -0.256 C  
HETATM    4  C   UNL     1     -12.450  13.330  70.722  1.00  0.00    -0.324 C  
HETATM    5  C   UNL     1     -12.286  11.868  70.462  1.00  0.00    -0.284 C  
HETATM    6  O   UNL     1     -12.242  14.328  67.294  1.00  0.00    -0.393 OA 
HETATM    7  O   UNL     1     -12.717  10.999  71.213  1.00  0.00    -0.387 OA 
HETATM    8  C   UNL     1     -12.052  13.670  68.311  1.00  0.00    -0.271 C  
HETATM    9  C   UNL     1     -11.519  11.479  69.245  1.00  0.00    -0.370 C  
HETATM   10  C   UNL     1     -10.769  12.027  66.893  1.00  0.00    -0.282 C  
HETATM   11  C   UNL     1     -11.436  12.325  68.206  1.00  0.00    -0.367 C  
BRANCH   4  12
HETATM   12  O   UNL     1     -12.715  13.843  71.991  1.00  0.00    -0.303 OA 
HETATM   13  C   UNL     1     -14.068  13.919  72.423  1.00  0.00    -0.486 C  
ENDBRANCH   4  12
BRANCH   9  14
HETATM   14  C   UNL     1     -10.866  10.133  69.302  1.00  0.00    -0.269 C  
BRANCH  14  15
HETATM   15  C   UNL     1      -9.483  10.111  68.647  1.00  0.00    -0.164 C  
BRANCH  15  16
HETATM   16  C   UNL     1      -8.882   8.705  68.641  1.00  0.00    -0.142 C  
BRANCH  16  17
HETATM   17  C   UNL     1      -8.402   8.311  67.249  1.00  0.00    -0.124 C  
BRANCH  17  18
HETATM   18  C   UNL     1      -9.341   7.329  66.576  1.00  0.00    -0.216 C  
BRANCH  18  19
HETATM   19  C   UNL     1     -10.344   6.819  67.602  1.00  0.00    -0.255 C  
BRANCH  19  20
HETATM   20  C   UNL     1     -10.439   5.305  67.545  1.00  0.00    -0.193 C  
BRANCH  20  21
HETATM   21  C   UNL     1      -9.061   4.678  67.695  1.00  0.00    -0.133 C  
BRANCH  21  22
HETATM   22  C   UNL     1      -8.877   3.574  66.665  1.00  0.00    -0.139 C  
BRANCH  22  23
HETATM   23  C   UNL     1      -9.664   3.879  65.397  1.00  0.00    -0.181 C  
BRANCH  23  24
HETATM   24  C   UNL     1      -9.513   2.748  64.389  1.00  0.00    -0.145 C  
BRANCH  24  25
HETATM   25  C   UNL     1     -10.432   2.952  63.195  1.00  0.00    -0.186 C  
HETATM   26  O   UNL     1     -10.061   4.136  62.503  1.00  0.00    -0.165 OA 
HETATM   27  H   UNL     1     -10.634   4.263  61.757  1.00  0.00     0.000 HD 
ENDBRANCH  24  25
ENDBRANCH  23  24
ENDBRANCH  22  23
ENDBRANCH  21  22
ENDBRANCH  20  21
ENDBRANCH  19  20
ENDBRANCH  18  19
ENDBRANCH  17  18
ENDBRANCH  16  17
ENDBRANCH  15  16
ENDBRANCH  14  15
ENDBRANCH   9  14
ENDBRANCH   2   3
TORSDOF 14
ENDMDL
MODEL      282
REMARK 921   NORMALIZED FREE ENERGY PREDICTED BY IDOCK:   -2.97 KCAL/MOL
REMARK 922        TOTAL FREE ENERGY PREDICTED BY IDOCK:   -7.23 KCAL/MOL
REMARK 923 INTER-LIGAND FREE ENERGY PREDICTED BY IDOCK:   -6.72 KCAL/MOL
REMARK 924 INTRA-LIGAND FREE ENERGY PREDICTED BY IDOCK:   -0.51 KCAL/MOL
REMARK 927      BINDING AFFINITY PREDICTED BY RF-SCORE:    0.00 PKD
ROOT
HETATM    1  C   UNL     1      -6.754  17.439  68.742  1.00  0.00    -0.219 C  
HETATM    2  O   UNL     1      -8.120  17.764  68.517  1.00  0.00    -0.284 OA 
ENDROOT
BRANCH   2   3
HETATM    3  C   UNL     1      -8.916  16.766  67.958  1.00  0.00    -0.217 C  
HETATM    4  C   UNL     1      -9.354  16.930  66.697  1.00  0.00    -0.258 C  
HETATM    5  C   UNL     1     -10.229  15.878  66.096  1.00  0.00    -0.324 C  
HETATM    6  O   UNL     1      -8.747  15.184  69.758  1.00  0.00    -0.147 OA 
HETATM    7  O   UNL     1     -10.369  15.732  64.887  1.00  0.00    -0.487 OA 
HETATM    8  C   UNL     1      -9.329  15.554  68.745  1.00  0.00    -0.209 C  
HETATM    9  C   UNL     1     -10.988  15.010  67.040  1.00  0.00    -0.318 C  
HETATM   10  C   UNL     1     -11.160  13.916  69.314  1.00  0.00    -0.261 C  
HETATM   11  C   UNL     1     -10.540  14.828  68.292  1.00  0.00    -0.241 C  
BRANCH   4  12
HETATM   12  O   UNL     1      -8.963  18.073  66.000  1.00  0.00    -0.502 OA 
HETATM   13  C   UNL     1      -7.621  18.156  65.535  1.00  0.00     0.348 C  
ENDBRANCH   4  12
BRANCH   9  14
HETATM   14  C   UNL     1     -12.245  14.411  66.489  1.00  0.00    -0.358 C  
BRANCH  14  15
HETATM   15  C   UNL     1     -11.982  13.254  65.522  1.00  0.00    -0.445 C  
BRANCH  15  16
HETATM   16  C   UNL     1     -11.651  11.960  66.265  1.00  0.00    -0.317 C  
BRANCH  16  17
HETATM   17  C   UNL     1     -10.716  11.074  65.451  1.00  0.00    -0.222 C  
BRANCH  17  18
HETATM   18  C   UNL     1      -9.786  10.262  66.332  1.00  0.00    -0.252 C  
BRANCH  18  19
HETATM   19  C   UNL     1     -10.491   8.977  66.746  1.00  0.00    -0.270 C  
BRANCH  19  20
HETATM   20  C   UNL     1      -9.995   8.513  68.104  1.00  0.00    -0.214 C  
BRANCH  20  21
HETATM   21  C   UNL     1     -10.220   9.593  69.151  1.00  0.00    -0.212 C  
BRANCH  21  22
HETATM   22  C   UNL     1     -10.739   8.970  70.438  1.00  0.00    -0.267 C  
BRANCH  22  23
HETATM   23  C   UNL     1      -9.663   8.976  71.516  1.00  0.00    -0.365 C  
BRANCH  23  24
HETATM   24  C   UNL     1      -9.601   7.626  72.217  1.00  0.00    -0.215 C  
BRANCH  24  25
HETATM   25  C   UNL     1      -8.280   7.448  72.948  1.00  0.00    -0.112 C  
HETATM   26  O   UNL     1      -7.629   8.704  73.070  1.00  0.00    -0.352 OA 
HETATM   27  H   UNL     1      -6.803   8.593  73.527  1.00  0.00     0.000 HD 
ENDBRANCH  24  25
ENDBRANCH  23  24
ENDBRANCH  22  23
ENDBRANCH  21  22
ENDBRANCH  20  21
ENDBRANCH  19  20
ENDBRANCH  18  19
ENDBRANCH  17  18
ENDBRANCH  16  17
ENDBRANCH  15  16
ENDBRANCH  14  15
ENDBRANCH   9  14
ENDBRANCH   2   3
TORSDOF 14
ENDMDL
MODEL      283
REMARK 921   NORMALIZED FREE ENERGY PREDICTED BY IDOCK:   -2.94 KCAL/MOL
REMARK 922        TOTAL FREE ENERGY PREDICTED BY IDOCK:   -7.16 KCAL/MOL
REMARK 923 INTER-LIGAND FREE ENERGY PREDICTED BY IDOCK:   -5.96 KCAL/MOL
REMARK 924 INTRA-LIGAND FREE ENERGY PREDICTED BY IDOCK:   -1.20 KCAL/MOL
REMARK 927      BINDING AFFINITY PREDICTED BY RF-SCORE:    0.00 PKD
ROOT
HETATM    1  C   UNL     1     -12.976  15.487  71.393  1.00  0.00    -0.483 C  
HETATM    2  O   UNL     1     -13.127  15.029  70.056  1.00  0.00    -0.080 OA 
ENDROOT
BRANCH   2   3
HETATM    3  C   UNL     1     -12.069  14.294  69.523  1.00  0.00    -0.330 C  
HETATM    4  C   UNL     1     -11.207  14.919  68.702  1.00  0.00    -0.275 C  
HETATM    5  C   UNL     1     -10.084  14.134  68.106  1.00  0.00    -0.239 C  
HETATM    6  O   UNL     1     -12.448  12.264  70.752  1.00  0.00    -0.346 OA 
HETATM    7  O   UNL     1      -9.059  14.650  67.672  1.00  0.00    -0.184 OA 
HETATM    8  C   UNL     1     -11.909  12.827  69.805  1.00  0.00    -0.310 C  
HETATM    9  C   UNL     1     -10.267  12.659  68.008  1.00  0.00    -0.230 C  
HETATM   10  C   UNL     1     -11.326  10.545  68.905  1.00  0.00    -0.313 C  
HETATM   11  C   UNL     1     -11.111  12.031  68.841  1.00  0.00    -0.298 C  
BRANCH   4  12
HETATM   12  O   UNL     1     -11.392  16.278  68.451  1.00  0.00    -0.367 OA 
HETATM   13  C   UNL     1     -10.632  17.215  69.205  1.00  0.00    -0.259 C  
ENDBRANCH   4  12
BRANCH   9  14
HETATM   14  C   UNL     1      -9.475  11.985  66.930  1.00  0.00    -0.206 C  
BRANCH  14  15
HETATM   15  C   UNL     1     -10.326  11.585  65.723  1.00  0.00    -0.295 C  
BRANCH  15  16
HETATM   16  C   UNL     1     -10.126  10.116  65.351  1.00  0.00    -0.342 C  
BRANCH  16  17
HETATM   17  C   UNL     1      -8.805   9.901  64.622  1.00  0.00    -0.234 C  
BRANCH  17  18
HETATM   18  C   UNL     1      -7.849   9.029  65.414  1.00  0.00    -0.101 C  
BRANCH  18  19
HETATM   19  C   UNL     1      -8.571   8.492  66.643  1.00  0.00    -0.122 C  
BRANCH  19  20
HETATM   20  C   UNL     1      -8.274   7.016  66.831  1.00  0.00    -0.117 C  
BRANCH  20  21
HETATM   21  C   UNL     1      -8.692   6.227  65.600  1.00  0.00    -0.122 C  
BRANCH  21  22
HETATM   22  C   UNL     1      -7.694   5.110  65.334  1.00  0.00    -0.087 C  
BRANCH  22  23
HETATM   23  C   UNL     1      -8.267   3.760  65.747  1.00  0.00    -0.105 C  
BRANCH  23  24
HETATM   24  C   UNL     1      -7.908   2.691  64.724  1.00  0.00    -0.077 C  
BRANCH  24  25
HETATM   25  C   UNL     1      -9.091   2.373  63.825  1.00  0.00    -0.097 C  
HETATM   26  O   UNL     1     -10.268   2.962  64.358  1.00  0.00    -0.342 OA 
HETATM   27  H   UNL     1     -11.008   2.764  63.796  1.00  0.00     0.000 HD 
ENDBRANCH  24  25
ENDBRANCH  23  24
ENDBRANCH  22  23
ENDBRANCH  21  22
ENDBRANCH  20  21
ENDBRANCH  19  20
ENDBRANCH  18  19
ENDBRANCH  17  18
ENDBRANCH  16  17
ENDBRANCH  15  16
ENDBRANCH  14  15
ENDBRANCH   9  14
ENDBRANCH   2   3
TORSDOF 14
ENDMDL
MODEL      284
REMARK 921   NORMALIZED FREE ENERGY PREDICTED BY IDOCK:   -2.93 KCAL/MOL
REMARK 922        TOTAL FREE ENERGY PREDICTED BY IDOCK:   -7.15 KCAL/MOL
REMARK 923 INTER-LIGAND FREE ENERGY PREDICTED BY IDOCK:   -5.83 KCAL/MOL
REMARK 924 INTRA-LIGAND FREE ENERGY PREDICTED BY IDOCK:   -1.32 KCAL/MOL
REMARK 927      BINDING AFFINITY PREDICTED BY RF-SCORE:    0.00 PKD
ROOT
HETATM    1  C   UNL     1      -8.936   7.221  67.785  1.00  0.00    -0.126 C  
HETATM    2  O   UNL     1      -8.839   8.381  68.601  1.00  0.00    -0.136 OA 
ENDROOT
BRANCH   2   3
HETATM    3  C   UNL     1      -8.783   9.607  67.941  1.00  0.00    -0.119 C  
HETATM    4  C   UNL     1      -7.613  10.270  67.923  1.00  0.00    -0.089 C  
HETATM    5  C   UNL     1      -7.548  11.597  67.240  1.00  0.00    -0.147 C  
HETATM    6  O   UNL     1     -10.999   9.566  67.015  1.00  0.00    -0.138 OA 
HETATM    7  O   UNL     1      -6.502  12.096  66.839  1.00  0.00    -0.125 OA 
HETATM    8  C   UNL     1     -10.001  10.215  67.305  1.00  0.00    -0.195 C  
HETATM    9  C   UNL     1      -8.828  12.345  67.093  1.00  0.00    -0.197 C  
HETATM   10  C   UNL     1     -11.346  12.302  66.865  1.00  0.00    -0.392 C  
HETATM   11  C   UNL     1      -9.996  11.683  67.089  1.00  0.00    -0.219 C  
BRANCH   4  12
HETATM   12  O   UNL     1      -6.505   9.683  68.534  1.00  0.00    -0.051 OA 
HETATM   13  C   UNL     1      -6.135  10.127  69.834  1.00  0.00    -0.057 C  
ENDBRANCH   4  12
BRANCH   9  14
HETATM   14  C   UNL     1      -8.692  13.832  66.977  1.00  0.00    -0.212 C  
BRANCH  14  15
HETATM   15  C   UNL     1      -8.500  14.522  68.330  1.00  0.00    -0.161 C  
BRANCH  15  16
HETATM   16  C   UNL     1      -9.823  14.679  69.078  1.00  0.00    -0.178 C  
BRANCH  16  17
HETATM   17  C   UNL     1     -10.246  16.141  69.160  1.00  0.00    -0.255 C  
BRANCH  17  18
HETATM   18  C   UNL     1     -10.906  16.620  67.881  1.00  0.00    -0.321 C  
BRANCH  18  19
HETATM   19  C   UNL     1      -9.963  17.577  67.164  1.00  0.00    -0.314 C  
BRANCH  19  20
HETATM   20  C   UNL     1     -10.628  18.926  66.961  1.00  0.00    -0.510 C  
BRANCH  20  21
HETATM   21  C   UNL     1      -9.685  19.883  66.247  1.00  0.00    -0.551 C  
BRANCH  21  22
HETATM   22  C   UNL     1      -8.930  20.724  67.266  1.00  0.00    -0.286 C  
BRANCH  22  23
HETATM   23  C   UNL     1      -7.425  20.548  67.105  1.00  0.00    -0.375 C  
BRANCH  23  24
HETATM   24  C   UNL     1      -7.113  19.713  65.871  1.00  0.00    -0.308 C  
BRANCH  24  25
HETATM   25  C   UNL     1      -6.232  18.525  66.222  1.00  0.00    -0.184 C  
HETATM   26  O   UNL     1      -6.416  18.181  67.587  1.00  0.00    -0.184 OA 
HETATM   27  H   UNL     1      -5.866  17.438  67.807  1.00  0.00     0.000 HD 
ENDBRANCH  24  25
ENDBRANCH  23  24
ENDBRANCH  22  23
ENDBRANCH  21  22
ENDBRANCH  20  21
ENDBRANCH  19  20
ENDBRANCH  18  19
ENDBRANCH  17  18
ENDBRANCH  16  17
ENDBRANCH  15  16
ENDBRANCH  14  15
ENDBRANCH   9  14
ENDBRANCH   2   3
TORSDOF 14
ENDMDL
MODEL      285
REMARK 921   NORMALIZED FREE ENERGY PREDICTED BY IDOCK:   -2.93 KCAL/MOL
REMARK 922        TOTAL FREE ENERGY PREDICTED BY IDOCK:   -7.15 KCAL/MOL
REMARK 923 INTER-LIGAND FREE ENERGY PREDICTED BY IDOCK:   -4.36 KCAL/MOL
REMARK 924 INTRA-LIGAND FREE ENERGY PREDICTED BY IDOCK:   -2.79 KCAL/MOL
REMARK 927      BINDING AFFINITY PREDICTED BY RF-SCORE:    0.00 PKD
ROOT
HETATM    1  C   UNL     1      -7.894  10.491  68.968  1.00  0.00    -0.129 C  
HETATM    2  O   UNL     1      -9.198  10.428  69.530  1.00  0.00    -0.194 OA 
ENDROOT
BRANCH   2   3
HETATM    3  C   UNL     1      -9.780   9.164  69.620  1.00  0.00    -0.176 C  
HETATM    4  C   UNL     1      -9.678   8.496  70.783  1.00  0.00    -0.183 C  
HETATM    5  C   UNL     1     -10.276   7.130  70.883  1.00  0.00    -0.197 C  
HETATM    6  O   UNL     1     -10.859   9.161  67.474  1.00  0.00    -0.242 OA 
HETATM    7  O   UNL     1     -10.573   6.603  71.949  1.00  0.00    -0.208 OA 
HETATM    8  C   UNL     1     -10.463   8.526  68.444  1.00  0.00    -0.171 C  
HETATM    9  C   UNL     1     -10.468   6.381  69.609  1.00  0.00    -0.278 C  
HETATM   10  C   UNL     1     -10.873   6.424  67.113  1.00  0.00    -0.467 C  
HETATM   11  C   UNL     1     -10.592   7.048  68.451  1.00  0.00    -0.240 C  
BRANCH   4  12
HETATM   12  O   UNL     1      -9.026   9.112  71.851  1.00  0.00    -0.340 OA 
HETATM   13  C   UNL     1      -7.792   8.564  72.297  1.00  0.00    -0.063 C  
ENDBRANCH   4  12
BRANCH   9  14
HETATM   14  C   UNL     1     -10.487   4.889  69.739  1.00  0.00    -0.074 C  
BRANCH  14  15
HETATM   15  C   UNL     1      -9.117   4.251  69.498  1.00  0.00    -0.183 C  
BRANCH  15  16
HETATM   16  C   UNL     1      -9.113   3.377  68.244  1.00  0.00    -0.206 C  
BRANCH  16  17
HETATM   17  C   UNL     1      -7.735   3.341  67.594  1.00  0.00    -0.072 C  
BRANCH  17  18
HETATM   18  C   UNL     1      -6.658   3.901  68.504  1.00  0.00    -0.045 C  
BRANCH  18  19
HETATM   19  C   UNL     1      -5.761   4.831  67.697  1.00  0.00    -0.021 C  
BRANCH  19  20
HETATM   20  C   UNL     1      -5.532   6.131  68.446  1.00  0.00    -0.008 C  
BRANCH  20  21
HETATM   21  C   UNL     1      -6.803   6.967  68.463  1.00  0.00    -0.073 C  
BRANCH  21  22
HETATM   22  C   UNL     1      -7.227   7.297  67.040  1.00  0.00    -0.092 C  
BRANCH  22  23
HETATM   23  C   UNL     1      -6.276   8.307  66.411  1.00  0.00    -0.049 C  
BRANCH  23  24
HETATM   24  C   UNL     1      -6.853   8.846  65.109  1.00  0.00    -0.076 C  
BRANCH  24  25
HETATM   25  C   UNL     1      -8.370   8.905  65.165  1.00  0.00    -0.161 C  
HETATM   26  O   UNL     1      -8.908   8.590  63.889  1.00  0.00    -0.413 OA 
HETATM   27  H   UNL     1      -9.857   8.626  63.924  1.00  0.00     0.000 HD 
ENDBRANCH  24  25
ENDBRANCH  23  24
ENDBRANCH  22  23
ENDBRANCH  21  22
ENDBRANCH  20  21
ENDBRANCH  19  20
ENDBRANCH  18  19
ENDBRANCH  17  18
ENDBRANCH  16  17
ENDBRANCH  15  16
ENDBRANCH  14  15
ENDBRANCH   9  14
ENDBRANCH   2   3
TORSDOF 14
ENDMDL
MODEL      286
REMARK 921   NORMALIZED FREE ENERGY PREDICTED BY IDOCK:   -2.90 KCAL/MOL
REMARK 922        TOTAL FREE ENERGY PREDICTED BY IDOCK:   -7.10 KCAL/MOL
REMARK 923 INTER-LIGAND FREE ENERGY PREDICTED BY IDOCK:   -5.67 KCAL/MOL
REMARK 924 INTRA-LIGAND FREE ENERGY PREDICTED BY IDOCK:   -1.43 KCAL/MOL
REMARK 927      BINDING AFFINITY PREDICTED BY RF-SCORE:    0.00 PKD
ROOT
HETATM    1  C   UNL     1      -5.254  10.496  62.875  1.00  0.00    -0.151 C  
HETATM    2  O   UNL     1      -6.254   9.599  63.339  1.00  0.00    -0.097 OA 
ENDROOT
BRANCH   2   3
HETATM    3  C   UNL     1      -6.965   9.987  64.473  1.00  0.00    -0.136 C  
HETATM    4  C   UNL     1      -8.283  10.228  64.349  1.00  0.00    -0.159 C  
HETATM    5  C   UNL     1      -9.050  10.669  65.553  1.00  0.00    -0.190 C  
HETATM    6  O   UNL     1      -5.190   9.711  66.068  1.00  0.00    -0.035 OA 
HETATM    7  O   UNL     1     -10.267  10.554  65.653  1.00  0.00    -0.262 OA 
HETATM    8  C   UNL     1      -6.287  10.187  65.798  1.00  0.00    -0.102 C  
HETATM    9  C   UNL     1      -8.276  11.318  66.648  1.00  0.00    -0.164 C  
HETATM   10  C   UNL     1      -6.090  11.578  67.893  1.00  0.00    -0.048 C  
HETATM   11  C   UNL     1      -6.966  11.061  66.787  1.00  0.00    -0.131 C  
BRANCH   4  12
HETATM   12  O   UNL     1      -8.879  10.046  63.101  1.00  0.00    -0.192 OA 
HETATM   13  C   UNL     1      -9.403  11.184  62.429  1.00  0.00    -0.137 C  
ENDBRANCH   4  12
BRANCH   9  14
HETATM   14  C   UNL     1      -9.057  12.251  67.520  1.00  0.00    -0.182 C  
BRANCH  14  15
HETATM   15  C   UNL     1      -9.839  11.529  68.620  1.00  0.00    -0.184 C  
BRANCH  15  16
HETATM   16  C   UNL     1     -11.163  12.229  68.925  1.00  0.00    -0.323 C  
BRANCH  16  17
HETATM   17  C   UNL     1     -11.692  12.977  67.707  1.00  0.00    -0.405 C  
BRANCH  17  18
HETATM   18  C   UNL     1     -11.911  14.451  67.991  1.00  0.00    -0.326 C  
BRANCH  18  19
HETATM   19  C   UNL     1     -11.682  14.710  69.474  1.00  0.00    -0.366 C  
BRANCH  19  20
HETATM   20  C   UNL     1     -10.967  16.033  69.678  1.00  0.00    -0.326 C  
BRANCH  20  21
HETATM   21  C   UNL     1      -9.459  15.840  69.611  1.00  0.00    -0.204 C  
BRANCH  21  22
HETATM   22  C   UNL     1      -8.838  16.900  68.715  1.00  0.00    -0.255 C  
BRANCH  22  23
HETATM   23  C   UNL     1      -9.820  18.035  68.457  1.00  0.00    -0.383 C  
BRANCH  23  24
HETATM   24  C   UNL     1      -9.078  19.308  68.074  1.00  0.00    -0.368 C  
BRANCH  24  25
HETATM   25  C   UNL     1      -7.870  19.530  68.969  1.00  0.00    -0.275 C  
HETATM   26  O   UNL     1      -6.771  19.972  68.187  1.00  0.00    -0.270 OA 
HETATM   27  H   UNL     1      -6.015  20.111  68.747  1.00  0.00     0.000 HD 
ENDBRANCH  24  25
ENDBRANCH  23  24
ENDBRANCH  22  23
ENDBRANCH  21  22
ENDBRANCH  20  21
ENDBRANCH  19  20
ENDBRANCH  18  19
ENDBRANCH  17  18
ENDBRANCH  16  17
ENDBRANCH  15  16
ENDBRANCH  14  15
ENDBRANCH   9  14
ENDBRANCH   2   3
TORSDOF 14
ENDMDL
MODEL      287
REMARK 921   NORMALIZED FREE ENERGY PREDICTED BY IDOCK:   -2.90 KCAL/MOL
REMARK 922        TOTAL FREE ENERGY PREDICTED BY IDOCK:   -7.10 KCAL/MOL
REMARK 923 INTER-LIGAND FREE ENERGY PREDICTED BY IDOCK:   -5.76 KCAL/MOL
REMARK 924 INTRA-LIGAND FREE ENERGY PREDICTED BY IDOCK:   -1.34 KCAL/MOL
REMARK 927      BINDING AFFINITY PREDICTED BY RF-SCORE:    0.00 PKD
ROOT
HETATM    1  C   UNL     1      -7.048   4.193  67.050  1.00  0.00    -0.067 C  
HETATM    2  O   UNL     1      -6.612   5.474  67.484  1.00  0.00    -0.050 OA 
ENDROOT
BRANCH   2   3
HETATM    3  C   UNL     1      -7.599   6.355  67.923  1.00  0.00    -0.102 C  
HETATM    4  C   UNL     1      -7.983   7.346  67.098  1.00  0.00    -0.114 C  
HETATM    5  C   UNL     1      -9.023   8.310  67.568  1.00  0.00    -0.134 C  
HETATM    6  O   UNL     1      -8.131   5.231  69.978  1.00  0.00    -0.081 OA 
HETATM    7  O   UNL     1      -9.703   8.990  66.806  1.00  0.00    -0.179 OA 
HETATM    8  C   UNL     1      -8.194   6.249  69.298  1.00  0.00    -0.114 C  
HETATM    9  C   UNL     1      -9.187   8.463  69.041  1.00  0.00    -0.147 C  
HETATM   10  C   UNL     1      -9.013   7.457  71.355  1.00  0.00    -0.141 C  
HETATM   11  C   UNL     1      -8.825   7.467  69.864  1.00  0.00    -0.141 C  
BRANCH   4  12
HETATM   12  O   UNL     1      -7.401   7.424  65.833  1.00  0.00    -0.071 OA 
HETATM   13  C   UNL     1      -8.152   6.969  64.714  1.00  0.00    -0.096 C  
ENDBRANCH   4  12
BRANCH   9  14
HETATM   14  C   UNL     1      -9.747   9.777  69.491  1.00  0.00    -0.228 C  
BRANCH  14  15
HETATM   15  C   UNL     1     -11.264   9.744  69.692  1.00  0.00    -0.216 C  
BRANCH  15  16
HETATM   16  C   UNL     1     -11.935  11.004  69.145  1.00  0.00    -0.394 C  
BRANCH  16  17
HETATM   17  C   UNL     1     -10.934  11.900  68.426  1.00  0.00    -0.273 C  
BRANCH  17  18
HETATM   18  C   UNL     1     -11.180  11.947  66.929  1.00  0.00    -0.382 C  
BRANCH  18  19
HETATM   19  C   UNL     1     -12.278  12.962  66.638  1.00  0.00    -0.229 C  
BRANCH  19  20
HETATM   20  C   UNL     1     -12.533  13.055  65.145  1.00  0.00    -0.552 C  
BRANCH  20  21
HETATM   21  C   UNL     1     -12.226  14.456  64.638  1.00  0.00    -0.479 C  
BRANCH  21  22
HETATM   22  C   UNL     1     -10.727  14.709  64.684  1.00  0.00    -0.309 C  
BRANCH  22  23
HETATM   23  C   UNL     1     -10.415  15.974  65.474  1.00  0.00    -0.426 C  
BRANCH  23  24
HETATM   24  C   UNL     1      -9.120  15.809  66.257  1.00  0.00    -0.373 C  
BRANCH  24  25
HETATM   25  C   UNL     1      -9.388  15.270  67.652  1.00  0.00    -0.199 C  
HETATM   26  O   UNL     1     -10.631  15.768  68.126  1.00  0.00    -0.258 OA 
HETATM   27  H   UNL     1     -10.799  15.430  68.998  1.00  0.00     0.000 HD 
ENDBRANCH  24  25
ENDBRANCH  23  24
ENDBRANCH  22  23
ENDBRANCH  21  22
ENDBRANCH  20  21
ENDBRANCH  19  20
ENDBRANCH  18  19
ENDBRANCH  17  18
ENDBRANCH  16  17
ENDBRANCH  15  16
ENDBRANCH  14  15
ENDBRANCH   9  14
ENDBRANCH   2   3
TORSDOF 14
ENDMDL
MODEL      288
REMARK 921   NORMALIZED FREE ENERGY PREDICTED BY IDOCK:   -2.90 KCAL/MOL
REMARK 922        TOTAL FREE ENERGY PREDICTED BY IDOCK:   -7.10 KCAL/MOL
REMARK 923 INTER-LIGAND FREE ENERGY PREDICTED BY IDOCK:   -5.02 KCAL/MOL
REMARK 924 INTRA-LIGAND FREE ENERGY PREDICTED BY IDOCK:   -2.08 KCAL/MOL
REMARK 927      BINDING AFFINITY PREDICTED BY RF-SCORE:    0.00 PKD
ROOT
HETATM    1  C   UNL     1     -10.171   4.790  66.640  1.00  0.00    -0.238 C  
HETATM    2  O   UNL     1      -8.766   4.800  66.422  1.00  0.00    -0.113 OA 
ENDROOT
BRANCH   2   3
HETATM    3  C   UNL     1      -8.169   6.047  66.242  1.00  0.00    -0.118 C  
HETATM    4  C   UNL     1      -7.796   6.739  67.333  1.00  0.00    -0.110 C  
HETATM    5  C   UNL     1      -7.179   8.088  67.153  1.00  0.00    -0.087 C  
HETATM    6  O   UNL     1      -8.012   5.977  63.846  1.00  0.00    -0.115 OA 
HETATM    7  O   UNL     1      -6.479   8.626  68.004  1.00  0.00    -0.055 OA 
HETATM    8  C   UNL     1      -7.986   6.642  64.875  1.00  0.00    -0.121 C  
HETATM    9  C   UNL     1      -7.483   8.807  65.883  1.00  0.00    -0.089 C  
HETATM   10  C   UNL     1      -8.084   8.706  63.429  1.00  0.00    -0.168 C  
HETATM   11  C   UNL     1      -7.834   8.115  64.788  1.00  0.00    -0.137 C  
BRANCH   4  12
HETATM   12  O   UNL     1      -7.993   6.163  68.588  1.00  0.00    -0.099 OA 
HETATM   13  C   UNL     1      -6.953   5.363  69.135  1.00  0.00    -0.056 C  
ENDBRANCH   4  12
BRANCH   9  14
HETATM   14  C   UNL     1      -7.385  10.299  65.953  1.00  0.00    -0.131 C  
BRANCH  14  15
HETATM   15  C   UNL     1      -8.573  10.945  66.669  1.00  0.00    -0.148 C  
BRANCH  15  16
HETATM   16  C   UNL     1      -9.563  11.560  65.681  1.00  0.00    -0.256 C  
BRANCH  16  17
HETATM   17  C   UNL     1     -10.935  11.757  66.316  1.00  0.00    -0.346 C  
BRANCH  17  18
HETATM   18  C   UNL     1     -10.987  12.992  67.195  1.00  0.00    -0.293 C  
BRANCH  18  19
HETATM   19  C   UNL     1     -12.151  12.858  68.168  1.00  0.00    -0.183 C  
BRANCH  19  20
HETATM   20  C   UNL     1     -11.731  13.289  69.562  1.00  0.00    -0.384 C  
BRANCH  20  21
HETATM   21  C   UNL     1     -12.399  12.416  70.614  1.00  0.00    -0.367 C  
BRANCH  21  22
HETATM   22  C   UNL     1     -12.503  10.984  70.111  1.00  0.00    -0.344 C  
BRANCH  22  23
HETATM   23  C   UNL     1     -11.368  10.131  70.664  1.00  0.00    -0.433 C  
BRANCH  23  24
HETATM   24  C   UNL     1     -10.362   9.806  69.569  1.00  0.00    -0.247 C  
BRANCH  24  25
HETATM   25  C   UNL     1      -9.059   9.290  70.157  1.00  0.00    -0.222 C  
HETATM   26  O   UNL     1      -9.222   7.941  70.570  1.00  0.00    -0.156 OA 
HETATM   27  H   UNL     1      -8.408   7.618  70.937  1.00  0.00     0.000 HD 
ENDBRANCH  24  25
ENDBRANCH  23  24
ENDBRANCH  22  23
ENDBRANCH  21  22
ENDBRANCH  20  21
ENDBRANCH  19  20
ENDBRANCH  18  19
ENDBRANCH  17  18
ENDBRANCH  16  17
ENDBRANCH  15  16
ENDBRANCH  14  15
ENDBRANCH   9  14
ENDBRANCH   2   3
TORSDOF 14
ENDMDL
MODEL      289
REMARK 921   NORMALIZED FREE ENERGY PREDICTED BY IDOCK:   -2.90 KCAL/MOL
REMARK 922        TOTAL FREE ENERGY PREDICTED BY IDOCK:   -7.10 KCAL/MOL
REMARK 923 INTER-LIGAND FREE ENERGY PREDICTED BY IDOCK:   -5.73 KCAL/MOL
REMARK 924 INTRA-LIGAND FREE ENERGY PREDICTED BY IDOCK:   -1.37 KCAL/MOL
REMARK 927      BINDING AFFINITY PREDICTED BY RF-SCORE:    0.00 PKD
ROOT
HETATM    1  C   UNL     1      -7.191   4.125  67.323  1.00  0.00    -0.068 C  
HETATM    2  O   UNL     1      -6.724   5.319  67.936  1.00  0.00    -0.052 OA 
ENDROOT
BRANCH   2   3
HETATM    3  C   UNL     1      -7.666   6.074  68.634  1.00  0.00    -0.095 C  
HETATM    4  C   UNL     1      -8.270   7.091  67.993  1.00  0.00    -0.119 C  
HETATM    5  C   UNL     1      -9.263   7.922  68.739  1.00  0.00    -0.143 C  
HETATM    6  O   UNL     1      -7.712   4.747  70.636  1.00  0.00    -0.063 OA 
HETATM    7  O   UNL     1     -10.123   8.599  68.185  1.00  0.00    -0.181 OA 
HETATM    8  C   UNL     1      -7.975   5.807  70.080  1.00  0.00    -0.099 C  
HETATM    9  C   UNL     1      -9.149   7.941  70.225  1.00  0.00    -0.152 C  
HETATM   10  C   UNL     1      -8.462   6.771  72.358  1.00  0.00    -0.121 C  
HETATM   11  C   UNL     1      -8.567   6.917  70.866  1.00  0.00    -0.136 C  
BRANCH   4  12
HETATM   12  O   UNL     1      -7.950   7.319  66.655  1.00  0.00    -0.109 OA 
HETATM   13  C   UNL     1      -8.693   6.633  65.656  1.00  0.00    -0.082 C  
ENDBRANCH   4  12
BRANCH   9  14
HETATM   14  C   UNL     1      -9.701   9.162  70.894  1.00  0.00    -0.352 C  
BRANCH  14  15
HETATM   15  C   UNL     1     -11.139   8.978  71.383  1.00  0.00    -0.399 C  
BRANCH  15  16
HETATM   16  C   UNL     1     -12.036  10.139  70.955  1.00  0.00    -0.461 C  
BRANCH  16  17
HETATM   17  C   UNL     1     -11.307  11.086  70.009  1.00  0.00    -0.358 C  
BRANCH  17  18
HETATM   18  C   UNL     1     -12.146  12.300  69.656  1.00  0.00    -0.277 C  
BRANCH  18  19
HETATM   19  C   UNL     1     -11.257  13.339  68.984  1.00  0.00    -0.320 C  
BRANCH  19  20
HETATM   20  C   UNL     1     -12.094  14.480  68.437  1.00  0.00    -0.249 C  
BRANCH  20  21
HETATM   21  C   UNL     1     -11.665  14.824  67.018  1.00  0.00    -0.330 C  
BRANCH  21  22
HETATM   22  C   UNL     1     -11.911  13.638  66.099  1.00  0.00    -0.453 C  
BRANCH  22  23
HETATM   23  C   UNL     1     -10.752  13.455  65.127  1.00  0.00    -0.339 C  
BRANCH  23  24
HETATM   24  C   UNL     1     -10.542  11.980  64.817  1.00  0.00    -0.340 C  
BRANCH  24  25
HETATM   25  C   UNL     1      -9.437  11.390  65.678  1.00  0.00    -0.230 C  
HETATM   26  O   UNL     1      -9.430   9.977  65.545  1.00  0.00    -0.198 OA 
HETATM   27  H   UNL     1      -8.739   9.608  66.083  1.00  0.00     0.000 HD 
ENDBRANCH  24  25
ENDBRANCH  23  24
ENDBRANCH  22  23
ENDBRANCH  21  22
ENDBRANCH  20  21
ENDBRANCH  19  20
ENDBRANCH  18  19
ENDBRANCH  17  18
ENDBRANCH  16  17
ENDBRANCH  15  16
ENDBRANCH  14  15
ENDBRANCH   9  14
ENDBRANCH   2   3
TORSDOF 14
ENDMDL
MODEL      290
REMARK 921   NORMALIZED FREE ENERGY PREDICTED BY IDOCK:   -2.90 KCAL/MOL
REMARK 922        TOTAL FREE ENERGY PREDICTED BY IDOCK:   -7.09 KCAL/MOL
REMARK 923 INTER-LIGAND FREE ENERGY PREDICTED BY IDOCK:   -5.95 KCAL/MOL
REMARK 924 INTRA-LIGAND FREE ENERGY PREDICTED BY IDOCK:   -1.14 KCAL/MOL
REMARK 927      BINDING AFFINITY PREDICTED BY RF-SCORE:    0.00 PKD
ROOT
HETATM    1  C   UNL     1     -11.446   5.859  72.307  1.00  0.00    -0.297 C  
HETATM    2  O   UNL     1     -10.738   7.073  72.523  1.00  0.00    -0.220 OA 
ENDROOT
BRANCH   2   3
HETATM    3  C   UNL     1     -10.371   7.793  71.387  1.00  0.00    -0.197 C  
HETATM    4  C   UNL     1      -9.273   7.408  70.714  1.00  0.00    -0.159 C  
HETATM    5  C   UNL     1      -8.856   8.188  69.510  1.00  0.00    -0.143 C  
HETATM    6  O   UNL     1     -12.288   9.239  71.300  1.00  0.00    -0.310 OA 
HETATM    7  O   UNL     1      -8.133   7.732  68.630  1.00  0.00    -0.123 OA 
HETATM    8  C   UNL     1     -11.139   9.005  70.941  1.00  0.00    -0.280 C  
HETATM    9  C   UNL     1      -9.322   9.601  69.425  1.00  0.00    -0.201 C  
HETATM   10  C   UNL     1     -11.055  11.347  70.011  1.00  0.00    -0.051 C  
HETATM   11  C   UNL     1     -10.431   9.982  70.079  1.00  0.00    -0.337 C  
BRANCH   4  12
HETATM   12  O   UNL     1      -8.575   6.287  71.163  1.00  0.00    -0.124 OA 
HETATM   13  C   UNL     1      -8.737   5.062  70.458  1.00  0.00    -0.113 C  
ENDBRANCH   4  12
BRANCH   9  14
HETATM   14  C   UNL     1      -8.466  10.510  68.599  1.00  0.00    -0.138 C  
BRANCH  14  15
HETATM   15  C   UNL     1      -7.496  11.344  69.438  1.00  0.00     0.060 C  
BRANCH  15  16
HETATM   16  C   UNL     1      -7.002  12.574  68.676  1.00  0.00    -0.091 C  
BRANCH  16  17
HETATM   17  C   UNL     1      -7.410  13.865  69.376  1.00  0.00     0.127 C  
BRANCH  17  18
HETATM   18  C   UNL     1      -7.995  14.879  68.412  1.00  0.00    -0.134 C  
BRANCH  18  19
HETATM   19  C   UNL     1      -9.471  15.075  68.733  1.00  0.00    -0.210 C  
BRANCH  19  20
HETATM   20  C   UNL     1     -10.312  14.934  67.478  1.00  0.00    -0.239 C  
BRANCH  20  21
HETATM   21  C   UNL     1     -11.586  14.157  67.773  1.00  0.00    -0.379 C  
BRANCH  21  22
HETATM   22  C   UNL     1     -11.695  12.963  66.838  1.00  0.00    -0.445 C  
BRANCH  22  23
HETATM   23  C   UNL     1     -12.336  13.366  65.516  1.00  0.00    -0.528 C  
BRANCH  23  24
HETATM   24  C   UNL     1     -11.279  13.502  64.429  1.00  0.00    -0.399 C  
BRANCH  24  25
HETATM   25  C   UNL     1     -10.994  12.163  63.769  1.00  0.00    -0.431 C  
HETATM   26  O   UNL     1     -12.216  11.480  63.529  1.00  0.00    -0.594 OA 
HETATM   27  H   UNL     1     -12.039  10.643  63.116  1.00  0.00     0.000 HD 
ENDBRANCH  24  25
ENDBRANCH  23  24
ENDBRANCH  22  23
ENDBRANCH  21  22
ENDBRANCH  20  21
ENDBRANCH  19  20
ENDBRANCH  18  19
ENDBRANCH  17  18
ENDBRANCH  16  17
ENDBRANCH  15  16
ENDBRANCH  14  15
ENDBRANCH   9  14
ENDBRANCH   2   3
TORSDOF 14
ENDMDL
MODEL      291
REMARK 921   NORMALIZED FREE ENERGY PREDICTED BY IDOCK:   -2.90 KCAL/MOL
REMARK 922        TOTAL FREE ENERGY PREDICTED BY IDOCK:   -7.09 KCAL/MOL
REMARK 923 INTER-LIGAND FREE ENERGY PREDICTED BY IDOCK:   -5.79 KCAL/MOL
REMARK 924 INTRA-LIGAND FREE ENERGY PREDICTED BY IDOCK:   -1.29 KCAL/MOL
REMARK 927      BINDING AFFINITY PREDICTED BY RF-SCORE:    0.00 PKD
ROOT
HETATM    1  C   UNL     1      -5.493  17.495  70.149  1.00  0.00    -0.243 C  
HETATM    2  O   UNL     1      -5.691  17.229  68.767  1.00  0.00    -0.151 OA 
ENDROOT
BRANCH   2   3
HETATM    3  C   UNL     1      -6.966  16.812  68.386  1.00  0.00    -0.170 C  
HETATM    4  C   UNL     1      -7.559  17.436  67.353  1.00  0.00    -0.191 C  
HETATM    5  C   UNL     1      -8.936  17.014  66.952  1.00  0.00    -0.229 C  
HETATM    6  O   UNL     1      -7.134  14.926  69.865  1.00  0.00    -0.180 OA 
HETATM    7  O   UNL     1      -9.408  17.228  65.841  1.00  0.00    -0.507 OA 
HETATM    8  C   UNL     1      -7.696  15.732  69.132  1.00  0.00    -0.220 C  
HETATM    9  C   UNL     1      -9.766  16.341  67.991  1.00  0.00    -0.230 C  
HETATM   10  C   UNL     1      -9.887  14.914  70.075  1.00  0.00     0.200 C  
HETATM   11  C   UNL     1      -9.175  15.700  69.011  1.00  0.00    -0.243 C  
BRANCH   4  12
HETATM   12  O   UNL     1      -6.859  18.444  66.691  1.00  0.00    -0.185 OA 
HETATM   13  C   UNL     1      -7.424  19.748  66.652  1.00  0.00    -0.256 C  
ENDBRANCH   4  12
BRANCH   9  14
HETATM   14  C   UNL     1     -11.247  16.463  67.806  1.00  0.00    -0.124 C  
BRANCH  14  15
HETATM   15  C   UNL     1     -11.987  15.140  68.011  1.00  0.00    -0.112 C  
BRANCH  15  16
HETATM   16  C   UNL     1     -12.033  14.313  66.727  1.00  0.00    -0.462 C  
BRANCH  16  17
HETATM   17  C   UNL     1     -11.903  12.823  67.018  1.00  0.00    -0.428 C  
BRANCH  17  18
HETATM   18  C   UNL     1     -11.190  12.082  65.903  1.00  0.00    -0.385 C  
BRANCH  18  19
HETATM   19  C   UNL     1      -9.859  12.768  65.622  1.00  0.00    -0.190 C  
BRANCH  19  20
HETATM   20  C   UNL     1      -8.987  12.762  66.864  1.00  0.00    -0.213 C  
BRANCH  20  21
HETATM   21  C   UNL     1      -8.581  11.341  67.224  1.00  0.00    -0.143 C  
BRANCH  21  22
HETATM   22  C   UNL     1      -8.925  11.054  68.677  1.00  0.00    -0.167 C  
BRANCH  22  23
HETATM   23  C   UNL     1      -9.038   9.555  68.922  1.00  0.00    -0.141 C  
BRANCH  23  24
HETATM   24  C   UNL     1      -9.110   8.801  67.601  1.00  0.00    -0.145 C  
BRANCH  24  25
HETATM   25  C   UNL     1     -10.438   8.076  67.455  1.00  0.00    -0.260 C  
HETATM   26  O   UNL     1     -10.968   7.787  68.741  1.00  0.00    -0.420 OA 
HETATM   27  H   UNL     1     -11.798   7.334  68.650  1.00  0.00     0.000 HD 
ENDBRANCH  24  25
ENDBRANCH  23  24
ENDBRANCH  22  23
ENDBRANCH  21  22
ENDBRANCH  20  21
ENDBRANCH  19  20
ENDBRANCH  18  19
ENDBRANCH  17  18
ENDBRANCH  16  17
ENDBRANCH  15  16
ENDBRANCH  14  15
ENDBRANCH   9  14
ENDBRANCH   2   3
TORSDOF 14
ENDMDL
MODEL      292
REMARK 921   NORMALIZED FREE ENERGY PREDICTED BY IDOCK:   -2.89 KCAL/MOL
REMARK 922        TOTAL FREE ENERGY PREDICTED BY IDOCK:   -7.08 KCAL/MOL
REMARK 923 INTER-LIGAND FREE ENERGY PREDICTED BY IDOCK:   -6.03 KCAL/MOL
REMARK 924 INTRA-LIGAND FREE ENERGY PREDICTED BY IDOCK:   -1.04 KCAL/MOL
REMARK 927      BINDING AFFINITY PREDICTED BY RF-SCORE:    0.00 PKD
ROOT
HETATM    1  C   UNL     1      -7.351   4.027  67.456  1.00  0.00    -0.068 C  
HETATM    2  O   UNL     1      -7.068   4.721  68.663  1.00  0.00    -0.055 OA 
ENDROOT
BRANCH   2   3
HETATM    3  C   UNL     1      -8.144   5.345  69.293  1.00  0.00    -0.093 C  
HETATM    4  C   UNL     1      -8.404   6.629  68.990  1.00  0.00    -0.120 C  
HETATM    5  C   UNL     1      -9.539   7.315  69.678  1.00  0.00    -0.155 C  
HETATM    6  O   UNL     1      -9.002   3.413  70.435  1.00  0.00    -0.079 OA 
HETATM    7  O   UNL     1     -10.091   8.314  69.229  1.00  0.00    -0.189 OA 
HETATM    8  C   UNL     1      -8.972   4.633  70.325  1.00  0.00    -0.096 C  
HETATM    9  C   UNL     1      -9.969   6.759  70.992  1.00  0.00    -0.196 C  
HETATM   10  C   UNL     1     -10.182   4.766  72.533  1.00  0.00    -0.245 C  
HETATM   11  C   UNL     1      -9.730   5.471  71.286  1.00  0.00    -0.215 C  
BRANCH   4  12
HETATM   12  O   UNL     1      -7.607   7.263  68.038  1.00  0.00    -0.109 OA 
HETATM   13  C   UNL     1      -8.168   7.537  66.760  1.00  0.00    -0.124 C  
ENDBRANCH   4  12
BRANCH   9  14
HETATM   14  C   UNL     1     -10.640   7.732  71.911  1.00  0.00    -0.270 C  
BRANCH  14  15
HETATM   15  C   UNL     1     -12.166   7.622  71.889  1.00  0.00    -0.336 C  
BRANCH  15  16
HETATM   16  C   UNL     1     -12.832   8.997  71.858  1.00  0.00    -0.451 C  
BRANCH  16  17
HETATM   17  C   UNL     1     -11.923  10.043  71.224  1.00  0.00    -0.483 C  
BRANCH  17  18
HETATM   18  C   UNL     1     -12.708  11.153  70.552  1.00  0.00    -0.302 C  
BRANCH  18  19
HETATM   19  C   UNL     1     -12.152  11.375  69.151  1.00  0.00    -0.331 C  
BRANCH  19  20
HETATM   20  C   UNL     1     -10.637  11.463  69.189  1.00  0.00    -0.196 C  
BRANCH  20  21
HETATM   21  C   UNL     1     -10.119  12.252  67.996  1.00  0.00    -0.206 C  
BRANCH  21  22
HETATM   22  C   UNL     1      -9.995  13.724  68.360  1.00  0.00    -0.229 C  
BRANCH  22  23
HETATM   23  C   UNL     1     -11.070  14.547  67.662  1.00  0.00    -0.314 C  
BRANCH  23  24
HETATM   24  C   UNL     1     -11.586  15.643  68.583  1.00  0.00    -0.391 C  
BRANCH  24  25
HETATM   25  C   UNL     1     -12.254  15.055  69.815  1.00  0.00    -0.285 C  
HETATM   26  O   UNL     1     -12.244  16.010  70.866  1.00  0.00    -0.494 OA 
HETATM   27  H   UNL     1     -12.662  15.643  71.636  1.00  0.00     0.000 HD 
ENDBRANCH  24  25
ENDBRANCH  23  24
ENDBRANCH  22  23
ENDBRANCH  21  22
ENDBRANCH  20  21
ENDBRANCH  19  20
ENDBRANCH  18  19
ENDBRANCH  17  18
ENDBRANCH  16  17
ENDBRANCH  15  16
ENDBRANCH  14  15
ENDBRANCH   9  14
ENDBRANCH   2   3
TORSDOF 14
ENDMDL
MODEL      293
REMARK 921   NORMALIZED FREE ENERGY PREDICTED BY IDOCK:   -2.86 KCAL/MOL
REMARK 922        TOTAL FREE ENERGY PREDICTED BY IDOCK:   -7.02 KCAL/MOL
REMARK 923 INTER-LIGAND FREE ENERGY PREDICTED BY IDOCK:   -5.97 KCAL/MOL
REMARK 924 INTRA-LIGAND FREE ENERGY PREDICTED BY IDOCK:   -1.04 KCAL/MOL
REMARK 927      BINDING AFFINITY PREDICTED BY RF-SCORE:    0.00 PKD
ROOT
HETATM    1  C   UNL     1      -7.769   6.874  69.606  1.00  0.00    -0.110 C  
HETATM    2  O   UNL     1      -8.527   8.055  69.836  1.00  0.00    -0.123 OA 
ENDROOT
BRANCH   2   3
HETATM    3  C   UNL     1      -8.282   9.131  68.984  1.00  0.00    -0.115 C  
HETATM    4  C   UNL     1      -7.650  10.208  69.482  1.00  0.00    -0.139 C  
HETATM    5  C   UNL     1      -7.404  11.377  68.585  1.00  0.00    -0.104 C  
HETATM    6  O   UNL     1      -9.052   8.105  66.953  1.00  0.00    -0.142 OA 
HETATM    7  O   UNL     1      -6.540  12.220  68.801  1.00  0.00    -0.072 OA 
HETATM    8  C   UNL     1      -8.751   9.128  67.557  1.00  0.00    -0.119 C  
HETATM    9  C   UNL     1      -8.299  11.521  67.402  1.00  0.00    -0.148 C  
HETATM   10  C   UNL     1      -9.771  10.435  65.656  1.00  0.00    -0.294 C  
HETATM   11  C   UNL     1      -8.914  10.444  66.890  1.00  0.00    -0.151 C  
BRANCH   4  12
HETATM   12  O   UNL     1      -7.240  10.183  70.815  1.00  0.00    -0.320 OA 
HETATM   13  C   UNL     1      -5.897   9.811  71.103  1.00  0.00    -0.071 C  
ENDBRANCH   4  12
BRANCH   9  14
HETATM   14  C   UNL     1      -8.453  12.917  66.881  1.00  0.00    -0.093 C  
BRANCH  14  15
HETATM   15  C   UNL     1      -8.366  13.978  67.980  1.00  0.00    -0.163 C  
BRANCH  15  16
HETATM   16  C   UNL     1      -8.869  15.338  67.495  1.00  0.00    -0.188 C  
BRANCH  16  17
HETATM   17  C   UNL     1      -9.127  16.285  68.661  1.00  0.00    -0.228 C  
BRANCH  17  18
HETATM   18  C   UNL     1     -10.599  16.362  69.020  1.00  0.00    -0.308 C  
BRANCH  18  19
HETATM   19  C   UNL     1     -10.931  15.240  69.995  1.00  0.00    -0.306 C  
BRANCH  19  20
HETATM   20  C   UNL     1     -12.253  14.592  69.629  1.00  0.00    -0.336 C  
BRANCH  20  21
HETATM   21  C   UNL     1     -12.029  13.423  68.681  1.00  0.00    -0.362 C  
BRANCH  21  22
HETATM   22  C   UNL     1     -12.214  13.879  67.241  1.00  0.00    -0.324 C  
BRANCH  22  23
HETATM   23  C   UNL     1     -12.024  12.716  66.276  1.00  0.00    -0.439 C  
BRANCH  23  24
HETATM   24  C   UNL     1     -12.894  12.899  65.040  1.00  0.00    -0.348 C  
BRANCH  24  25
HETATM   25  C   UNL     1     -12.160  13.683  63.964  1.00  0.00    -0.425 C  
HETATM   26  O   UNL     1     -10.954  13.013  63.624  1.00  0.00    -0.545 OA 
HETATM   27  H   UNL     1     -10.496  13.502  62.951  1.00  0.00     0.000 HD 
ENDBRANCH  24  25
ENDBRANCH  23  24
ENDBRANCH  22  23
ENDBRANCH  21  22
ENDBRANCH  20  21
ENDBRANCH  19  20
ENDBRANCH  18  19
ENDBRANCH  17  18
ENDBRANCH  16  17
ENDBRANCH  15  16
ENDBRANCH  14  15
ENDBRANCH   9  14
ENDBRANCH   2   3
TORSDOF 14
ENDMDL
MODEL      294
REMARK 921   NORMALIZED FREE ENERGY PREDICTED BY IDOCK:   -2.81 KCAL/MOL
REMARK 922        TOTAL FREE ENERGY PREDICTED BY IDOCK:   -6.93 KCAL/MOL
REMARK 923 INTER-LIGAND FREE ENERGY PREDICTED BY IDOCK:   -5.65 KCAL/MOL
REMARK 924 INTRA-LIGAND FREE ENERGY PREDICTED BY IDOCK:   -1.28 KCAL/MOL
REMARK 927      BINDING AFFINITY PREDICTED BY RF-SCORE:    0.00 PKD
ROOT
HETATM    1  C   UNL     1     -11.760  14.754  68.471  1.00  0.00    -0.317 C  
HETATM    2  O   UNL     1     -11.051  15.122  67.295  1.00  0.00    -0.321 OA 
ENDROOT
BRANCH   2   3
HETATM    3  C   UNL     1     -10.560  14.081  66.510  1.00  0.00    -0.279 C  
HETATM    4  C   UNL     1     -11.234  13.749  65.394  1.00  0.00    -0.302 C  
HETATM    5  C   UNL     1     -10.730  12.618  64.558  1.00  0.00    -0.341 C  
HETATM    6  O   UNL     1      -8.515  13.716  67.716  1.00  0.00    -0.157 OA 
HETATM    7  O   UNL     1     -11.019  12.476  63.375  1.00  0.00    -0.452 OA 
HETATM    8  C   UNL     1      -9.339  13.301  66.909  1.00  0.00    -0.244 C  
HETATM    9  C   UNL     1      -9.871  11.606  65.236  1.00  0.00    -0.279 C  
HETATM   10  C   UNL     1      -8.217  11.048  67.066  1.00  0.00    -0.138 C  
HETATM   11  C   UNL     1      -9.180  11.942  66.337  1.00  0.00    -0.218 C  
BRANCH   4  12
HETATM   12  O   UNL     1     -12.371  14.484  65.059  1.00  0.00    -0.403 OA 
HETATM   13  C   UNL     1     -12.277  15.430  64.001  1.00  0.00     0.051 C  
ENDBRANCH   4  12
BRANCH   9  14
HETATM   14  C   UNL     1      -9.871  10.245  64.613  1.00  0.00    -0.396 C  
BRANCH  14  15
HETATM   15  C   UNL     1      -8.974  10.153  63.377  1.00  0.00    -0.263 C  
BRANCH  15  16
HETATM   16  C   UNL     1      -7.925   9.049  63.519  1.00  0.00    -0.150 C  
BRANCH  16  17
HETATM   17  C   UNL     1      -6.658   9.568  64.188  1.00  0.00    -0.101 C  
BRANCH  17  18
HETATM   18  C   UNL     1      -6.079   8.568  65.171  1.00  0.00    -0.052 C  
BRANCH  18  19
HETATM   19  C   UNL     1      -5.794   7.263  64.440  1.00  0.00    -0.037 C  
BRANCH  19  20
HETATM   20  C   UNL     1      -6.401   6.091  65.189  1.00  0.00    -0.038 C  
BRANCH  20  21
HETATM   21  C   UNL     1      -7.744   6.480  65.789  1.00  0.00    -0.092 C  
BRANCH  21  22
HETATM   22  C   UNL     1      -8.798   5.448  65.416  1.00  0.00    -0.144 C  
BRANCH  22  23
HETATM   23  C   UNL     1      -8.156   4.225  64.774  1.00  0.00    -0.094 C  
BRANCH  23  24
HETATM   24  C   UNL     1      -9.184   3.118  64.586  1.00  0.00    -0.142 C  
BRANCH  24  25
HETATM   25  C   UNL     1     -10.565   3.692  64.314  1.00  0.00    -0.199 C  
HETATM   26  O   UNL     1     -11.348   2.738  63.612  1.00  0.00    -0.537 OA 
HETATM   27  H   UNL     1     -12.212   3.096  63.442  1.00  0.00     0.000 HD 
ENDBRANCH  24  25
ENDBRANCH  23  24
ENDBRANCH  22  23
ENDBRANCH  21  22
ENDBRANCH  20  21
ENDBRANCH  19  20
ENDBRANCH  18  19
ENDBRANCH  17  18
ENDBRANCH  16  17
ENDBRANCH  15  16
ENDBRANCH  14  15
ENDBRANCH   9  14
ENDBRANCH   2   3
TORSDOF 14
ENDMDL
MODEL      295
REMARK 921   NORMALIZED FREE ENERGY PREDICTED BY IDOCK:   -2.80 KCAL/MOL
REMARK 922        TOTAL FREE ENERGY PREDICTED BY IDOCK:   -6.90 KCAL/MOL
REMARK 923 INTER-LIGAND FREE ENERGY PREDICTED BY IDOCK:   -5.40 KCAL/MOL
REMARK 924 INTRA-LIGAND FREE ENERGY PREDICTED BY IDOCK:   -1.50 KCAL/MOL
REMARK 927      BINDING AFFINITY PREDICTED BY RF-SCORE:    0.00 PKD
ROOT
HETATM    1  C   UNL     1     -11.238  14.936  68.282  1.00  0.00    -0.294 C  
HETATM    2  O   UNL     1     -10.714  14.807  66.966  1.00  0.00    -0.289 OA 
ENDROOT
BRANCH   2   3
HETATM    3  C   UNL     1     -10.223  13.552  66.610  1.00  0.00    -0.275 C  
HETATM    4  C   UNL     1     -11.006  12.747  65.870  1.00  0.00    -0.274 C  
HETATM    5  C   UNL     1     -10.499  11.390  65.503  1.00  0.00    -0.268 C  
HETATM    6  O   UNL     1      -7.999  13.828  67.476  1.00  0.00    -0.158 OA 
HETATM    7  O   UNL     1     -10.935  10.743  64.557  1.00  0.00    -0.127 OA 
HETATM    8  C   UNL     1      -8.877  13.073  67.073  1.00  0.00    -0.212 C  
HETATM    9  C   UNL     1      -9.442  10.804  66.375  1.00  0.00    -0.200 C  
HETATM   10  C   UNL     1      -7.493  11.154  67.947  1.00  0.00    -0.094 C  
HETATM   11  C   UNL     1      -8.646  11.608  67.097  1.00  0.00    -0.164 C  
BRANCH   4  12
HETATM   12  O   UNL     1     -12.255  13.218  65.468  1.00  0.00    -0.404 OA 
HETATM   13  C   UNL     1     -12.352  13.904  64.226  1.00  0.00    -0.348 C  
ENDBRANCH   4  12
BRANCH   9  14
HETATM   14  C   UNL     1      -9.375   9.308  66.383  1.00  0.00    -0.247 C  
BRANCH  14  15
HETATM   15  C   UNL     1     -10.137   8.681  67.552  1.00  0.00    -0.277 C  
BRANCH  15  16
HETATM   16  C   UNL     1      -9.322   7.581  68.233  1.00  0.00    -0.141 C  
BRANCH  16  17
HETATM   17  C   UNL     1      -9.744   6.197  67.755  1.00  0.00    -0.118 C  
BRANCH  17  18
HETATM   18  C   UNL     1      -8.602   5.200  67.808  1.00  0.00    -0.103 C  
BRANCH  18  19
HETATM   19  C   UNL     1      -8.487   4.653  69.225  1.00  0.00    -0.090 C  
BRANCH  19  20
HETATM   20  C   UNL     1      -7.196   5.122  69.872  1.00  0.00    -0.059 C  
BRANCH  20  21
HETATM   21  C   UNL     1      -7.493   6.008  71.072  1.00  0.00    -0.092 C  
BRANCH  21  22
HETATM   22  C   UNL     1      -8.835   5.629  71.680  1.00  0.00    -0.140 C  
BRANCH  22  23
HETATM   23  C   UNL     1      -9.687   6.867  71.927  1.00  0.00    -0.166 C  
BRANCH  23  24
HETATM   24  C   UNL     1      -9.997   7.014  73.411  1.00  0.00    -0.296 C  
BRANCH  24  25
HETATM   25  C   UNL     1      -8.883   7.755  74.132  1.00  0.00    -0.199 C  
HETATM   26  O   UNL     1      -8.421   8.828  73.324  1.00  0.00    -0.366 OA 
HETATM   27  H   UNL     1      -7.725   9.291  73.775  1.00  0.00     0.000 HD 
ENDBRANCH  24  25
ENDBRANCH  23  24
ENDBRANCH  22  23
ENDBRANCH  21  22
ENDBRANCH  20  21
ENDBRANCH  19  20
ENDBRANCH  18  19
ENDBRANCH  17  18
ENDBRANCH  16  17
ENDBRANCH  15  16
ENDBRANCH  14  15
ENDBRANCH   9  14
ENDBRANCH   2   3
TORSDOF 14
ENDMDL
MODEL      296
REMARK 921   NORMALIZED FREE ENERGY PREDICTED BY IDOCK:   -2.75 KCAL/MOL
REMARK 922        TOTAL FREE ENERGY PREDICTED BY IDOCK:   -6.81 KCAL/MOL
REMARK 923 INTER-LIGAND FREE ENERGY PREDICTED BY IDOCK:   -5.35 KCAL/MOL
REMARK 924 INTRA-LIGAND FREE ENERGY PREDICTED BY IDOCK:   -1.46 KCAL/MOL
REMARK 927      BINDING AFFINITY PREDICTED BY RF-SCORE:    0.00 PKD
ROOT
HETATM    1  C   UNL     1     -11.863  15.015  68.818  1.00  0.00    -0.301 C  
HETATM    2  O   UNL     1     -11.028  15.248  67.691  1.00  0.00    -0.294 OA 
ENDROOT
BRANCH   2   3
HETATM    3  C   UNL     1     -10.310  14.155  67.208  1.00  0.00    -0.267 C  
HETATM    4  C   UNL     1     -10.876  13.387  66.260  1.00  0.00    -0.289 C  
HETATM    5  C   UNL     1     -10.125  12.199  65.753  1.00  0.00    -0.247 C  
HETATM    6  O   UNL     1      -8.257  14.587  68.379  1.00  0.00    -0.136 OA 
HETATM    7  O   UNL     1     -10.356  11.670  64.671  1.00  0.00    -0.260 OA 
HETATM    8  C   UNL     1      -8.958  13.797  67.757  1.00  0.00    -0.194 C  
HETATM    9  C   UNL     1      -9.082  11.625  66.650  1.00  0.00    -0.196 C  
HETATM   10  C   UNL     1      -7.382  11.970  68.490  1.00  0.00    -0.111 C  
HETATM   11  C   UNL     1      -8.501  12.396  67.582  1.00  0.00    -0.169 C  
BRANCH   4  12
HETATM   12  O   UNL     1     -12.138  13.741  65.782  1.00  0.00    -0.378 OA 
HETATM   13  C   UNL     1     -12.217  14.565  64.626  1.00  0.00    -0.460 C  
ENDBRANCH   4  12
BRANCH   9  14
HETATM   14  C   UNL     1      -8.779  10.175  66.434  1.00  0.00    -0.140 C  
BRANCH  14  15
HETATM   15  C   UNL     1      -7.482   9.945  65.655  1.00  0.00    -0.116 C  
BRANCH  15  16
HETATM   16  C   UNL     1      -6.903   8.555  65.918  1.00  0.00    -0.064 C  
BRANCH  16  17
HETATM   17  C   UNL     1      -6.109   8.520  67.219  1.00  0.00    -0.055 C  
BRANCH  17  18
HETATM   18  C   UNL     1      -6.522   7.364  68.110  1.00  0.00    -0.046 C  
BRANCH  18  19
HETATM   19  C   UNL     1      -6.616   6.097  67.269  1.00  0.00    -0.055 C  
BRANCH  19  20
HETATM   20  C   UNL     1      -7.908   5.358  67.564  1.00  0.00    -0.100 C  
BRANCH  20  21
HETATM   21  C   UNL     1      -8.812   6.198  68.454  1.00  0.00    -0.113 C  
BRANCH  21  22
HETATM   22  C   UNL     1     -10.184   6.344  67.812  1.00  0.00    -0.196 C  
BRANCH  22  23
HETATM   23  C   UNL     1     -11.277   6.375  68.871  1.00  0.00    -0.385 C  
BRANCH  23  24
HETATM   24  C   UNL     1     -10.820   7.166  70.089  1.00  0.00    -0.279 C  
BRANCH  24  25
HETATM   25  C   UNL     1     -10.726   8.651  69.776  1.00  0.00    -0.215 C  
HETATM   26  O   UNL     1     -10.785   9.398  70.982  1.00  0.00    -0.284 OA 
HETATM   27  H   UNL     1     -10.727  10.326  70.787  1.00  0.00     0.000 HD 
ENDBRANCH  24  25
ENDBRANCH  23  24
ENDBRANCH  22  23
ENDBRANCH  21  22
ENDBRANCH  20  21
ENDBRANCH  19  20
ENDBRANCH  18  19
ENDBRANCH  17  18
ENDBRANCH  16  17
ENDBRANCH  15  16
ENDBRANCH  14  15
ENDBRANCH   9  14
ENDBRANCH   2   3
TORSDOF 14
ENDMDL
MODEL      297
REMARK 921   NORMALIZED FREE ENERGY PREDICTED BY IDOCK:   -2.74 KCAL/MOL
REMARK 922        TOTAL FREE ENERGY PREDICTED BY IDOCK:   -6.81 KCAL/MOL
REMARK 923 INTER-LIGAND FREE ENERGY PREDICTED BY IDOCK:   -6.00 KCAL/MOL
REMARK 924 INTRA-LIGAND FREE ENERGY PREDICTED BY IDOCK:   -0.81 KCAL/MOL
REMARK 927      BINDING AFFINITY PREDICTED BY RF-SCORE:    0.00 PKD
ROOT
HETATM    1  C   UNL     1      -8.683   4.966  69.816  1.00  0.00    -0.086 C  
HETATM    2  O   UNL     1      -8.360   6.346  69.930  1.00  0.00    -0.126 OA 
ENDROOT
BRANCH   2   3
HETATM    3  C   UNL     1      -9.306   7.251  69.453  1.00  0.00    -0.151 C  
HETATM    4  C   UNL     1      -9.259   7.598  68.154  1.00  0.00    -0.138 C  
HETATM    5  C   UNL     1     -10.253   8.586  67.637  1.00  0.00    -0.236 C  
HETATM    6  O   UNL     1     -10.630   7.405  71.451  1.00  0.00    -0.215 OA 
HETATM    7  O   UNL     1     -10.546   8.687  66.450  1.00  0.00    -0.115 OA 
HETATM    8  C   UNL     1     -10.327   7.875  70.360  1.00  0.00    -0.212 C  
HETATM    9  C   UNL     1     -10.868   9.510  68.631  1.00  0.00    -0.177 C  
HETATM   10  C   UNL     1     -11.600   9.952  71.011  1.00  0.00    -0.470 C  
HETATM   11  C   UNL     1     -10.935   9.156  69.924  1.00  0.00    -0.218 C  
BRANCH   4  12
HETATM   12  O   UNL     1      -8.290   7.009  67.342  1.00  0.00    -0.121 OA 
HETATM   13  C   UNL     1      -8.709   6.064  66.365  1.00  0.00    -0.133 C  
ENDBRANCH   4  12
BRANCH   9  14
HETATM   14  C   UNL     1     -11.358  10.813  68.078  1.00  0.00    -0.378 C  
BRANCH  14  15
HETATM   15  C   UNL     1     -10.268  11.602  67.351  1.00  0.00    -0.226 C  
BRANCH  15  16
HETATM   16  C   UNL     1      -9.744  12.759  68.202  1.00  0.00    -0.223 C  
BRANCH  16  17
HETATM   17  C   UNL     1      -8.221  12.822  68.179  1.00  0.00    -0.167 C  
BRANCH  17  18
HETATM   18  C   UNL     1      -7.709  14.243  68.034  1.00  0.00    -0.141 C  
BRANCH  18  19
HETATM   19  C   UNL     1      -8.457  14.925  66.896  1.00  0.00    -0.255 C  
BRANCH  19  20
HETATM   20  C   UNL     1      -8.566  16.418  67.151  1.00  0.00    -0.204 C  
BRANCH  20  21
HETATM   21  C   UNL     1      -9.993  16.894  66.927  1.00  0.00    -0.279 C  
BRANCH  21  22
HETATM   22  C   UNL     1     -10.552  17.485  68.212  1.00  0.00    -0.354 C  
BRANCH  22  23
HETATM   23  C   UNL     1     -10.042  16.721  69.427  1.00  0.00    -0.177 C  
BRANCH  23  24
HETATM   24  C   UNL     1     -11.204  16.254  70.292  1.00  0.00    -0.343 C  
BRANCH  24  25
HETATM   25  C   UNL     1     -11.585  14.818  69.970  1.00  0.00    -0.286 C  
HETATM   26  O   UNL     1     -13.000  14.698  69.927  1.00  0.00    -0.567 OA 
HETATM   27  H   UNL     1     -13.239  13.801  69.726  1.00  0.00     0.000 HD 
ENDBRANCH  24  25
ENDBRANCH  23  24
ENDBRANCH  22  23
ENDBRANCH  21  22
ENDBRANCH  20  21
ENDBRANCH  19  20
ENDBRANCH  18  19
ENDBRANCH  17  18
ENDBRANCH  16  17
ENDBRANCH  15  16
ENDBRANCH  14  15
ENDBRANCH   9  14
ENDBRANCH   2   3
TORSDOF 14
ENDMDL
MODEL      298
REMARK 921   NORMALIZED FREE ENERGY PREDICTED BY IDOCK:   -2.73 KCAL/MOL
REMARK 922        TOTAL FREE ENERGY PREDICTED BY IDOCK:   -6.79 KCAL/MOL
REMARK 923 INTER-LIGAND FREE ENERGY PREDICTED BY IDOCK:   -6.34 KCAL/MOL
REMARK 924 INTRA-LIGAND FREE ENERGY PREDICTED BY IDOCK:   -0.45 KCAL/MOL
REMARK 927      BINDING AFFINITY PREDICTED BY RF-SCORE:    0.00 PKD
ROOT
HETATM    1  C   UNL     1      -9.379   3.061  69.706  1.00  0.00    -0.145 C  
HETATM    2  O   UNL     1      -8.650   4.240  70.020  1.00  0.00    -0.067 OA 
ENDROOT
BRANCH   2   3
HETATM    3  C   UNL     1      -9.380   5.424  70.100  1.00  0.00    -0.149 C  
HETATM    4  C   UNL     1      -9.470   6.194  69.001  1.00  0.00    -0.127 C  
HETATM    5  C   UNL     1     -10.229   7.478  69.082  1.00  0.00    -0.202 C  
HETATM    6  O   UNL     1     -10.238   5.115  72.323  1.00  0.00    -0.188 OA 
HETATM    7  O   UNL     1     -10.687   8.052  68.099  1.00  0.00    -0.149 OA 
HETATM    8  C   UNL     1     -10.014   5.873  71.386  1.00  0.00    -0.185 C  
HETATM    9  C   UNL     1     -10.382   8.090  70.433  1.00  0.00    -0.206 C  
HETATM   10  C   UNL     1     -10.534   7.790  72.939  1.00  0.00    -0.412 C  
HETATM   11  C   UNL     1     -10.314   7.319  71.529  1.00  0.00    -0.217 C  
BRANCH   4  12
HETATM   12  O   UNL     1      -8.858   5.754  67.827  1.00  0.00    -0.108 OA 
HETATM   13  C   UNL     1      -9.673   5.177  66.815  1.00  0.00    -0.165 C  
ENDBRANCH   4  12
BRANCH   9  14
HETATM   14  C   UNL     1     -10.585   9.573  70.445  1.00  0.00    -0.333 C  
BRANCH  14  15
HETATM   15  C   UNL     1     -11.967   9.991  69.937  1.00  0.00    -0.084 C  
BRANCH  15  16
HETATM   16  C   UNL     1     -12.371  11.367  70.466  1.00  0.00    -0.439 C  
BRANCH  16  17
HETATM   17  C   UNL     1     -11.748  12.487  69.641  1.00  0.00    -0.372 C  
BRANCH  17  18
HETATM   18  C   UNL     1     -11.450  12.052  68.219  1.00  0.00    -0.361 C  
BRANCH  18  19
HETATM   19  C   UNL     1     -10.813  13.214  67.468  1.00  0.00    -0.269 C  
BRANCH  19  20
HETATM   20  C   UNL     1     -11.882  14.137  66.913  1.00  0.00    -0.458 C  
BRANCH  20  21
HETATM   21  C   UNL     1     -11.640  15.568  67.369  1.00  0.00    -0.063 C  
BRANCH  21  22
HETATM   22  C   UNL     1     -10.836  15.573  68.661  1.00  0.00    -0.267 C  
BRANCH  22  23
HETATM   23  C   UNL     1     -11.609  16.262  69.778  1.00  0.00    -0.140 C  
BRANCH  23  24
HETATM   24  C   UNL     1     -11.590  15.415  71.043  1.00  0.00    -0.410 C  
BRANCH  24  25
HETATM   25  C   UNL     1     -12.988  15.262  71.621  1.00  0.00    -0.408 C  
HETATM   26  O   UNL     1     -12.992  15.682  72.977  1.00  0.00    -0.415 OA 
HETATM   27  H   UNL     1     -13.865  15.587  73.339  1.00  0.00     0.000 HD 
ENDBRANCH  24  25
ENDBRANCH  23  24
ENDBRANCH  22  23
ENDBRANCH  21  22
ENDBRANCH  20  21
ENDBRANCH  19  20
ENDBRANCH  18  19
ENDBRANCH  17  18
ENDBRANCH  16  17
ENDBRANCH  15  16
ENDBRANCH  14  15
ENDBRANCH   9  14
ENDBRANCH   2   3
TORSDOF 14
ENDMDL
MODEL      299
REMARK 921   NORMALIZED FREE ENERGY PREDICTED BY IDOCK:   -2.71 KCAL/MOL
REMARK 922        TOTAL FREE ENERGY PREDICTED BY IDOCK:   -6.74 KCAL/MOL
REMARK 923 INTER-LIGAND FREE ENERGY PREDICTED BY IDOCK:   -4.81 KCAL/MOL
REMARK 924 INTRA-LIGAND FREE ENERGY PREDICTED BY IDOCK:   -1.93 KCAL/MOL
REMARK 927      BINDING AFFINITY PREDICTED BY RF-SCORE:    0.00 PKD
ROOT
HETATM    1  C   UNL     1      -8.839   9.969  65.967  1.00  0.00    -0.145 C  
HETATM    2  O   UNL     1      -8.743   9.478  67.297  1.00  0.00    -0.127 OA 
ENDROOT
BRANCH   2   3
HETATM    3  C   UNL     1      -8.665   8.094  67.448  1.00  0.00    -0.124 C  
HETATM    4  C   UNL     1      -7.494   7.560  67.839  1.00  0.00    -0.105 C  
HETATM    5  C   UNL     1      -7.392   6.076  67.981  1.00  0.00    -0.084 C  
HETATM    6  O   UNL     1     -10.987   7.606  67.073  1.00  0.00    -0.277 OA 
HETATM    7  O   UNL     1      -6.539   5.523  68.667  1.00  0.00    -0.044 OA 
HETATM    8  C   UNL     1      -9.832   7.201  67.136  1.00  0.00    -0.181 C  
HETATM    9  C   UNL     1      -8.362   5.254  67.202  1.00  0.00    -0.107 C  
HETATM   10  C   UNL     1     -10.636   5.038  66.119  1.00  0.00    -0.321 C  
HETATM   11  C   UNL     1      -9.539   5.779  66.830  1.00  0.00    -0.161 C  
BRANCH   4  12
HETATM   12  O   UNL     1      -6.427   8.416  68.107  1.00  0.00    -0.054 OA 
HETATM   13  C   UNL     1      -6.213   8.831  69.451  1.00  0.00    -0.041 C  
ENDBRANCH   4  12
BRANCH   9  14
HETATM   14  C   UNL     1      -7.907   3.865  66.875  1.00  0.00    -0.088 C  
BRANCH  14  15
HETATM   15  C   UNL     1      -7.979   2.915  68.072  1.00  0.00    -0.065 C  
BRANCH  15  16
HETATM   16  C   UNL     1      -9.386   2.862  68.668  1.00  0.00    -0.239 C  
BRANCH  16  17
HETATM   17  C   UNL     1      -9.358   2.406  70.122  1.00  0.00    -0.183 C  
BRANCH  17  18
HETATM   18  C   UNL     1      -8.312   3.146  70.934  1.00  0.00    -0.091 C  
BRANCH  18  19
HETATM   19  C   UNL     1      -8.823   4.547  71.243  1.00  0.00    -0.154 C  
BRANCH  19  20
HETATM   20  C   UNL     1      -9.917   4.493  72.294  1.00  0.00    -0.239 C  
BRANCH  20  21
HETATM   21  C   UNL     1     -10.957   5.574  72.038  1.00  0.00    -0.276 C  
BRANCH  21  22
HETATM   22  C   UNL     1     -10.815   6.106  70.620  1.00  0.00    -0.355 C  
BRANCH  22  23
HETATM   23  C   UNL     1     -10.797   7.630  70.611  1.00  0.00    -0.245 C  
BRANCH  23  24
HETATM   24  C   UNL     1     -12.170   8.182  70.966  1.00  0.00    -0.191 C  
BRANCH  24  25
HETATM   25  C   UNL     1     -12.111   9.681  71.214  1.00  0.00    -0.371 C  
HETATM   26  O   UNL     1     -13.173  10.321  70.521  1.00  0.00    -0.542 OA 
HETATM   27  H   UNL     1     -13.136  11.258  70.676  1.00  0.00     0.000 HD 
ENDBRANCH  24  25
ENDBRANCH  23  24
ENDBRANCH  22  23
ENDBRANCH  21  22
ENDBRANCH  20  21
ENDBRANCH  19  20
ENDBRANCH  18  19
ENDBRANCH  17  18
ENDBRANCH  16  17
ENDBRANCH  15  16
ENDBRANCH  14  15
ENDBRANCH   9  14
ENDBRANCH   2   3
TORSDOF 14
ENDMDL
MODEL      300
REMARK 921   NORMALIZED FREE ENERGY PREDICTED BY IDOCK:   -2.70 KCAL/MOL
REMARK 922        TOTAL FREE ENERGY PREDICTED BY IDOCK:   -6.73 KCAL/MOL
REMARK 923 INTER-LIGAND FREE ENERGY PREDICTED BY IDOCK:   -5.02 KCAL/MOL
REMARK 924 INTRA-LIGAND FREE ENERGY PREDICTED BY IDOCK:   -1.72 KCAL/MOL
REMARK 927      BINDING AFFINITY PREDICTED BY RF-SCORE:    0.00 PKD
ROOT
HETATM    1  C   UNL     1      -7.667   9.734  69.904  1.00  0.00    -0.157 C  
HETATM    2  O   UNL     1      -7.898   9.573  71.297  1.00  0.00    -0.312 OA 
ENDROOT
BRANCH   2   3
HETATM    3  C   UNL     1      -8.428   8.351  71.706  1.00  0.00    -0.165 C  
HETATM    4  C   UNL     1      -7.596   7.441  72.243  1.00  0.00    -0.088 C  
HETATM    5  C   UNL     1      -8.149   6.118  72.662  1.00  0.00    -0.103 C  
HETATM    6  O   UNL     1     -10.743   8.870  71.325  1.00  0.00    -0.239 OA 
HETATM    7  O   UNL     1      -7.597   5.386  73.477  1.00  0.00    -0.094 OA 
HETATM    8  C   UNL     1      -9.881   8.019  71.514  1.00  0.00    -0.170 C  
HETATM    9  C   UNL     1      -9.412   5.675  72.007  1.00  0.00    -0.169 C  
HETATM   10  C   UNL     1     -11.594   6.280  70.881  1.00  0.00    -0.338 C  
HETATM   11  C   UNL     1     -10.255   6.583  71.491  1.00  0.00    -0.215 C  
BRANCH   4  12
HETATM   12  O   UNL     1      -6.251   7.777  72.394  1.00  0.00    -0.042 OA 
HETATM   13  C   UNL     1      -5.811   8.255  73.659  1.00  0.00    -0.081 C  
ENDBRANCH   4  12
BRANCH   9  14
HETATM   14  C   UNL     1      -9.627   4.194  71.965  1.00  0.00    -0.213 C  
BRANCH  14  15
HETATM   15  C   UNL     1      -8.715   3.485  70.960  1.00  0.00    -0.122 C  
BRANCH  15  16
HETATM   16  C   UNL     1      -9.508   2.584  70.015  1.00  0.00    -0.141 C  
BRANCH  16  17
HETATM   17  C   UNL     1      -9.275   2.962  68.557  1.00  0.00    -0.239 C  
BRANCH  17  18
HETATM   18  C   UNL     1      -8.003   3.769  68.371  1.00  0.00    -0.071 C  
BRANCH  18  19
HETATM   19  C   UNL     1      -7.875   4.163  66.906  1.00  0.00    -0.097 C  
BRANCH  19  20
HETATM   20  C   UNL     1      -6.799   5.218  66.732  1.00  0.00    -0.063 C  
BRANCH  20  21
HETATM   21  C   UNL     1      -7.295   6.572  67.218  1.00  0.00    -0.087 C  
BRANCH  21  22
HETATM   22  C   UNL     1      -8.379   7.093  66.286  1.00  0.00    -0.129 C  
BRANCH  22  23
HETATM   23  C   UNL     1      -9.191   8.192  66.961  1.00  0.00    -0.187 C  
BRANCH  23  24
HETATM   24  C   UNL     1     -10.653   7.784  67.071  1.00  0.00    -0.396 C  
BRANCH  24  25
HETATM   25  C   UNL     1     -10.788   6.303  67.386  1.00  0.00    -0.363 C  
HETATM   26  O   UNL     1     -11.370   5.631  66.278  1.00  0.00    -0.734 OA 
HETATM   27  H   UNL     1     -11.454   4.705  66.474  1.00  0.00     0.000 HD 
ENDBRANCH  24  25
ENDBRANCH  23  24
ENDBRANCH  22  23
ENDBRANCH  21  22
ENDBRANCH  20  21
ENDBRANCH  19  20
ENDBRANCH  18  19
ENDBRANCH  17  18
ENDBRANCH  16  17
ENDBRANCH  15  16
ENDBRANCH  14  15
ENDBRANCH   9  14
ENDBRANCH   2   3
TORSDOF 14
ENDMDL
MODEL      301
REMARK 921   NORMALIZED FREE ENERGY PREDICTED BY IDOCK:   -2.70 KCAL/MOL
REMARK 922        TOTAL FREE ENERGY PREDICTED BY IDOCK:   -6.72 KCAL/MOL
REMARK 923 INTER-LIGAND FREE ENERGY PREDICTED BY IDOCK:   -5.43 KCAL/MOL
REMARK 924 INTRA-LIGAND FREE ENERGY PREDICTED BY IDOCK:   -1.29 KCAL/MOL
REMARK 927      BINDING AFFINITY PREDICTED BY RF-SCORE:    0.00 PKD
ROOT
HETATM    1  C   UNL     1     -10.793   5.697  73.838  1.00  0.00    -0.093 C  
HETATM    2  O   UNL     1     -10.792   7.118  73.877  1.00  0.00    -0.258 OA 
ENDROOT
BRANCH   2   3
HETATM    3  C   UNL     1     -10.679   7.777  72.654  1.00  0.00    -0.343 C  
HETATM    4  C   UNL     1      -9.457   7.901  72.105  1.00  0.00    -0.177 C  
HETATM    5  C   UNL     1      -9.321   8.627  70.807  1.00  0.00    -0.191 C  
HETATM    6  O   UNL     1     -13.027   8.068  72.236  1.00  0.00    -0.254 OA 
HETATM    7  O   UNL     1      -8.367   8.479  70.051  1.00  0.00    -0.116 OA 
HETATM    8  C   UNL     1     -11.872   8.386  71.974  1.00  0.00    -0.353 C  
HETATM    9  C   UNL     1     -10.392   9.604  70.463  1.00  0.00    -0.359 C  
HETATM   10  C   UNL     1     -12.806  10.329  70.666  1.00  0.00    -0.362 C  
HETATM   11  C   UNL     1     -11.619   9.469  70.992  1.00  0.00    -0.419 C  
BRANCH   4  12
HETATM   12  O   UNL     1      -8.369   7.335  72.769  1.00  0.00    -0.104 OA 
HETATM   13  C   UNL     1      -7.484   8.196  73.475  1.00  0.00    -0.149 C  
ENDBRANCH   4  12
BRANCH   9  14
HETATM   14  C   UNL     1      -9.982  10.705  69.534  1.00  0.00    -0.138 C  
BRANCH  14  15
HETATM   15  C   UNL     1     -10.720  10.663  68.195  1.00  0.00    -0.267 C  
BRANCH  15  16
HETATM   16  C   UNL     1      -9.777  10.330  67.039  1.00  0.00    -0.217 C  
BRANCH  16  17
HETATM   17  C   UNL     1      -9.168   8.942  67.199  1.00  0.00    -0.169 C  
BRANCH  17  18
HETATM   18  C   UNL     1     -10.079   7.852  66.665  1.00  0.00    -0.310 C  
BRANCH  18  19
HETATM   19  C   UNL     1     -10.857   7.244  67.825  1.00  0.00    -0.214 C  
BRANCH  19  20
HETATM   20  C   UNL     1     -10.821   5.729  67.752  1.00  0.00    -0.259 C  
BRANCH  20  21
HETATM   21  C   UNL     1     -10.534   5.136  69.124  1.00  0.00    -0.170 C  
BRANCH  21  22
HETATM   22  C   UNL     1      -9.035   4.965  69.313  1.00  0.00    -0.129 C  
BRANCH  22  23
HETATM   23  C   UNL     1      -8.714   4.540  70.740  1.00  0.00    -0.124 C  
BRANCH  23  24
HETATM   24  C   UNL     1      -9.138   3.097  70.977  1.00  0.00    -0.184 C  
BRANCH  24  25
HETATM   25  C   UNL     1      -7.992   2.136  70.706  1.00  0.00    -0.041 C  
HETATM   26  O   UNL     1      -6.821   2.591  71.369  1.00  0.00    -0.029 OA 
HETATM   27  H   UNL     1      -6.105   1.990  71.200  1.00  0.00     0.000 HD 
ENDBRANCH  24  25
ENDBRANCH  23  24
ENDBRANCH  22  23
ENDBRANCH  21  22
ENDBRANCH  20  21
ENDBRANCH  19  20
ENDBRANCH  18  19
ENDBRANCH  17  18
ENDBRANCH  16  17
ENDBRANCH  15  16
ENDBRANCH  14  15
ENDBRANCH   9  14
ENDBRANCH   2   3
TORSDOF 14
ENDMDL
MODEL      302
REMARK 921   NORMALIZED FREE ENERGY PREDICTED BY IDOCK:   -2.69 KCAL/MOL
REMARK 922        TOTAL FREE ENERGY PREDICTED BY IDOCK:   -6.71 KCAL/MOL
REMARK 923 INTER-LIGAND FREE ENERGY PREDICTED BY IDOCK:   -5.46 KCAL/MOL
REMARK 924 INTRA-LIGAND FREE ENERGY PREDICTED BY IDOCK:   -1.25 KCAL/MOL
REMARK 927      BINDING AFFINITY PREDICTED BY RF-SCORE:    0.00 PKD
ROOT
HETATM    1  C   UNL     1      -9.562  15.125  67.162  1.00  0.00    -0.218 C  
HETATM    2  O   UNL     1     -10.537  14.459  66.371  1.00  0.00    -0.289 OA 
ENDROOT
BRANCH   2   3
HETATM    3  C   UNL     1     -10.622  13.076  66.517  1.00  0.00    -0.282 C  
HETATM    4  C   UNL     1     -10.822  12.575  67.750  1.00  0.00    -0.225 C  
HETATM    5  C   UNL     1     -10.890  11.093  67.922  1.00  0.00    -0.235 C  
HETATM    6  O   UNL     1     -10.564  12.509  64.183  1.00  0.00    -0.342 OA 
HETATM    7  O   UNL     1     -11.426  10.552  68.883  1.00  0.00    -0.255 OA 
HETATM    8  C   UNL     1     -10.446  12.148  65.349  1.00  0.00    -0.270 C  
HETATM    9  C   UNL     1     -10.226  10.260  66.880  1.00  0.00    -0.286 C  
HETATM   10  C   UNL     1      -9.471   9.990  64.481  1.00  0.00    -0.359 C  
HETATM   11  C   UNL     1     -10.046  10.750  65.643  1.00  0.00    -0.327 C  
BRANCH   4  12
HETATM   12  O   UNL     1     -10.968  13.464  68.814  1.00  0.00    -0.246 OA 
HETATM   13  C   UNL     1     -12.279  13.887  69.168  1.00  0.00    -0.267 C  
ENDBRANCH   4  12
BRANCH   9  14
HETATM   14  C   UNL     1      -9.784   8.901  67.330  1.00  0.00    -0.235 C  
BRANCH  14  15
HETATM   15  C   UNL     1     -10.779   7.797  66.966  1.00  0.00    -0.316 C  
BRANCH  15  16
HETATM   16  C   UNL     1     -10.102   6.430  66.883  1.00  0.00    -0.244 C  
BRANCH  16  17
HETATM   17  C   UNL     1      -8.584   6.561  66.855  1.00  0.00    -0.114 C  
BRANCH  17  18
HETATM   18  C   UNL     1      -7.918   5.745  67.947  1.00  0.00    -0.098 C  
BRANCH  18  19
HETATM   19  C   UNL     1      -8.496   6.157  69.295  1.00  0.00    -0.119 C  
BRANCH  19  20
HETATM   20  C   UNL     1      -7.916   7.488  69.737  1.00  0.00    -0.124 C  
BRANCH  20  21
HETATM   21  C   UNL     1      -8.725   8.067  70.888  1.00  0.00    -0.143 C  
BRANCH  21  22
HETATM   22  C   UNL     1      -8.707   9.586  70.824  1.00  0.00    -0.108 C  
BRANCH  22  23
HETATM   23  C   UNL     1      -7.433  10.086  70.156  1.00  0.00    -0.176 C  
BRANCH  23  24
HETATM   24  C   UNL     1      -7.755  11.156  69.122  1.00  0.00    -0.076 C  
BRANCH  24  25
HETATM   25  C   UNL     1      -6.863  11.022  67.898  1.00  0.00    -0.068 C  
HETATM   26  O   UNL     1      -5.572  10.582  68.294  1.00  0.00    -0.038 OA 
HETATM   27  H   UNL     1      -5.015  10.498  67.529  1.00  0.00     0.000 HD 
ENDBRANCH  24  25
ENDBRANCH  23  24
ENDBRANCH  22  23
ENDBRANCH  21  22
ENDBRANCH  20  21
ENDBRANCH  19  20
ENDBRANCH  18  19
ENDBRANCH  17  18
ENDBRANCH  16  17
ENDBRANCH  15  16
ENDBRANCH  14  15
ENDBRANCH   9  14
ENDBRANCH   2   3
TORSDOF 14
ENDMDL
MODEL      303
REMARK 921   NORMALIZED FREE ENERGY PREDICTED BY IDOCK:   -2.62 KCAL/MOL
REMARK 922        TOTAL FREE ENERGY PREDICTED BY IDOCK:   -6.58 KCAL/MOL
REMARK 923 INTER-LIGAND FREE ENERGY PREDICTED BY IDOCK:   -4.29 KCAL/MOL
REMARK 924 INTRA-LIGAND FREE ENERGY PREDICTED BY IDOCK:   -2.29 KCAL/MOL
REMARK 927      BINDING AFFINITY PREDICTED BY RF-SCORE:    0.00 PKD
ROOT
HETATM    1  C   UNL     1      -9.117   3.893  67.989  1.00  0.00    -0.142 C  
HETATM    2  O   UNL     1      -9.977   4.552  67.069  1.00  0.00    -0.204 OA 
ENDROOT
BRANCH   2   3
HETATM    3  C   UNL     1      -9.749   5.912  66.866  1.00  0.00    -0.147 C  
HETATM    4  C   UNL     1     -10.542   6.794  67.501  1.00  0.00    -0.279 C  
HETATM    5  C   UNL     1     -10.324   8.254  67.271  1.00  0.00    -0.302 C  
HETATM    6  O   UNL     1      -7.746   5.704  65.555  1.00  0.00    -0.084 OA 
HETATM    7  O   UNL     1     -10.707   9.121  68.048  1.00  0.00    -0.218 OA 
HETATM    8  C   UNL     1      -8.684   6.401  65.926  1.00  0.00    -0.145 C  
HETATM    9  C   UNL     1      -9.642   8.645  66.005  1.00  0.00    -0.265 C  
HETATM   10  C   UNL     1      -8.022   8.066  64.151  1.00  0.00    -0.137 C  
HETATM   11  C   UNL     1      -8.833   7.774  65.382  1.00  0.00     0.009 C  
BRANCH   4  12
HETATM   12  O   UNL     1     -11.530   6.306  68.356  1.00  0.00    -0.201 OA 
HETATM   13  C   UNL     1     -11.276   6.313  69.755  1.00  0.00    -0.430 C  
ENDBRANCH   4  12
BRANCH   9  14
HETATM   14  C   UNL     1      -9.949  10.025  65.511  1.00  0.00    -0.367 C  
BRANCH  14  15
HETATM   15  C   UNL     1      -8.922  11.065  65.964  1.00  0.00    -0.209 C  
BRANCH  15  16
HETATM   16  C   UNL     1      -9.594  12.287  66.589  1.00  0.00    -0.227 C  
BRANCH  16  17
HETATM   17  C   UNL     1      -8.964  12.645  67.930  1.00  0.00    -0.189 C  
BRANCH  17  18
HETATM   18  C   UNL     1      -7.506  13.039  67.791  1.00  0.00    -0.146 C  
BRANCH  18  19
HETATM   19  C   UNL     1      -6.740  12.542  69.010  1.00  0.00    -0.098 C  
BRANCH  19  20
HETATM   20  C   UNL     1      -7.008  11.066  69.240  1.00  0.00    -0.116 C  
BRANCH  20  21
HETATM   21  C   UNL     1      -6.009  10.216  68.469  1.00  0.00    -0.041 C  
BRANCH  21  22
HETATM   22  C   UNL     1      -6.689   8.960  67.946  1.00  0.00    -0.069 C  
BRANCH  22  23
HETATM   23  C   UNL     1      -6.250   7.736  68.739  1.00  0.00    -0.039 C  
BRANCH  23  24
HETATM   24  C   UNL     1      -7.437   7.113  69.461  1.00  0.00    -0.095 C  
BRANCH  24  25
HETATM   25  C   UNL     1      -7.101   6.818  70.914  1.00  0.00    -0.068 C  
HETATM   26  O   UNL     1      -7.342   5.445  71.190  1.00  0.00    -0.078 OA 
HETATM   27  H   UNL     1      -7.132   5.261  72.098  1.00  0.00     0.000 HD 
ENDBRANCH  24  25
ENDBRANCH  23  24
ENDBRANCH  22  23
ENDBRANCH  21  22
ENDBRANCH  20  21
ENDBRANCH  19  20
ENDBRANCH  18  19
ENDBRANCH  17  18
ENDBRANCH  16  17
ENDBRANCH  15  16
ENDBRANCH  14  15
ENDBRANCH   9  14
ENDBRANCH   2   3
TORSDOF 14
ENDMDL
MODEL      304
REMARK 921   NORMALIZED FREE ENERGY PREDICTED BY IDOCK:   -2.59 KCAL/MOL
REMARK 922        TOTAL FREE ENERGY PREDICTED BY IDOCK:   -6.53 KCAL/MOL
REMARK 923 INTER-LIGAND FREE ENERGY PREDICTED BY IDOCK:   -4.46 KCAL/MOL
REMARK 924 INTRA-LIGAND FREE ENERGY PREDICTED BY IDOCK:   -2.07 KCAL/MOL
REMARK 927      BINDING AFFINITY PREDICTED BY RF-SCORE:    0.00 PKD
ROOT
HETATM    1  C   UNL     1     -12.220  10.203  70.695  1.00  0.00    -0.302 C  
HETATM    2  O   UNL     1     -10.937  10.595  70.227  1.00  0.00    -0.273 OA 
ENDROOT
BRANCH   2   3
HETATM    3  C   UNL     1     -10.638  10.299  68.899  1.00  0.00    -0.219 C  
HETATM    4  C   UNL     1     -10.051   9.120  68.624  1.00  0.00    -0.194 C  
HETATM    5  C   UNL     1      -9.704   8.803  67.205  1.00  0.00    -0.183 C  
HETATM    6  O   UNL     1     -11.695  12.214  67.904  1.00  0.00    -0.334 OA 
HETATM    7  O   UNL     1      -9.528   7.660  66.797  1.00  0.00    -0.169 OA 
HETATM    8  C   UNL     1     -10.910  11.279  67.793  1.00  0.00    -0.235 C  
HETATM    9  C   UNL     1      -9.527   9.956  66.278  1.00  0.00    -0.245 C  
HETATM   10  C   UNL     1     -10.105  12.336  65.649  1.00  0.00    -0.275 C  
HETATM   11  C   UNL     1     -10.131  11.126  66.539  1.00  0.00    -0.265 C  
BRANCH   4  12
HETATM   12  O   UNL     1      -9.801   8.239  69.675  1.00  0.00    -0.179 OA 
HETATM   13  C   UNL     1      -8.455   7.855  69.930  1.00  0.00    -0.127 C  
ENDBRANCH   4  12
BRANCH   9  14
HETATM   14  C   UNL     1      -8.640   9.700  65.099  1.00  0.00    -0.175 C  
BRANCH  14  15
HETATM   15  C   UNL     1      -7.217  10.226  65.296  1.00  0.00    -0.134 C  
BRANCH  15  16
HETATM   16  C   UNL     1      -6.322   9.193  65.982  1.00  0.00    -0.064 C  
BRANCH  16  17
HETATM   17  C   UNL     1      -6.132   9.514  67.460  1.00  0.00    -0.053 C  
BRANCH  17  18
HETATM   18  C   UNL     1      -6.245  11.000  67.742  1.00  0.00    -0.051 C  
BRANCH  18  19
HETATM   19  C   UNL     1      -7.320  11.224  68.797  1.00  0.00    -0.109 C  
BRANCH  19  20
HETATM   20  C   UNL     1      -7.859  12.641  68.714  1.00  0.00     0.039 C  
BRANCH  20  21
HETATM   21  C   UNL     1      -6.811  13.576  68.129  1.00  0.00    -0.119 C  
BRANCH  21  22
HETATM   22  C   UNL     1      -7.490  14.752  67.442  1.00  0.00    -0.221 C  
BRANCH  22  23
HETATM   23  C   UNL     1      -8.609  15.314  68.308  1.00  0.00    -0.159 C  
BRANCH  23  24
HETATM   24  C   UNL     1      -8.036  16.085  69.489  1.00  0.00    -0.028 C  
BRANCH  24  25
HETATM   25  C   UNL     1      -6.857  16.945  69.062  1.00  0.00    -0.224 C  
HETATM   26  O   UNL     1      -5.707  16.585  69.813  1.00  0.00    -0.167 OA 
HETATM   27  H   UNL     1      -4.970  17.122  69.547  1.00  0.00     0.000 HD 
ENDBRANCH  24  25
ENDBRANCH  23  24
ENDBRANCH  22  23
ENDBRANCH  21  22
ENDBRANCH  20  21
ENDBRANCH  19  20
ENDBRANCH  18  19
ENDBRANCH  17  18
ENDBRANCH  16  17
ENDBRANCH  15  16
ENDBRANCH  14  15
ENDBRANCH   9  14
ENDBRANCH   2   3
TORSDOF 14
ENDMDL
MODEL      305
REMARK 921   NORMALIZED FREE ENERGY PREDICTED BY IDOCK:   -2.56 KCAL/MOL
REMARK 922        TOTAL FREE ENERGY PREDICTED BY IDOCK:   -6.47 KCAL/MOL
REMARK 923 INTER-LIGAND FREE ENERGY PREDICTED BY IDOCK:   -5.37 KCAL/MOL
REMARK 924 INTRA-LIGAND FREE ENERGY PREDICTED BY IDOCK:   -1.10 KCAL/MOL
REMARK 927      BINDING AFFINITY PREDICTED BY RF-SCORE:    0.00 PKD
ROOT
HETATM    1  C   UNL     1      -8.248  10.390  63.782  1.00  0.00    -0.122 C  
HETATM    2  O   UNL     1      -9.506  10.281  64.434  1.00  0.00    -0.255 OA 
ENDROOT
BRANCH   2   3
HETATM    3  C   UNL     1      -9.689  11.061  65.575  1.00  0.00    -0.229 C  
HETATM    4  C   UNL     1     -10.611  12.039  65.539  1.00  0.00    -0.273 C  
HETATM    5  C   UNL     1     -10.798  12.897  66.747  1.00  0.00    -0.267 C  
HETATM    6  O   UNL     1      -8.222   9.836  67.032  1.00  0.00    -0.116 OA 
HETATM    7  O   UNL     1     -11.821  13.538  66.965  1.00  0.00    -0.365 OA 
HETATM    8  C   UNL     1      -8.851  10.864  66.806  1.00  0.00    -0.145 C  
HETATM    9  C   UNL     1      -9.651  12.992  67.693  1.00  0.00    -0.206 C  
HETATM   10  C   UNL     1      -7.589  11.937  68.708  1.00  0.00    -0.090 C  
HETATM   11  C   UNL     1      -8.741  12.007  67.746  1.00  0.00    -0.161 C  
BRANCH   4  12
HETATM   12  O   UNL     1     -11.363  12.203  64.375  1.00  0.00    -0.316 OA 
HETATM   13  C   UNL     1     -11.245  13.427  63.661  1.00  0.00     0.028 C  
ENDBRANCH   4  12
BRANCH   9  14
HETATM   14  C   UNL     1      -9.603  14.240  68.520  1.00  0.00    -0.220 C  
BRANCH  14  15
HETATM   15  C   UNL     1      -9.379  15.503  67.684  1.00  0.00    -0.203 C  
BRANCH  15  16
HETATM   16  C   UNL     1     -10.185  16.686  68.220  1.00  0.00    -0.281 C  
BRANCH  16  17
HETATM   17  C   UNL     1     -10.568  17.650  67.104  1.00  0.00    -0.277 C  
BRANCH  17  18
HETATM   18  C   UNL     1     -10.734  19.072  67.607  1.00  0.00    -0.495 C  
BRANCH  18  19
HETATM   19  C   UNL     1      -9.784  19.297  68.777  1.00  0.00    -0.510 C  
BRANCH  19  20
HETATM   20  C   UNL     1      -9.036  20.607  68.608  1.00  0.00     0.682 C  
BRANCH  20  21
HETATM   21  C   UNL     1      -7.976  20.480  67.525  1.00  0.00    -0.306 C  
BRANCH  21  22
HETATM   22  C   UNL     1      -7.444  19.056  67.483  1.00  0.00    -0.251 C  
BRANCH  22  23
HETATM   23  C   UNL     1      -7.111  18.643  66.055  1.00  0.00    -0.302 C  
BRANCH  23  24
HETATM   24  C   UNL     1      -5.634  18.298  65.928  1.00  0.00    -0.219 C  
BRANCH  24  25
HETATM   25  C   UNL     1      -5.132  18.546  64.515  1.00  0.00    -0.117 C  
HETATM   26  O   UNL     1      -5.935  19.536  63.890  1.00  0.00    -0.352 OA 
HETATM   27  H   UNL     1      -5.622  19.692  63.007  1.00  0.00     0.000 HD 
ENDBRANCH  24  25
ENDBRANCH  23  24
ENDBRANCH  22  23
ENDBRANCH  21  22
ENDBRANCH  20  21
ENDBRANCH  19  20
ENDBRANCH  18  19
ENDBRANCH  17  18
ENDBRANCH  16  17
ENDBRANCH  15  16
ENDBRANCH  14  15
ENDBRANCH   9  14
ENDBRANCH   2   3
TORSDOF 14
ENDMDL
MODEL      306
REMARK 921   NORMALIZED FREE ENERGY PREDICTED BY IDOCK:   -2.53 KCAL/MOL
REMARK 922        TOTAL FREE ENERGY PREDICTED BY IDOCK:   -6.43 KCAL/MOL
REMARK 923 INTER-LIGAND FREE ENERGY PREDICTED BY IDOCK:   -5.28 KCAL/MOL
REMARK 924 INTRA-LIGAND FREE ENERGY PREDICTED BY IDOCK:   -1.15 KCAL/MOL
REMARK 927      BINDING AFFINITY PREDICTED BY RF-SCORE:    0.00 PKD
ROOT
HETATM    1  C   UNL     1     -11.125   5.863  72.269  1.00  0.00    -0.280 C  
HETATM    2  O   UNL     1     -10.410   7.076  72.459  1.00  0.00    -0.193 OA 
ENDROOT
BRANCH   2   3
HETATM    3  C   UNL     1      -9.521   7.443  71.451  1.00  0.00    -0.152 C  
HETATM    4  C   UNL     1      -8.203   7.301  71.678  1.00  0.00    -0.104 C  
HETATM    5  C   UNL     1      -7.240   7.714  70.613  1.00  0.00    -0.062 C  
HETATM    6  O   UNL     1     -11.152   7.918  69.752  1.00  0.00    -0.196 OA 
HETATM    7  O   UNL     1      -6.089   7.297  70.549  1.00  0.00    -0.030 OA 
HETATM    8  C   UNL     1     -10.000   8.033  70.155  1.00  0.00    -0.191 C  
HETATM    9  C   UNL     1      -7.719   8.718  69.620  1.00  0.00    -0.088 C  
HETATM   10  C   UNL     1      -9.642   9.753  68.346  1.00  0.00    -0.157 C  
HETATM   11  C   UNL     1      -9.033   8.846  69.376  1.00  0.00    -0.145 C  
BRANCH   4  12
HETATM   12  O   UNL     1      -7.791   6.762  72.896  1.00  0.00    -0.098 OA 
HETATM   13  C   UNL     1      -7.473   5.377  72.951  1.00  0.00    -0.096 C  
ENDBRANCH   4  12
BRANCH   9  14
HETATM   14  C   UNL     1      -6.649   9.540  68.972  1.00  0.00    -0.050 C  
BRANCH  14  15
HETATM   15  C   UNL     1      -6.454  10.903  69.641  1.00  0.00    -0.114 C  
BRANCH  15  16
HETATM   16  C   UNL     1      -5.798  11.909  68.696  1.00  0.00    -0.049 C  
BRANCH  16  17
HETATM   17  C   UNL     1      -6.408  13.297  68.849  1.00  0.00    -0.096 C  
BRANCH  17  18
HETATM   18  C   UNL     1      -6.935  13.839  67.534  1.00  0.00    -0.161 C  
BRANCH  18  19
HETATM   19  C   UNL     1      -8.340  14.385  67.750  1.00  0.00    -0.172 C  
BRANCH  19  20
HETATM   20  C   UNL     1      -9.224  14.064  66.558  1.00  0.00    -0.240 C  
BRANCH  20  21
HETATM   21  C   UNL     1     -10.545  13.467  67.020  1.00  0.00    -0.269 C  
BRANCH  21  22
HETATM   22  C   UNL     1     -11.023  12.425  66.020  1.00  0.00    -0.324 C  
BRANCH  22  23
HETATM   23  C   UNL     1     -12.397  12.788  65.473  1.00  0.00    -0.495 C  
BRANCH  23  24
HETATM   24  C   UNL     1     -12.580  14.299  65.445  1.00  0.00    -0.422 C  
BRANCH  24  25
HETATM   25  C   UNL     1     -12.182  14.876  64.097  1.00  0.00    -0.255 C  
HETATM   26  O   UNL     1     -11.280  15.956  64.287  1.00  0.00    -0.840 OA 
HETATM   27  H   UNL     1     -11.030  16.316  63.444  1.00  0.00     0.000 HD 
ENDBRANCH  24  25
ENDBRANCH  23  24
ENDBRANCH  22  23
ENDBRANCH  21  22
ENDBRANCH  20  21
ENDBRANCH  19  20
ENDBRANCH  18  19
ENDBRANCH  17  18
ENDBRANCH  16  17
ENDBRANCH  15  16
ENDBRANCH  14  15
ENDBRANCH   9  14
ENDBRANCH   2   3
TORSDOF 14
ENDMDL
MODEL      307
REMARK 921   NORMALIZED FREE ENERGY PREDICTED BY IDOCK:   -2.51 KCAL/MOL
REMARK 922        TOTAL FREE ENERGY PREDICTED BY IDOCK:   -6.38 KCAL/MOL
REMARK 923 INTER-LIGAND FREE ENERGY PREDICTED BY IDOCK:   -4.82 KCAL/MOL
REMARK 924 INTRA-LIGAND FREE ENERGY PREDICTED BY IDOCK:   -1.56 KCAL/MOL
REMARK 927      BINDING AFFINITY PREDICTED BY RF-SCORE:    0.00 PKD
ROOT
HETATM    1  C   UNL     1      -6.141   8.026  65.233  1.00  0.00    -0.045 C  
HETATM    2  O   UNL     1      -7.518   8.033  64.883  1.00  0.00    -0.079 OA 
ENDROOT
BRANCH   2   3
HETATM    3  C   UNL     1      -8.285   6.962  65.338  1.00  0.00    -0.134 C  
HETATM    4  C   UNL     1      -9.148   7.177  66.347  1.00  0.00    -0.157 C  
HETATM    5  C   UNL     1      -9.956   6.030  66.860  1.00  0.00    -0.169 C  
HETATM    6  O   UNL     1      -7.610   5.364  63.676  1.00  0.00    -0.063 OA 
HETATM    7  O   UNL     1     -11.003   6.171  67.483  1.00  0.00    -0.316 OA 
HETATM    8  C   UNL     1      -8.129   5.582  64.765  1.00  0.00    -0.126 C  
HETATM    9  C   UNL     1      -9.415   4.662  66.624  1.00  0.00    -0.173 C  
HETATM   10  C   UNL     1      -8.020   3.101  65.205  1.00  0.00    -0.082 C  
HETATM   11  C   UNL     1      -8.571   4.441  65.604  1.00  0.00    -0.119 C  
BRANCH   4  12
HETATM   12  O   UNL     1      -9.258   8.467  66.865  1.00  0.00    -0.144 OA 
HETATM   13  C   UNL     1      -8.871   8.689  68.216  1.00  0.00    -0.142 C  
ENDBRANCH   4  12
BRANCH   9  14
HETATM   14  C   UNL     1      -9.864   3.618  67.599  1.00  0.00     0.026 C  
BRANCH  14  15
HETATM   15  C   UNL     1      -8.949   3.505  68.819  1.00  0.00    -0.184 C  
BRANCH  15  16
HETATM   16  C   UNL     1      -9.745   3.288  70.106  1.00  0.00    -0.096 C  
BRANCH  16  17
HETATM   17  C   UNL     1      -9.697   4.517  71.005  1.00  0.00    -0.259 C  
BRANCH  17  18
HETATM   18  C   UNL     1      -8.342   4.691  71.666  1.00  0.00    -0.105 C  
BRANCH  18  19
HETATM   19  C   UNL     1      -7.974   6.169  71.662  1.00  0.00    -0.103 C  
BRANCH  19  20
HETATM   20  C   UNL     1      -8.706   6.902  72.771  1.00  0.00    -0.133 C  
BRANCH  20  21
HETATM   21  C   UNL     1      -9.209   8.250  72.278  1.00  0.00    -0.297 C  
BRANCH  21  22
HETATM   22  C   UNL     1     -10.678   8.419  72.636  1.00  0.00    -0.312 C  
BRANCH  22  23
HETATM   23  C   UNL     1     -11.571   7.917  71.509  1.00  0.00    -0.306 C  
BRANCH  23  24
HETATM   24  C   UNL     1     -12.572   8.989  71.102  1.00  0.00    -0.263 C  
BRANCH  24  25
HETATM   25  C   UNL     1     -11.873  10.178  70.463  1.00  0.00    -0.321 C  
HETATM   26  O   UNL     1     -12.512  10.506  69.238  1.00  0.00    -0.714 OA 
HETATM   27  H   UNL     1     -12.075  11.250  68.839  1.00  0.00     0.000 HD 
ENDBRANCH  24  25
ENDBRANCH  23  24
ENDBRANCH  22  23
ENDBRANCH  21  22
ENDBRANCH  20  21
ENDBRANCH  19  20
ENDBRANCH  18  19
ENDBRANCH  17  18
ENDBRANCH  16  17
ENDBRANCH  15  16
ENDBRANCH  14  15
ENDBRANCH   9  14
ENDBRANCH   2   3
TORSDOF 14
ENDMDL
MODEL      308
REMARK 921   NORMALIZED FREE ENERGY PREDICTED BY IDOCK:   -2.43 KCAL/MOL
REMARK 922        TOTAL FREE ENERGY PREDICTED BY IDOCK:   -6.23 KCAL/MOL
REMARK 923 INTER-LIGAND FREE ENERGY PREDICTED BY IDOCK:   -4.13 KCAL/MOL
REMARK 924 INTRA-LIGAND FREE ENERGY PREDICTED BY IDOCK:   -2.11 KCAL/MOL
REMARK 927      BINDING AFFINITY PREDICTED BY RF-SCORE:    0.00 PKD
ROOT
HETATM    1  C   UNL     1     -12.992   9.056  72.174  1.00  0.00    -0.424 C  
HETATM    2  O   UNL     1     -11.648   9.108  71.714  1.00  0.00    -0.349 OA 
ENDROOT
BRANCH   2   3
HETATM    3  C   UNL     1     -11.431   8.785  70.376  1.00  0.00    -0.144 C  
HETATM    4  C   UNL     1     -11.076   7.524  70.073  1.00  0.00    -0.204 C  
HETATM    5  C   UNL     1     -10.817   7.173  68.644  1.00  0.00    -0.108 C  
HETATM    6  O   UNL     1     -12.132  10.880  69.430  1.00  0.00    -0.328 OA 
HETATM    7  O   UNL     1     -10.862   6.024  68.216  1.00  0.00    -0.275 OA 
HETATM    8  C   UNL     1     -11.535   9.818  69.290  1.00  0.00     0.072 C  
HETATM    9  C   UNL     1     -10.446   8.289  67.730  1.00  0.00    -0.280 C  
HETATM   10  C   UNL     1     -10.585  10.746  67.146  1.00  0.00    -0.306 C  
HETATM   11  C   UNL     1     -10.819   9.546  68.020  1.00  0.00    -0.225 C  
BRANCH   4  12
HETATM   12  O   UNL     1     -10.976   6.593  71.107  1.00  0.00    -0.239 OA 
HETATM   13  C   UNL     1     -12.078   5.727  71.347  1.00  0.00     0.657 C  
ENDBRANCH   4  12
BRANCH   9  14
HETATM   14  C   UNL     1      -9.641   7.895  66.530  1.00  0.00    -0.281 C  
BRANCH  14  15
HETATM   15  C   UNL     1      -8.156   8.240  66.667  1.00  0.00    -0.102 C  
BRANCH  15  16
HETATM   16  C   UNL     1      -7.371   7.108  67.328  1.00  0.00    -0.091 C  
BRANCH  16  17
HETATM   17  C   UNL     1      -6.359   7.645  68.333  1.00  0.00    -0.041 C  
BRANCH  17  18
HETATM   18  C   UNL     1      -6.357   9.161  68.390  1.00  0.00    -0.054 C  
BRANCH  18  19
HETATM   19  C   UNL     1      -7.016   9.609  69.688  1.00  0.00    -0.071 C  
BRANCH  19  20
HETATM   20  C   UNL     1      -6.644   8.673  70.824  1.00  0.00    -0.045 C  
BRANCH  20  21
HETATM   21  C   UNL     1      -7.876   8.305  71.637  1.00  0.00    -0.139 C  
BRANCH  21  22
HETATM   22  C   UNL     1      -7.773   6.863  72.111  1.00  0.00    -0.093 C  
BRANCH  22  23
HETATM   23  C   UNL     1      -7.286   6.799  73.553  1.00  0.00    -0.079 C  
BRANCH  23  24
HETATM   24  C   UNL     1      -8.423   7.110  74.516  1.00  0.00    -0.224 C  
BRANCH  24  25
HETATM   25  C   UNL     1      -9.742   6.552  74.006  1.00  0.00    -0.248 C  
HETATM   26  O   UNL     1     -10.725   7.577  74.005  1.00  0.00    -0.508 OA 
HETATM   27  H   UNL     1     -11.550   7.228  73.686  1.00  0.00     0.000 HD 
ENDBRANCH  24  25
ENDBRANCH  23  24
ENDBRANCH  22  23
ENDBRANCH  21  22
ENDBRANCH  20  21
ENDBRANCH  19  20
ENDBRANCH  18  19
ENDBRANCH  17  18
ENDBRANCH  16  17
ENDBRANCH  15  16
ENDBRANCH  14  15
ENDBRANCH   9  14
ENDBRANCH   2   3
TORSDOF 14
ENDMDL
MODEL      309
REMARK 921   NORMALIZED FREE ENERGY PREDICTED BY IDOCK:   -2.42 KCAL/MOL
REMARK 922        TOTAL FREE ENERGY PREDICTED BY IDOCK:   -6.22 KCAL/MOL
REMARK 923 INTER-LIGAND FREE ENERGY PREDICTED BY IDOCK:   -4.97 KCAL/MOL
REMARK 924 INTRA-LIGAND FREE ENERGY PREDICTED BY IDOCK:   -1.24 KCAL/MOL
REMARK 927      BINDING AFFINITY PREDICTED BY RF-SCORE:    0.00 PKD
ROOT
HETATM    1  C   UNL     1      -8.122  12.370  68.150  1.00  0.00    -0.163 C  
HETATM    2  O   UNL     1      -8.212  10.959  68.297  1.00  0.00    -0.115 OA 
ENDROOT
BRANCH   2   3
HETATM    3  C   UNL     1      -7.833  10.190  67.197  1.00  0.00    -0.099 C  
HETATM    4  C   UNL     1      -8.719  10.024  66.199  1.00  0.00    -0.140 C  
HETATM    5  C   UNL     1      -8.333   9.182  65.027  1.00  0.00    -0.158 C  
HETATM    6  O   UNL     1      -5.540   9.847  67.828  1.00  0.00    -0.039 OA 
HETATM    7  O   UNL     1      -8.878   9.265  63.932  1.00  0.00    -0.204 OA 
HETATM    8  C   UNL     1      -6.494   9.513  67.133  1.00  0.00    -0.066 C  
HETATM    9  C   UNL     1      -7.260   8.171  65.245  1.00  0.00    -0.068 C  
HETATM   10  C   UNL     1      -5.186   7.452  66.500  1.00  0.00    -0.024 C  
HETATM   11  C   UNL     1      -6.362   8.346  66.227  1.00  0.00    -0.053 C  
BRANCH   4  12
HETATM   12  O   UNL     1      -9.959  10.656  66.297  1.00  0.00    -0.206 OA 
HETATM   13  C   UNL     1     -11.036   9.943  66.893  1.00  0.00     0.023 C  
ENDBRANCH   4  12
BRANCH   9  14
HETATM   14  C   UNL     1      -7.295   6.991  64.323  1.00  0.00    -0.089 C  
BRANCH  14  15
HETATM   15  C   UNL     1      -7.661   5.687  65.034  1.00  0.00    -0.094 C  
BRANCH  15  16
HETATM   16  C   UNL     1      -8.929   5.838  65.875  1.00  0.00    -0.158 C  
BRANCH  16  17
HETATM   17  C   UNL     1      -8.716   5.336  67.298  1.00  0.00    -0.107 C  
BRANCH  17  18
HETATM   18  C   UNL     1      -9.947   4.642  67.850  1.00  0.00    -0.138 C  
BRANCH  18  19
HETATM   19  C   UNL     1     -10.041   4.915  69.346  1.00  0.00    -0.270 C  
BRANCH  19  20
HETATM   20  C   UNL     1     -11.070   5.994  69.625  1.00  0.00    -0.474 C  
BRANCH  20  21
HETATM   21  C   UNL     1     -10.724   6.742  70.904  1.00  0.00    -0.269 C  
BRANCH  21  22
HETATM   22  C   UNL     1     -11.990   7.292  71.544  1.00  0.00    -0.349 C  
BRANCH  22  23
HETATM   23  C   UNL     1     -11.752   8.687  72.107  1.00  0.00    -0.442 C  
BRANCH  23  24
HETATM   24  C   UNL     1     -11.014   9.553  71.095  1.00  0.00    -0.438 C  
BRANCH  24  25
HETATM   25  C   UNL     1     -11.927  10.626  70.523  1.00  0.00    -0.352 C  
HETATM   26  O   UNL     1     -11.144  11.697  70.015  1.00  0.00    -0.481 OA 
HETATM   27  H   UNL     1     -11.714  12.367  69.657  1.00  0.00     0.000 HD 
ENDBRANCH  24  25
ENDBRANCH  23  24
ENDBRANCH  22  23
ENDBRANCH  21  22
ENDBRANCH  20  21
ENDBRANCH  19  20
ENDBRANCH  18  19
ENDBRANCH  17  18
ENDBRANCH  16  17
ENDBRANCH  15  16
ENDBRANCH  14  15
ENDBRANCH   9  14
ENDBRANCH   2   3
TORSDOF 14
ENDMDL
MODEL      310
REMARK 921   NORMALIZED FREE ENERGY PREDICTED BY IDOCK:   -2.40 KCAL/MOL
REMARK 922        TOTAL FREE ENERGY PREDICTED BY IDOCK:   -6.19 KCAL/MOL
REMARK 923 INTER-LIGAND FREE ENERGY PREDICTED BY IDOCK:   -5.17 KCAL/MOL
REMARK 924 INTRA-LIGAND FREE ENERGY PREDICTED BY IDOCK:   -1.01 KCAL/MOL
REMARK 927      BINDING AFFINITY PREDICTED BY RF-SCORE:    0.00 PKD
ROOT
HETATM    1  C   UNL     1     -11.457   4.908  73.322  1.00  0.00    -0.274 C  
HETATM    2  O   UNL     1     -10.941   6.205  73.591  1.00  0.00    -0.196 OA 
ENDROOT
BRANCH   2   3
HETATM    3  C   UNL     1     -10.592   6.980  72.486  1.00  0.00    -0.225 C  
HETATM    4  C   UNL     1      -9.361   6.830  71.964  1.00  0.00    -0.141 C  
HETATM    5  C   UNL     1      -8.968   7.674  70.796  1.00  0.00    -0.149 C  
HETATM    6  O   UNL     1     -12.741   7.990  72.119  1.00  0.00    -0.308 OA 
HETATM    7  O   UNL     1      -8.061   7.375  70.026  1.00  0.00    -0.123 OA 
HETATM    8  C   UNL     1     -11.533   8.000  71.911  1.00  0.00    -0.291 C  
HETATM    9  C   UNL     1      -9.703   8.957  70.609  1.00  0.00    -0.260 C  
HETATM   10  C   UNL     1     -11.821  10.303  70.923  1.00  0.00    -0.473 C  
HETATM   11  C   UNL     1     -10.940   9.100  71.111  1.00  0.00    -0.390 C  
BRANCH   4  12
HETATM   12  O   UNL     1      -8.508   5.884  72.531  1.00  0.00    -0.117 OA 
HETATM   13  C   UNL     1      -7.431   6.342  73.338  1.00  0.00    -0.086 C  
ENDBRANCH   4  12
BRANCH   9  14
HETATM   14  C   UNL     1      -8.957  10.021  69.865  1.00  0.00    -0.178 C  
BRANCH  14  15
HETATM   15  C   UNL     1      -9.850  10.825  68.917  1.00  0.00    -0.209 C  
BRANCH  15  16
HETATM   16  C   UNL     1      -9.499  10.563  67.452  1.00  0.00    -0.172 C  
BRANCH  16  17
HETATM   17  C   UNL     1      -9.220   9.086  67.201  1.00  0.00    -0.164 C  
BRANCH  17  18
HETATM   18  C   UNL     1     -10.475   8.322  66.823  1.00  0.00    -0.313 C  
BRANCH  18  19
HETATM   19  C   UNL     1     -10.663   7.165  67.795  1.00  0.00    -0.282 C  
BRANCH  19  20
HETATM   20  C   UNL     1     -10.550   5.837  67.069  1.00  0.00    -0.373 C  
BRANCH  20  21
HETATM   21  C   UNL     1      -9.309   5.084  67.524  1.00  0.00    -0.138 C  
BRANCH  21  22
HETATM   22  C   UNL     1      -8.072   5.675  66.866  1.00  0.00    -0.102 C  
BRANCH  22  23
HETATM   23  C   UNL     1      -6.804   5.047  67.431  1.00  0.00    -0.056 C  
BRANCH  23  24
HETATM   24  C   UNL     1      -6.516   3.718  66.746  1.00  0.00    -0.041 C  
BRANCH  24  25
HETATM   25  C   UNL     1      -6.634   3.842  65.236  1.00  0.00    -0.044 C  
HETATM   26  O   UNL     1      -7.499   2.831  64.740  1.00  0.00    -0.068 OA 
HETATM   27  H   UNL     1      -7.574   2.908  63.796  1.00  0.00     0.000 HD 
ENDBRANCH  24  25
ENDBRANCH  23  24
ENDBRANCH  22  23
ENDBRANCH  21  22
ENDBRANCH  20  21
ENDBRANCH  19  20
ENDBRANCH  18  19
ENDBRANCH  17  18
ENDBRANCH  16  17
ENDBRANCH  15  16
ENDBRANCH  14  15
ENDBRANCH   9  14
ENDBRANCH   2   3
TORSDOF 14
ENDMDL
MODEL      311
REMARK 921   NORMALIZED FREE ENERGY PREDICTED BY IDOCK:   -2.38 KCAL/MOL
REMARK 922        TOTAL FREE ENERGY PREDICTED BY IDOCK:   -6.14 KCAL/MOL
REMARK 923 INTER-LIGAND FREE ENERGY PREDICTED BY IDOCK:   -5.24 KCAL/MOL
REMARK 924 INTRA-LIGAND FREE ENERGY PREDICTED BY IDOCK:   -0.90 KCAL/MOL
REMARK 927      BINDING AFFINITY PREDICTED BY RF-SCORE:    0.00 PKD
ROOT
HETATM    1  C   UNL     1     -11.979  13.625  68.468  1.00  0.00    -0.361 C  
HETATM    2  O   UNL     1     -12.420  12.736  67.450  1.00  0.00    -0.168 OA 
ENDROOT
BRANCH   2   3
HETATM    3  C   UNL     1     -11.431  12.114  66.691  1.00  0.00    -0.365 C  
HETATM    4  C   UNL     1     -11.164  12.602  65.467  1.00  0.00    -0.302 C  
HETATM    5  C   UNL     1     -10.123  11.927  64.634  1.00  0.00    -0.269 C  
HETATM    6  O   UNL     1     -10.667  10.576  68.371  1.00  0.00    -0.194 OA 
HETATM    7  O   UNL     1      -9.544  12.479  63.705  1.00  0.00    -0.165 OA 
HETATM    8  C   UNL     1     -10.707  10.895  67.188  1.00  0.00    -0.270 C  
HETATM    9  C   UNL     1      -9.828  10.500  64.946  1.00  0.00    -0.379 C  
HETATM   10  C   UNL     1      -9.747   8.628  66.643  1.00  0.00    -0.315 C  
HETATM   11  C   UNL     1     -10.074  10.017  66.174  1.00  0.00    -0.317 C  
BRANCH   4  12
HETATM   12  O   UNL     1     -11.864  13.727  65.031  1.00  0.00    -0.337 OA 
HETATM   13  C   UNL     1     -11.182  14.974  64.989  1.00  0.00    -0.409 C  
ENDBRANCH   4  12
BRANCH   9  14
HETATM   14  C   UNL     1      -9.280   9.696  63.808  1.00  0.00    -0.170 C  
BRANCH  14  15
HETATM   15  C   UNL     1      -7.946   9.023  64.139  1.00  0.00    -0.144 C  
BRANCH  15  16
HETATM   16  C   UNL     1      -6.885  10.043  64.550  1.00  0.00    -0.127 C  
BRANCH  16  17
HETATM   17  C   UNL     1      -6.214   9.652  65.861  1.00  0.00    -0.069 C  
BRANCH  17  18
HETATM   18  C   UNL     1      -6.270   8.156  66.109  1.00  0.00    -0.045 C  
BRANCH  18  19
HETATM   19  C   UNL     1      -5.989   7.886  67.582  1.00  0.00    -0.046 C  
BRANCH  19  20
HETATM   20  C   UNL     1      -7.257   8.040  68.402  1.00  0.00    -0.089 C  
BRANCH  20  21
HETATM   21  C   UNL     1      -7.544   6.767  69.183  1.00  0.00    -0.100 C  
BRANCH  21  22
HETATM   22  C   UNL     1      -8.696   6.998  70.149  1.00  0.00    -0.141 C  
BRANCH  22  23
HETATM   23  C   UNL     1      -8.576   6.087  71.364  1.00  0.00    -0.129 C  
BRANCH  23  24
HETATM   24  C   UNL     1      -9.422   4.834  71.178  1.00  0.00    -0.218 C  
BRANCH  24  25
HETATM   25  C   UNL     1      -8.632   3.583  71.526  1.00  0.00    -0.076 C  
HETATM   26  O   UNL     1      -7.247   3.820  71.318  1.00  0.00    -0.032 OA 
HETATM   27  H   UNL     1      -6.753   3.038  71.536  1.00  0.00     0.000 HD 
ENDBRANCH  24  25
ENDBRANCH  23  24
ENDBRANCH  22  23
ENDBRANCH  21  22
ENDBRANCH  20  21
ENDBRANCH  19  20
ENDBRANCH  18  19
ENDBRANCH  17  18
ENDBRANCH  16  17
ENDBRANCH  15  16
ENDBRANCH  14  15
ENDBRANCH   9  14
ENDBRANCH   2   3
TORSDOF 14
ENDMDL
MODEL      312
REMARK 921   NORMALIZED FREE ENERGY PREDICTED BY IDOCK:   -2.36 KCAL/MOL
REMARK 922        TOTAL FREE ENERGY PREDICTED BY IDOCK:   -6.10 KCAL/MOL
REMARK 923 INTER-LIGAND FREE ENERGY PREDICTED BY IDOCK:   -4.62 KCAL/MOL
REMARK 924 INTRA-LIGAND FREE ENERGY PREDICTED BY IDOCK:   -1.49 KCAL/MOL
REMARK 927      BINDING AFFINITY PREDICTED BY RF-SCORE:    0.00 PKD
ROOT
HETATM    1  C   UNL     1     -11.851  11.858  69.834  1.00  0.00    -0.343 C  
HETATM    2  O   UNL     1     -12.231  11.252  68.606  1.00  0.00    -0.562 OA 
ENDROOT
BRANCH   2   3
HETATM    3  C   UNL     1     -11.206  10.702  67.837  1.00  0.00    -0.308 C  
HETATM    4  C   UNL     1     -10.674  11.450  66.854  1.00  0.00    -0.265 C  
HETATM    5  C   UNL     1      -9.592  10.862  66.007  1.00  0.00    -0.209 C  
HETATM    6  O   UNL     1     -10.935   8.667  69.085  1.00  0.00    -0.098 OA 
HETATM    7  O   UNL     1      -8.799  11.539  65.363  1.00  0.00    -0.071 OA 
HETATM    8  C   UNL     1     -10.730   9.294  68.051  1.00  0.00    -0.174 C  
HETATM    9  C   UNL     1      -9.529   9.375  65.928  1.00  0.00    -0.315 C  
HETATM   10  C   UNL     1      -9.969   7.129  67.005  1.00  0.00    -0.283 C  
HETATM   11  C   UNL     1     -10.040   8.628  66.919  1.00  0.00    -0.355 C  
BRANCH   4  12
HETATM   12  O   UNL     1     -11.148  12.749  66.673  1.00  0.00    -0.261 OA 
HETATM   13  C   UNL     1     -10.202  13.802  66.535  1.00  0.00    -0.284 C  
ENDBRANCH   4  12
BRANCH   9  14
HETATM   14  C   UNL     1      -8.892   8.825  64.689  1.00  0.00    -0.054 C  
BRANCH  14  15
HETATM   15  C   UNL     1      -7.595   8.063  64.971  1.00  0.00    -0.104 C  
BRANCH  15  16
HETATM   16  C   UNL     1      -6.552   8.952  65.648  1.00  0.00    -0.064 C  
BRANCH  16  17
HETATM   17  C   UNL     1      -6.145   8.397  67.008  1.00  0.00    -0.055 C  
BRANCH  17  18
HETATM   18  C   UNL     1      -6.008   6.886  66.992  1.00  0.00    -0.022 C  
BRANCH  18  19
HETATM   19  C   UNL     1      -6.044   6.370  68.425  1.00  0.00    -0.024 C  
BRANCH  19  20
HETATM   20  C   UNL     1      -7.187   7.010  69.191  1.00  0.00    -0.090 C  
BRANCH  20  21
HETATM   21  C   UNL     1      -7.700   6.068  70.269  1.00  0.00    -0.097 C  
BRANCH  21  22
HETATM   22  C   UNL     1      -7.151   4.668  70.040  1.00  0.00    -0.049 C  
BRANCH  22  23
HETATM   23  C   UNL     1      -8.267   3.632  70.089  1.00  0.00    -0.070 C  
BRANCH  23  24
HETATM   24  C   UNL     1      -9.068   3.649  68.794  1.00  0.00    -0.200 C  
BRANCH  24  25
HETATM   25  C   UNL     1      -9.279   2.240  68.262  1.00  0.00    -0.192 C  
HETATM   26  O   UNL     1      -8.277   1.938  67.302  1.00  0.00    -0.069 OA 
HETATM   27  H   UNL     1      -8.408   1.058  66.969  1.00  0.00     0.000 HD 
ENDBRANCH  24  25
ENDBRANCH  23  24
ENDBRANCH  22  23
ENDBRANCH  21  22
ENDBRANCH  20  21
ENDBRANCH  19  20
ENDBRANCH  18  19
ENDBRANCH  17  18
ENDBRANCH  16  17
ENDBRANCH  15  16
ENDBRANCH  14  15
ENDBRANCH   9  14
ENDBRANCH   2   3
TORSDOF 14
ENDMDL
MODEL      313
REMARK 921   NORMALIZED FREE ENERGY PREDICTED BY IDOCK:   -2.30 KCAL/MOL
REMARK 922        TOTAL FREE ENERGY PREDICTED BY IDOCK:   -6.00 KCAL/MOL
REMARK 923 INTER-LIGAND FREE ENERGY PREDICTED BY IDOCK:   -5.90 KCAL/MOL
REMARK 924 INTRA-LIGAND FREE ENERGY PREDICTED BY IDOCK:   -0.10 KCAL/MOL
REMARK 927      BINDING AFFINITY PREDICTED BY RF-SCORE:    0.00 PKD
ROOT
HETATM    1  C   UNL     1      -8.384  16.655  65.980  1.00  0.00    -0.145 C  
HETATM    2  O   UNL     1      -9.708  16.176  65.784  1.00  0.00    -0.353 OA 
ENDROOT
BRANCH   2   3
HETATM    3  C   UNL     1     -10.138  15.159  66.634  1.00  0.00    -0.264 C  
HETATM    4  C   UNL     1     -10.689  14.060  66.088  1.00  0.00    -0.289 C  
HETATM    5  C   UNL     1     -11.176  12.974  66.991  1.00  0.00    -0.289 C  
HETATM    6  O   UNL     1      -9.303  16.091  68.685  1.00  0.00    -0.197 OA 
HETATM    7  O   UNL     1     -11.336  11.816  66.623  1.00  0.00    -0.324 OA 
HETATM    8  C   UNL     1     -10.045  15.289  68.128  1.00  0.00    -0.229 C  
HETATM    9  C   UNL     1     -11.516  13.360  68.390  1.00  0.00    -0.351 C  
HETATM   10  C   UNL     1     -11.140  14.894  70.364  1.00  0.00    -0.212 C  
HETATM   11  C   UNL     1     -10.950  14.444  68.944  1.00  0.00    -0.269 C  
BRANCH   4  12
HETATM   12  O   UNL     1     -10.772  13.978  64.698  1.00  0.00    -0.407 OA 
HETATM   13  C   UNL     1     -12.054  14.079  64.090  1.00  0.00    -0.422 C  
ENDBRANCH   4  12
BRANCH   9  14
HETATM   14  C   UNL     1     -12.516  12.478  69.072  1.00  0.00     0.402 C  
BRANCH  14  15
HETATM   15  C   UNL     1     -12.076  11.014  69.136  1.00  0.00    -0.333 C  
BRANCH  15  16
HETATM   16  C   UNL     1     -11.252  10.725  70.391  1.00  0.00    -0.270 C  
BRANCH  16  17
HETATM   17  C   UNL     1     -10.045   9.850  70.076  1.00  0.00    -0.308 C  
BRANCH  17  18
HETATM   18  C   UNL     1     -10.446   8.439  69.688  1.00  0.00    -0.221 C  
BRANCH  18  19
HETATM   19  C   UNL     1      -9.633   8.008  68.474  1.00  0.00    -0.159 C  
BRANCH  19  20
HETATM   20  C   UNL     1      -8.996   6.652  68.716  1.00  0.00    -0.125 C  
BRANCH  20  21
HETATM   21  C   UNL     1     -10.065   5.578  68.853  1.00  0.00    -0.266 C  
BRANCH  21  22
HETATM   22  C   UNL     1      -9.855   4.498  67.802  1.00  0.00    -0.169 C  
BRANCH  22  23
HETATM   23  C   UNL     1     -10.169   5.029  66.409  1.00  0.00    -0.307 C  
BRANCH  23  24
HETATM   24  C   UNL     1      -9.862   3.976  65.354  1.00  0.00    -0.192 C  
BRANCH  24  25
HETATM   25  C   UNL     1      -8.474   4.175  64.768  1.00  0.00    -0.116 C  
HETATM   26  O   UNL     1      -8.173   3.109  63.878  1.00  0.00    -0.085 OA 
HETATM   27  H   UNL     1      -7.306   3.234  63.512  1.00  0.00     0.000 HD 
ENDBRANCH  24  25
ENDBRANCH  23  24
ENDBRANCH  22  23
ENDBRANCH  21  22
ENDBRANCH  20  21
ENDBRANCH  19  20
ENDBRANCH  18  19
ENDBRANCH  17  18
ENDBRANCH  16  17
ENDBRANCH  15  16
ENDBRANCH  14  15
ENDBRANCH   9  14
ENDBRANCH   2   3
TORSDOF 14
ENDMDL
MODEL      314
REMARK 921   NORMALIZED FREE ENERGY PREDICTED BY IDOCK:   -2.29 KCAL/MOL
REMARK 922        TOTAL FREE ENERGY PREDICTED BY IDOCK:   -5.98 KCAL/MOL
REMARK 923 INTER-LIGAND FREE ENERGY PREDICTED BY IDOCK:   -5.79 KCAL/MOL
REMARK 924 INTRA-LIGAND FREE ENERGY PREDICTED BY IDOCK:   -0.19 KCAL/MOL
REMARK 927      BINDING AFFINITY PREDICTED BY RF-SCORE:    0.00 PKD
ROOT
HETATM    1  C   UNL     1     -13.066   9.163  72.220  1.00  0.00    -0.438 C  
HETATM    2  O   UNL     1     -11.694   8.899  71.959  1.00  0.00    -0.350 OA 
ENDROOT
BRANCH   2   3
HETATM    3  C   UNL     1     -11.275   9.020  70.635  1.00  0.00    -0.270 C  
HETATM    4  C   UNL     1     -11.092   7.897  69.918  1.00  0.00    -0.120 C  
HETATM    5  C   UNL     1     -10.619   8.013  68.506  1.00  0.00    -0.103 C  
HETATM    6  O   UNL     1     -11.400  11.415  70.484  1.00  0.00    -0.090 OA 
HETATM    7  O   UNL     1     -10.775   7.131  67.670  1.00  0.00    -0.240 OA 
HETATM    8  C   UNL     1     -10.981  10.359  70.021  1.00  0.00    -0.308 C  
HETATM    9  C   UNL     1      -9.885   9.258  68.139  1.00  0.00    -0.185 C  
HETATM   10  C   UNL     1      -9.477  11.723  68.526  1.00  0.00    -0.165 C  
HETATM   11  C   UNL     1     -10.084  10.385  68.840  1.00  0.00    -0.213 C  
BRANCH   4  12
HETATM   12  O   UNL     1     -11.362   6.669  70.523  1.00  0.00    -0.307 OA 
HETATM   13  C   UNL     1     -10.269   5.903  71.016  1.00  0.00    -0.211 C  
ENDBRANCH   4  12
BRANCH   9  14
HETATM   14  C   UNL     1      -8.938   9.127  66.986  1.00  0.00    -0.139 C  
BRANCH  14  15
HETATM   15  C   UNL     1      -9.647   9.100  65.631  1.00  0.00    -0.287 C  
BRANCH  15  16
HETATM   16  C   UNL     1      -8.651   9.095  64.471  1.00  0.00    -0.198 C  
BRANCH  16  17
HETATM   17  C   UNL     1      -8.860  10.291  63.551  1.00  0.00    -0.232 C  
BRANCH  17  18
HETATM   18  C   UNL     1     -10.323  10.676  63.436  1.00  0.00    -0.067 C  
BRANCH  18  19
HETATM   19  C   UNL     1     -10.497  12.114  63.907  1.00  0.00    -0.442 C  
BRANCH  19  20
HETATM   20  C   UNL     1     -10.141  12.237  65.377  1.00  0.00    -0.292 C  
BRANCH  20  21
HETATM   21  C   UNL     1      -9.805  13.680  65.725  1.00  0.00    -0.230 C  
BRANCH  21  22
HETATM   22  C   UNL     1     -10.823  14.227  66.714  1.00  0.00    -0.298 C  
BRANCH  22  23
HETATM   23  C   UNL     1     -10.136  14.741  67.972  1.00  0.00    -0.218 C  
BRANCH  23  24
HETATM   24  C   UNL     1     -10.379  16.235  68.142  1.00  0.00    -0.277 C  
BRANCH  24  25
HETATM   25  C   UNL     1      -9.679  16.767  69.382  1.00  0.00    -0.046 C  
HETATM   26  O   UNL     1      -8.811  15.771  69.904  1.00  0.00    -0.058 OA 
HETATM   27  H   UNL     1      -8.373  16.103  70.679  1.00  0.00     0.000 HD 
ENDBRANCH  24  25
ENDBRANCH  23  24
ENDBRANCH  22  23
ENDBRANCH  21  22
ENDBRANCH  20  21
ENDBRANCH  19  20
ENDBRANCH  18  19
ENDBRANCH  17  18
ENDBRANCH  16  17
ENDBRANCH  15  16
ENDBRANCH  14  15
ENDBRANCH   9  14
ENDBRANCH   2   3
TORSDOF 14
ENDMDL
MODEL      315
REMARK 921   NORMALIZED FREE ENERGY PREDICTED BY IDOCK:   -2.21 KCAL/MOL
REMARK 922        TOTAL FREE ENERGY PREDICTED BY IDOCK:   -5.83 KCAL/MOL
REMARK 923 INTER-LIGAND FREE ENERGY PREDICTED BY IDOCK:   -4.25 KCAL/MOL
REMARK 924 INTRA-LIGAND FREE ENERGY PREDICTED BY IDOCK:   -1.58 KCAL/MOL
REMARK 927      BINDING AFFINITY PREDICTED BY RF-SCORE:    0.00 PKD
ROOT
HETATM    1  C   UNL     1     -11.883  15.577  64.266  1.00  0.00    -0.173 C  
HETATM    2  O   UNL     1     -12.064  14.474  65.144  1.00  0.00    -0.383 OA 
ENDROOT
BRANCH   2   3
HETATM    3  C   UNL     1     -11.000  14.165  65.989  1.00  0.00    -0.304 C  
HETATM    4  C   UNL     1     -10.173  13.165  65.637  1.00  0.00    -0.286 C  
HETATM    5  C   UNL     1      -9.044  12.810  66.548  1.00  0.00    -0.147 C  
HETATM    6  O   UNL     1     -11.297  15.976  67.541  1.00  0.00    -0.200 OA 
HETATM    7  O   UNL     1      -8.044  12.207  66.175  1.00  0.00     0.220 OA 
HETATM    8  C   UNL     1     -10.795  14.886  67.292  1.00  0.00    -0.306 C  
HETATM    9  C   UNL     1      -9.190  13.182  67.983  1.00  0.00    -0.211 C  
HETATM   10  C   UNL     1     -10.172  14.725  69.730  1.00  0.00     0.012 C  
HETATM   11  C   UNL     1      -9.998  14.194  68.335  1.00  0.00    -0.235 C  
BRANCH   4  12
HETATM   12  O   UNL     1     -10.400  12.509  64.427  1.00  0.00    -0.326 OA 
HETATM   13  C   UNL     1     -10.686  11.116  64.457  1.00  0.00    -0.297 C  
ENDBRANCH   4  12
BRANCH   9  14
HETATM   14  C   UNL     1      -8.405  12.345  68.946  1.00  0.00     0.243 C  
BRANCH  14  15
HETATM   15  C   UNL     1      -8.632  10.844  68.756  1.00  0.00    -0.159 C  
BRANCH  15  16
HETATM   16  C   UNL     1      -9.944  10.385  69.393  1.00  0.00    -0.240 C  
BRANCH  16  17
HETATM   17  C   UNL     1     -10.546   9.204  68.641  1.00  0.00    -0.207 C  
BRANCH  17  18
HETATM   18  C   UNL     1     -10.999   8.100  69.577  1.00  0.00    -0.056 C  
BRANCH  18  19
HETATM   19  C   UNL     1     -10.142   6.864  69.337  1.00  0.00    -0.176 C  
BRANCH  19  20
HETATM   20  C   UNL     1      -9.034   7.170  68.345  1.00  0.00    -0.125 C  
BRANCH  20  21
HETATM   21  C   UNL     1      -8.789   5.977  67.434  1.00  0.00    -0.106 C  
BRANCH  21  22
HETATM   22  C   UNL     1      -9.031   6.371  65.985  1.00  0.00    -0.143 C  
BRANCH  22  23
HETATM   23  C   UNL     1      -8.907   7.879  65.805  1.00  0.00    -0.155 C  
BRANCH  23  24
HETATM   24  C   UNL     1      -8.254   8.206  64.469  1.00  0.00    -0.118 C  
BRANCH  24  25
HETATM   25  C   UNL     1      -6.987   9.022  64.664  1.00  0.00    -0.085 C  
HETATM   26  O   UNL     1      -7.215  10.363  64.254  1.00  0.00    -0.288 OA 
HETATM   27  H   UNL     1      -6.423  10.873  64.375  1.00  0.00     0.000 HD 
ENDBRANCH  24  25
ENDBRANCH  23  24
ENDBRANCH  22  23
ENDBRANCH  21  22
ENDBRANCH  20  21
ENDBRANCH  19  20
ENDBRANCH  18  19
ENDBRANCH  17  18
ENDBRANCH  16  17
ENDBRANCH  15  16
ENDBRANCH  14  15
ENDBRANCH   9  14
ENDBRANCH   2   3
TORSDOF 14
ENDMDL
MODEL      316
REMARK 921   NORMALIZED FREE ENERGY PREDICTED BY IDOCK:   -2.18 KCAL/MOL
REMARK 922        TOTAL FREE ENERGY PREDICTED BY IDOCK:   -5.78 KCAL/MOL
REMARK 923 INTER-LIGAND FREE ENERGY PREDICTED BY IDOCK:   -5.20 KCAL/MOL
REMARK 924 INTRA-LIGAND FREE ENERGY PREDICTED BY IDOCK:   -0.58 KCAL/MOL
REMARK 927      BINDING AFFINITY PREDICTED BY RF-SCORE:    0.00 PKD
ROOT
HETATM    1  C   UNL     1     -10.455   9.382  71.298  1.00  0.00    -0.315 C  
HETATM    2  O   UNL     1     -11.368   9.931  70.357  1.00  0.00    -0.265 OA 
ENDROOT
BRANCH   2   3
HETATM    3  C   UNL     1     -11.130   9.643  69.014  1.00  0.00    -0.070 C  
HETATM    4  C   UNL     1     -10.733   8.401  68.688  1.00  0.00    -0.034 C  
HETATM    5  C   UNL     1     -10.451   8.089  67.254  1.00  0.00    -0.314 C  
HETATM    6  O   UNL     1     -11.889  11.735  68.107  1.00  0.00    -0.451 OA 
HETATM    7  O   UNL     1     -10.455   6.949  66.801  1.00  0.00    -0.257 OA 
HETATM    8  C   UNL     1     -11.258  10.695  67.949  1.00  0.00    -0.308 C  
HETATM    9  C   UNL     1     -10.108   9.236  66.367  1.00  0.00    -0.337 C  
HETATM   10  C   UNL     1     -10.319  11.699  65.835  1.00  0.00    -0.289 C  
HETATM   11  C   UNL     1     -10.522  10.473  66.680  1.00  0.00    -0.290 C  
BRANCH   4  12
HETATM   12  O   UNL     1     -10.611   7.452  69.703  1.00  0.00    -0.228 OA 
HETATM   13  C   UNL     1     -11.364   6.250  69.599  1.00  0.00    -0.422 C  
ENDBRANCH   4  12
BRANCH   9  14
HETATM   14  C   UNL     1      -9.280   8.893  65.167  1.00  0.00    -0.100 C  
BRANCH  14  15
HETATM   15  C   UNL     1      -7.782   8.824  65.473  1.00  0.00    -0.092 C  
BRANCH  15  16
HETATM   16  C   UNL     1      -6.992   9.851  64.662  1.00  0.00    -0.133 C  
BRANCH  16  17
HETATM   17  C   UNL     1      -5.599   9.336  64.318  1.00  0.00    -0.068 C  
BRANCH  17  18
HETATM   18  C   UNL     1      -5.561   7.825  64.195  1.00  0.00    -0.041 C  
BRANCH  18  19
HETATM   19  C   UNL     1      -5.635   7.445  62.722  1.00  0.00    -0.045 C  
BRANCH  19  20
HETATM   20  C   UNL     1      -6.218   6.053  62.561  1.00  0.00    -0.026 C  
BRANCH  20  21
HETATM   21  C   UNL     1      -6.605   5.477  63.914  1.00  0.00    -0.033 C  
BRANCH  21  22
HETATM   22  C   UNL     1      -7.792   4.538  63.760  1.00  0.00    -0.085 C  
BRANCH  22  23
HETATM   23  C   UNL     1      -9.022   5.295  63.275  1.00  0.00     0.166 C  
BRANCH  23  24
HETATM   24  C   UNL     1     -10.006   4.344  62.607  1.00  0.00    -0.034 C  
BRANCH  24  25
HETATM   25  C   UNL     1     -10.728   3.490  63.636  1.00  0.00    -0.260 C  
HETATM   26  O   UNL     1     -11.328   4.327  64.614  1.00  0.00    -0.874 OA 
HETATM   27  H   UNL     1     -11.780   3.793  65.258  1.00  0.00     0.000 HD 
ENDBRANCH  24  25
ENDBRANCH  23  24
ENDBRANCH  22  23
ENDBRANCH  21  22
ENDBRANCH  20  21
ENDBRANCH  19  20
ENDBRANCH  18  19
ENDBRANCH  17  18
ENDBRANCH  16  17
ENDBRANCH  15  16
ENDBRANCH  14  15
ENDBRANCH   9  14
ENDBRANCH   2   3
TORSDOF 14
ENDMDL
MODEL      317
REMARK 921   NORMALIZED FREE ENERGY PREDICTED BY IDOCK:   -2.11 KCAL/MOL
REMARK 922        TOTAL FREE ENERGY PREDICTED BY IDOCK:   -5.66 KCAL/MOL
REMARK 923 INTER-LIGAND FREE ENERGY PREDICTED BY IDOCK:   -4.78 KCAL/MOL
REMARK 924 INTRA-LIGAND FREE ENERGY PREDICTED BY IDOCK:   -0.88 KCAL/MOL
REMARK 927      BINDING AFFINITY PREDICTED BY RF-SCORE:    0.00 PKD
ROOT
HETATM    1  C   UNL     1     -11.234  16.202  69.647  1.00  0.00    -0.331 C  
HETATM    2  O   UNL     1     -10.577  16.342  68.394  1.00  0.00    -0.271 OA 
ENDROOT
BRANCH   2   3
HETATM    3  C   UNL     1      -9.871  15.232  67.931  1.00  0.00    -0.216 C  
HETATM    4  C   UNL     1     -10.403  14.509  66.930  1.00  0.00    -0.264 C  
HETATM    5  C   UNL     1      -9.667  13.304  66.443  1.00  0.00    -0.276 C  
HETATM    6  O   UNL     1      -7.884  15.555  69.243  1.00  0.00    -0.196 OA 
HETATM    7  O   UNL     1      -9.846  12.809  65.335  1.00  0.00    -0.229 OA 
HETATM    8  C   UNL     1      -8.573  14.808  68.557  1.00  0.00    -0.168 C  
HETATM    9  C   UNL     1      -8.707  12.669  67.390  1.00  0.00    -0.191 C  
HETATM   10  C   UNL     1      -7.119  12.903  69.343  1.00  0.00     0.187 C  
HETATM   11  C   UNL     1      -8.159  13.394  68.377  1.00  0.00    -0.138 C  
BRANCH   4  12
HETATM   12  O   UNL     1     -11.616  14.924  66.381  1.00  0.00    -0.330 OA 
HETATM   13  C   UNL     1     -12.595  13.936  66.080  1.00  0.00    -0.380 C  
ENDBRANCH   4  12
BRANCH   9  14
HETATM   14  C   UNL     1      -8.446  11.213  67.157  1.00  0.00    -0.137 C  
BRANCH  14  15
HETATM   15  C   UNL     1      -9.429  10.303  67.897  1.00  0.00    -0.154 C  
BRANCH  15  16
HETATM   16  C   UNL     1      -9.013   8.834  67.814  1.00  0.00    -0.140 C  
BRANCH  16  17
HETATM   17  C   UNL     1      -9.890   8.062  66.835  1.00  0.00    -0.318 C  
BRANCH  17  18
HETATM   18  C   UNL     1      -9.122   6.965  66.122  1.00  0.00    -0.144 C  
BRANCH  18  19
HETATM   19  C   UNL     1      -9.263   5.669  66.910  1.00  0.00    -0.120 C  
BRANCH  19  20
HETATM   20  C   UNL     1      -7.897   5.130  67.295  1.00  0.00    -0.096 C  
BRANCH  20  21
HETATM   21  C   UNL     1      -7.913   4.606  68.723  1.00  0.00    -0.079 C  
BRANCH  21  22
HETATM   22  C   UNL     1      -9.346   4.511  69.226  1.00  0.00    -0.215 C  
BRANCH  22  23
HETATM   23  C   UNL     1      -9.427   4.873  70.703  1.00  0.00    -0.237 C  
BRANCH  23  24
HETATM   24  C   UNL     1      -9.986   3.709  71.509  1.00  0.00    -0.181 C  
BRANCH  24  25
HETATM   25  C   UNL     1      -8.871   2.913  72.168  1.00  0.00    -0.081 C  
HETATM   26  O   UNL     1      -9.339   1.610  72.485  1.00  0.00    -0.072 OA 
HETATM   27  H   UNL     1      -8.642   1.111  72.896  1.00  0.00     0.000 HD 
ENDBRANCH  24  25
ENDBRANCH  23  24
ENDBRANCH  22  23
ENDBRANCH  21  22
ENDBRANCH  20  21
ENDBRANCH  19  20
ENDBRANCH  18  19
ENDBRANCH  17  18
ENDBRANCH  16  17
ENDBRANCH  15  16
ENDBRANCH  14  15
ENDBRANCH   9  14
ENDBRANCH   2   3
TORSDOF 14
ENDMDL
MODEL      318
REMARK 921   NORMALIZED FREE ENERGY PREDICTED BY IDOCK:   -2.03 KCAL/MOL
REMARK 922        TOTAL FREE ENERGY PREDICTED BY IDOCK:   -5.52 KCAL/MOL
REMARK 923 INTER-LIGAND FREE ENERGY PREDICTED BY IDOCK:   -5.07 KCAL/MOL
REMARK 924 INTRA-LIGAND FREE ENERGY PREDICTED BY IDOCK:   -0.44 KCAL/MOL
REMARK 927      BINDING AFFINITY PREDICTED BY RF-SCORE:    0.00 PKD
ROOT
HETATM    1  C   UNL     1     -11.441  15.359  68.347  1.00  0.00    -0.355 C  
HETATM    2  O   UNL     1     -10.473  15.469  67.312  1.00  0.00    -0.268 OA 
ENDROOT
BRANCH   2   3
HETATM    3  C   UNL     1     -10.074  14.281  66.701  1.00  0.00    -0.273 C  
HETATM    4  C   UNL     1     -10.486  14.040  65.444  1.00  0.00    -0.351 C  
HETATM    5  C   UNL     1     -10.084  12.759  64.788  1.00  0.00    -0.217 C  
HETATM    6  O   UNL     1      -8.592  13.519  68.432  1.00  0.00    -0.171 OA 
HETATM    7  O   UNL     1     -10.073  12.602  63.572  1.00  0.00    -0.392 OA 
HETATM    8  C   UNL     1      -9.248  13.259  67.430  1.00  0.00    -0.216 C  
HETATM    9  C   UNL     1      -9.729  11.623  65.684  1.00  0.00    -0.262 C  
HETATM   10  C   UNL     1      -8.828  10.819  67.906  1.00  0.00    -0.132 C  
HETATM   11  C   UNL     1      -9.297  11.862  66.932  1.00  0.00    -0.198 C  
BRANCH   4  12
HETATM   12  O   UNL     1     -11.262  15.004  64.801  1.00  0.00    -0.390 OA 
HETATM   13  C   UNL     1     -12.604  14.677  64.464  1.00  0.00    -0.152 C  
ENDBRANCH   4  12
BRANCH   9  14
HETATM   14  C   UNL     1      -9.912  10.259  65.094  1.00  0.00    -0.395 C  
BRANCH  14  15
HETATM   15  C   UNL     1      -9.681  10.226  63.581  1.00  0.00    -0.276 C  
BRANCH  15  16
HETATM   16  C   UNL     1      -8.544   9.277  63.204  1.00  0.00    -0.209 C  
BRANCH  16  17
HETATM   17  C   UNL     1      -7.195   9.806  63.678  1.00  0.00    -0.119 C  
BRANCH  17  18
HETATM   18  C   UNL     1      -6.625   8.982  64.816  1.00  0.00    -0.066 C  
BRANCH  18  19
HETATM   19  C   UNL     1      -6.021   7.703  64.249  1.00  0.00    -0.048 C  
BRANCH  19  20
HETATM   20  C   UNL     1      -5.926   6.638  65.326  1.00  0.00    -0.034 C  
BRANCH  20  21
HETATM   21  C   UNL     1      -5.427   7.240  66.630  1.00  0.00    -0.023 C  
BRANCH  21  22
HETATM   22  C   UNL     1      -6.397   6.918  67.756  1.00  0.00    -0.048 C  
BRANCH  22  23
HETATM   23  C   UNL     1      -7.366   5.819  67.339  1.00  0.00    -0.077 C  
BRANCH  23  24
HETATM   24  C   UNL     1      -8.529   5.731  68.319  1.00  0.00    -0.113 C  
BRANCH  24  25
HETATM   25  C   UNL     1      -8.901   7.104  68.854  1.00  0.00    -0.130 C  
HETATM   26  O   UNL     1      -9.086   7.034  70.260  1.00  0.00    -0.155 OA 
HETATM   27  H   UNL     1      -9.318   7.892  70.595  1.00  0.00     0.000 HD 
ENDBRANCH  24  25
ENDBRANCH  23  24
ENDBRANCH  22  23
ENDBRANCH  21  22
ENDBRANCH  20  21
ENDBRANCH  19  20
ENDBRANCH  18  19
ENDBRANCH  17  18
ENDBRANCH  16  17
ENDBRANCH  15  16
ENDBRANCH  14  15
ENDBRANCH   9  14
ENDBRANCH   2   3
TORSDOF 14
ENDMDL
MODEL      319
REMARK 921   NORMALIZED FREE ENERGY PREDICTED BY IDOCK:   -1.96 KCAL/MOL
REMARK 922        TOTAL FREE ENERGY PREDICTED BY IDOCK:   -5.39 KCAL/MOL
REMARK 923 INTER-LIGAND FREE ENERGY PREDICTED BY IDOCK:   -4.06 KCAL/MOL
REMARK 924 INTRA-LIGAND FREE ENERGY PREDICTED BY IDOCK:   -1.33 KCAL/MOL
REMARK 927      BINDING AFFINITY PREDICTED BY RF-SCORE:    0.00 PKD
ROOT
HETATM    1  C   UNL     1      -8.039  11.423  69.122  1.00  0.00     0.082 C  
HETATM    2  O   UNL     1      -8.074  10.179  68.435  1.00  0.00    -0.100 OA 
ENDROOT
BRANCH   2   3
HETATM    3  C   UNL     1      -8.068  10.233  67.042  1.00  0.00    -0.121 C  
HETATM    4  C   UNL     1      -9.235  10.078  66.392  1.00  0.00    -0.156 C  
HETATM    5  C   UNL     1      -9.235  10.109  64.898  1.00  0.00    -0.232 C  
HETATM    6  O   UNL     1      -5.762  10.847  66.763  1.00  0.00    -0.059 OA 
HETATM    7  O   UNL     1     -10.235  10.354  64.232  1.00  0.00    -0.323 OA 
HETATM    8  C   UNL     1      -6.793  10.406  66.267  1.00  0.00    -0.117 C  
HETATM    9  C   UNL     1      -7.953   9.778  64.214  1.00  0.00    -0.143 C  
HETATM   10  C   UNL     1      -5.425   9.739  64.256  1.00  0.00    -0.076 C  
HETATM   11  C   UNL     1      -6.787   9.952  64.854  1.00  0.00    -0.127 C  
BRANCH   4  12
HETATM   12  O   UNL     1     -10.398   9.906  67.142  1.00  0.00    -0.216 OA 
HETATM   13  C   UNL     1     -11.214  11.043  67.395  1.00  0.00    -0.285 C  
ENDBRANCH   4  12
BRANCH   9  14
HETATM   14  C   UNL     1      -8.089   9.240  62.823  1.00  0.00    -0.152 C  
BRANCH  14  15
HETATM   15  C   UNL     1      -7.570   7.807  62.683  1.00  0.00    -0.119 C  
BRANCH  15  16
HETATM   16  C   UNL     1      -8.036   6.921  63.838  1.00  0.00    -0.064 C  
BRANCH  16  17
HETATM   17  C   UNL     1      -6.879   6.126  64.432  1.00  0.00    -0.046 C  
BRANCH  17  18
HETATM   18  C   UNL     1      -7.341   5.159  65.506  1.00  0.00    -0.073 C  
BRANCH  18  19
HETATM   19  C   UNL     1      -7.641   5.938  66.779  1.00  0.00    -0.099 C  
BRANCH  19  20
HETATM   20  C   UNL     1      -8.340   5.050  67.793  1.00  0.00    -0.105 C  
BRANCH  20  21
HETATM   21  C   UNL     1      -7.705   5.206  69.166  1.00  0.00    -0.080 C  
BRANCH  21  22
HETATM   22  C   UNL     1      -7.792   6.656  69.618  1.00  0.00    -0.115 C  
BRANCH  22  23
HETATM   23  C   UNL     1      -9.048   6.892  70.447  1.00  0.00    -0.156 C  
BRANCH  23  24
HETATM   24  C   UNL     1     -10.199   7.342  69.559  1.00  0.00    -0.200 C  
BRANCH  24  25
HETATM   25  C   UNL     1     -11.411   6.442  69.734  1.00  0.00    -0.399 C  
HETATM   26  O   UNL     1     -12.387   7.104  70.526  1.00  0.00    -0.582 OA 
HETATM   27  H   UNL     1     -13.145   6.542  70.635  1.00  0.00     0.000 HD 
ENDBRANCH  24  25
ENDBRANCH  23  24
ENDBRANCH  22  23
ENDBRANCH  21  22
ENDBRANCH  20  21
ENDBRANCH  19  20
ENDBRANCH  18  19
ENDBRANCH  17  18
ENDBRANCH  16  17
ENDBRANCH  15  16
ENDBRANCH  14  15
ENDBRANCH   9  14
ENDBRANCH   2   3
TORSDOF 14
ENDMDL
MODEL      320
REMARK 921   NORMALIZED FREE ENERGY PREDICTED BY IDOCK:   -1.96 KCAL/MOL
REMARK 922        TOTAL FREE ENERGY PREDICTED BY IDOCK:   -5.38 KCAL/MOL
REMARK 923 INTER-LIGAND FREE ENERGY PREDICTED BY IDOCK:   -4.89 KCAL/MOL
REMARK 924 INTRA-LIGAND FREE ENERGY PREDICTED BY IDOCK:   -0.48 KCAL/MOL
REMARK 927      BINDING AFFINITY PREDICTED BY RF-SCORE:    0.00 PKD
ROOT
HETATM    1  C   UNL     1     -10.771   5.705  73.853  1.00  0.00    -0.193 C  
HETATM    2  O   UNL     1     -10.766   7.124  73.926  1.00  0.00    -0.314 OA 
ENDROOT
BRANCH   2   3
HETATM    3  C   UNL     1     -10.632   7.812  72.721  1.00  0.00    -0.341 C  
HETATM    4  C   UNL     1      -9.396   7.989  72.221  1.00  0.00    -0.197 C  
HETATM    5  C   UNL     1      -9.239   8.747  70.943  1.00  0.00    -0.212 C  
HETATM    6  O   UNL     1     -12.972   8.030  72.222  1.00  0.00    -0.254 OA 
HETATM    7  O   UNL     1      -8.253   8.648  70.220  1.00  0.00    -0.105 OA 
HETATM    8  C   UNL     1     -11.821   8.394  72.010  1.00  0.00    -0.353 C  
HETATM    9  C   UNL     1     -10.331   9.693  70.579  1.00  0.00    -0.359 C  
HETATM   10  C   UNL     1     -12.775  10.330  70.706  1.00  0.00    -0.434 C  
HETATM   11  C   UNL     1     -11.570   9.505  71.059  1.00  0.00    -0.419 C  
BRANCH   4  12
HETATM   12  O   UNL     1      -8.314   7.448  72.913  1.00  0.00    -0.106 OA 
HETATM   13  C   UNL     1      -7.398   6.626  72.201  1.00  0.00    -0.089 C  
ENDBRANCH   4  12
BRANCH   9  14
HETATM   14  C   UNL     1      -9.926  10.827  69.688  1.00  0.00    -0.005 C  
BRANCH  14  15
HETATM   15  C   UNL     1     -10.684  10.843  68.359  1.00  0.00    -0.240 C  
BRANCH  15  16
HETATM   16  C   UNL     1      -9.734  10.759  67.164  1.00  0.00    -0.198 C  
BRANCH  16  17
HETATM   17  C   UNL     1      -9.130   9.366  67.031  1.00  0.00    -0.155 C  
BRANCH  17  18
HETATM   18  C   UNL     1      -8.194   9.259  65.842  1.00  0.00    -0.116 C  
BRANCH  18  19
HETATM   19  C   UNL     1      -8.780   8.278  64.835  1.00  0.00    -0.008 C  
BRANCH  19  20
HETATM   20  C   UNL     1      -7.672   7.561  64.085  1.00  0.00    -0.132 C  
BRANCH  20  21
HETATM   21  C   UNL     1      -7.885   6.056  64.131  1.00  0.00    -0.117 C  
BRANCH  21  22
HETATM   22  C   UNL     1      -8.014   5.593  65.575  1.00  0.00    -0.113 C  
BRANCH  22  23
HETATM   23  C   UNL     1      -9.097   4.531  65.709  1.00  0.00    -0.136 C  
BRANCH  23  24
HETATM   24  C   UNL     1      -8.623   3.207  65.124  1.00  0.00    -0.104 C  
BRANCH  24  25
HETATM   25  C   UNL     1      -8.022   2.317  66.200  1.00  0.00    -0.082 C  
HETATM   26  O   UNL     1      -8.896   2.263  67.318  1.00  0.00    -0.114 OA 
HETATM   27  H   UNL     1      -8.521   1.706  67.990  1.00  0.00     0.000 HD 
ENDBRANCH  24  25
ENDBRANCH  23  24
ENDBRANCH  22  23
ENDBRANCH  21  22
ENDBRANCH  20  21
ENDBRANCH  19  20
ENDBRANCH  18  19
ENDBRANCH  17  18
ENDBRANCH  16  17
ENDBRANCH  15  16
ENDBRANCH  14  15
ENDBRANCH   9  14
ENDBRANCH   2   3
TORSDOF 14
ENDMDL
MODEL      321
REMARK 921   NORMALIZED FREE ENERGY PREDICTED BY IDOCK:   -1.94 KCAL/MOL
REMARK 922        TOTAL FREE ENERGY PREDICTED BY IDOCK:   -5.35 KCAL/MOL
REMARK 923 INTER-LIGAND FREE ENERGY PREDICTED BY IDOCK:   -4.66 KCAL/MOL
REMARK 924 INTRA-LIGAND FREE ENERGY PREDICTED BY IDOCK:   -0.68 KCAL/MOL
REMARK 927      BINDING AFFINITY PREDICTED BY RF-SCORE:    0.00 PKD
ROOT
HETATM    1  C   UNL     1      -9.706  17.216  65.608  1.00  0.00     0.110 C  
HETATM    2  O   UNL     1     -10.937  16.734  66.129  1.00  0.00    -0.069 OA 
ENDROOT
BRANCH   2   3
HETATM    3  C   UNL     1     -11.023  15.363  66.364  1.00  0.00    -0.277 C  
HETATM    4  C   UNL     1     -10.246  14.830  67.323  1.00  0.00    -0.241 C  
HETATM    5  C   UNL     1     -10.311  13.357  67.566  1.00  0.00    -0.226 C  
HETATM    6  O   UNL     1     -12.855  14.904  64.878  1.00  0.00    -0.291 OA 
HETATM    7  O   UNL     1      -9.958  12.833  68.617  1.00  0.00    -0.190 OA 
HETATM    8  C   UNL     1     -11.916  14.477  65.542  1.00  0.00    -0.312 C  
HETATM    9  C   UNL     1     -10.793  12.506  66.441  1.00  0.00    -0.290 C  
HETATM   10  C   UNL     1     -12.209  12.269  64.359  1.00  0.00    -0.488 C  
HETATM   11  C   UNL     1     -11.587  13.032  65.495  1.00  0.00    -0.382 C  
BRANCH   4  12
HETATM   12  O   UNL     1      -9.418  15.678  68.058  1.00  0.00    -0.194 OA 
HETATM   13  C   UNL     1      -9.951  16.304  69.219  1.00  0.00    -0.259 C  
ENDBRANCH   4  12
BRANCH   9  14
HETATM   14  C   UNL     1     -10.312  11.088  66.459  1.00  0.00    -0.295 C  
BRANCH  14  15
HETATM   15  C   UNL     1      -9.153  10.838  65.491  1.00  0.00    -0.220 C  
BRANCH  15  16
HETATM   16  C   UNL     1      -9.501   9.768  64.457  1.00  0.00    -0.269 C  
BRANCH  16  17
HETATM   17  C   UNL     1      -8.430   8.685  64.394  1.00  0.00    -0.113 C  
BRANCH  17  18
HETATM   18  C   UNL     1      -8.065   8.160  65.770  1.00  0.00    -0.115 C  
BRANCH  18  19
HETATM   19  C   UNL     1      -7.382   6.807  65.620  1.00  0.00    -0.079 C  
BRANCH  19  20
HETATM   20  C   UNL     1      -7.709   6.195  64.270  1.00  0.00    -0.106 C  
BRANCH  20  21
HETATM   21  C   UNL     1      -6.575   5.293  63.805  1.00  0.00    -0.030 C  
BRANCH  21  22
HETATM   22  C   UNL     1      -7.084   3.872  63.617  1.00  0.00    -0.050 C  
BRANCH  22  23
HETATM   23  C   UNL     1      -6.549   2.956  64.711  1.00  0.00    -0.039 C  
BRANCH  23  24
HETATM   24  C   UNL     1      -7.693   2.394  65.543  1.00  0.00    -0.077 C  
BRANCH  24  25
HETATM   25  C   UNL     1      -8.970   2.292  64.724  1.00  0.00    -0.123 C  
HETATM   26  O   UNL     1     -10.097   2.426  65.578  1.00  0.00    -0.042 OA 
HETATM   27  H   UNL     1     -10.895   2.363  65.067  1.00  0.00     0.000 HD 
ENDBRANCH  24  25
ENDBRANCH  23  24
ENDBRANCH  22  23
ENDBRANCH  21  22
ENDBRANCH  20  21
ENDBRANCH  19  20
ENDBRANCH  18  19
ENDBRANCH  17  18
ENDBRANCH  16  17
ENDBRANCH  15  16
ENDBRANCH  14  15
ENDBRANCH   9  14
ENDBRANCH   2   3
TORSDOF 14
ENDMDL
MODEL      322
REMARK 921   NORMALIZED FREE ENERGY PREDICTED BY IDOCK:   -1.83 KCAL/MOL
REMARK 922        TOTAL FREE ENERGY PREDICTED BY IDOCK:   -5.15 KCAL/MOL
REMARK 923 INTER-LIGAND FREE ENERGY PREDICTED BY IDOCK:   -4.59 KCAL/MOL
REMARK 924 INTRA-LIGAND FREE ENERGY PREDICTED BY IDOCK:   -0.57 KCAL/MOL
REMARK 927      BINDING AFFINITY PREDICTED BY RF-SCORE:    0.00 PKD
ROOT
HETATM    1  C   UNL     1     -10.660   9.281  71.593  1.00  0.00    -0.290 C  
HETATM    2  O   UNL     1     -10.892   9.919  70.344  1.00  0.00    -0.275 OA 
ENDROOT
BRANCH   2   3
HETATM    3  C   UNL     1     -10.833   9.112  69.209  1.00  0.00    -0.132 C  
HETATM    4  C   UNL     1     -10.854   7.777  69.373  1.00  0.00    -0.113 C  
HETATM    5  C   UNL     1     -10.765   6.902  68.165  1.00  0.00    -0.205 C  
HETATM    6  O   UNL     1     -10.969  10.864  67.571  1.00  0.00    -0.254 OA 
HETATM    7  O   UNL     1     -11.144   5.736  68.150  1.00  0.00    -0.180 OA 
HETATM    8  C   UNL     1     -10.695   9.698  67.833  1.00  0.00    -0.247 C  
HETATM    9  C   UNL     1     -10.141   7.492  66.947  1.00  0.00    -0.336 C  
HETATM   10  C   UNL     1      -9.621   9.540  65.557  1.00  0.00    -0.349 C  
HETATM   11  C   UNL     1     -10.138   8.823  66.772  1.00  0.00    -0.359 C  
BRANCH   4  12
HETATM   12  O   UNL     1     -10.969   7.266  70.666  1.00  0.00    -0.244 OA 
HETATM   13  C   UNL     1     -10.587   5.915  70.895  1.00  0.00    -0.256 C  
ENDBRANCH   4  12
BRANCH   9  14
HETATM   14  C   UNL     1      -9.530   6.508  65.999  1.00  0.00     0.008 C  
BRANCH  14  15
HETATM   15  C   UNL     1      -8.096   6.127  66.374  1.00  0.00    -0.111 C  
BRANCH  15  16
HETATM   16  C   UNL     1      -8.003   4.681  66.859  1.00  0.00    -0.102 C  
BRANCH  16  17
HETATM   17  C   UNL     1      -7.179   4.573  68.137  1.00  0.00    -0.065 C  
BRANCH  17  18
HETATM   18  C   UNL     1      -6.487   5.878  68.483  1.00  0.00    -0.046 C  
BRANCH  18  19
HETATM   19  C   UNL     1      -6.931   6.322  69.871  1.00  0.00    -0.066 C  
BRANCH  19  20
HETATM   20  C   UNL     1      -7.225   7.811  69.883  1.00  0.00    -0.067 C  
BRANCH  20  21
HETATM   21  C   UNL     1      -6.282   8.549  68.945  1.00  0.00    -0.044 C  
BRANCH  21  22
HETATM   22  C   UNL     1      -7.022   9.681  68.249  1.00  0.00    -0.073 C  
BRANCH  22  23
HETATM   23  C   UNL     1      -7.488  10.724  69.256  1.00  0.00    -0.135 C  
BRANCH  23  24
HETATM   24  C   UNL     1      -7.335  12.127  68.683  1.00  0.00    -0.109 C  
BRANCH  24  25
HETATM   25  C   UNL     1      -5.935  12.345  68.133  1.00  0.00    -0.062 C  
HETATM   26  O   UNL     1      -6.007  12.625  66.742  1.00  0.00    -0.476 OA 
HETATM   27  H   UNL     1      -5.132  12.763  66.398  1.00  0.00     0.000 HD 
ENDBRANCH  24  25
ENDBRANCH  23  24
ENDBRANCH  22  23
ENDBRANCH  21  22
ENDBRANCH  20  21
ENDBRANCH  19  20
ENDBRANCH  18  19
ENDBRANCH  17  18
ENDBRANCH  16  17
ENDBRANCH  15  16
ENDBRANCH  14  15
ENDBRANCH   9  14
ENDBRANCH   2   3
TORSDOF 14
ENDMDL
MODEL      323
REMARK 921   NORMALIZED FREE ENERGY PREDICTED BY IDOCK:   -1.74 KCAL/MOL
REMARK 922        TOTAL FREE ENERGY PREDICTED BY IDOCK:   -4.99 KCAL/MOL
REMARK 923 INTER-LIGAND FREE ENERGY PREDICTED BY IDOCK:   -4.53 KCAL/MOL
REMARK 924 INTRA-LIGAND FREE ENERGY PREDICTED BY IDOCK:   -0.46 KCAL/MOL
REMARK 927      BINDING AFFINITY PREDICTED BY RF-SCORE:    0.00 PKD
ROOT
HETATM    1  C   UNL     1     -11.415  15.030  68.285  1.00  0.00    -0.332 C  
HETATM    2  O   UNL     1     -10.653  14.771  67.113  1.00  0.00    -0.276 OA 
ENDROOT
BRANCH   2   3
HETATM    3  C   UNL     1      -9.822  13.652  67.142  1.00  0.00    -0.242 C  
HETATM    4  C   UNL     1     -10.233  12.536  66.514  1.00  0.00    -0.240 C  
HETATM    5  C   UNL     1      -9.362  11.323  66.559  1.00  0.00    -0.185 C  
HETATM    6  O   UNL     1      -7.942  14.685  68.223  1.00  0.00    -0.120 OA 
HETATM    7  O   UNL     1      -9.438  10.410  65.745  1.00  0.00    -0.176 OA 
HETATM    8  C   UNL     1      -8.521  13.656  67.893  1.00  0.00    -0.177 C  
HETATM    9  C   UNL     1      -8.393  11.228  67.688  1.00  0.00    -0.123 C  
HETATM   10  C   UNL     1      -6.931  12.395  69.390  1.00  0.00     0.084 C  
HETATM   11  C   UNL     1      -7.965  12.343  68.301  1.00  0.00    -0.160 C  
BRANCH   4  12
HETATM   12  O   UNL     1     -11.452  12.562  65.838  1.00  0.00    -0.334 OA 
HETATM   13  C   UNL     1     -11.530  11.943  64.559  1.00  0.00    -0.294 C  
ENDBRANCH   4  12
BRANCH   9  14
HETATM   14  C   UNL     1      -7.982   9.838  68.065  1.00  0.00    -0.097 C  
BRANCH  14  15
HETATM   15  C   UNL     1      -9.015   9.125  68.938  1.00  0.00    -0.139 C  
BRANCH  15  16
HETATM   16  C   UNL     1      -8.414   8.665  70.266  1.00  0.00    -0.133 C  
BRANCH  16  17
HETATM   17  C   UNL     1      -8.106   7.173  70.252  1.00  0.00    -0.118 C  
BRANCH  17  18
HETATM   18  C   UNL     1      -7.290   6.745  71.457  1.00  0.00    -0.085 C  
BRANCH  18  19
HETATM   19  C   UNL     1      -8.232   6.231  72.537  1.00  0.00    -0.106 C  
BRANCH  19  20
HETATM   20  C   UNL     1      -8.467   7.299  73.590  1.00  0.00    -0.182 C  
BRANCH  20  21
HETATM   21  C   UNL     1      -9.957   7.498  73.825  1.00  0.00    -0.275 C  
BRANCH  21  22
HETATM   22  C   UNL     1     -10.682   6.164  73.721  1.00  0.00    -0.188 C  
BRANCH  22  23
HETATM   23  C   UNL     1     -11.316   5.997  72.346  1.00  0.00    -0.349 C  
BRANCH  23  24
HETATM   24  C   UNL     1     -12.831   6.103  72.439  1.00  0.00     0.278 C  
BRANCH  24  25
HETATM   25  C   UNL     1     -13.323   7.435  71.897  1.00  0.00    -0.231 C  
HETATM   26  O   UNL     1     -13.518   7.337  70.494  1.00  0.00    -0.326 OA 
HETATM   27  H   UNL     1     -13.825   8.170  70.155  1.00  0.00     0.000 HD 
ENDBRANCH  24  25
ENDBRANCH  23  24
ENDBRANCH  22  23
ENDBRANCH  21  22
ENDBRANCH  20  21
ENDBRANCH  19  20
ENDBRANCH  18  19
ENDBRANCH  17  18
ENDBRANCH  16  17
ENDBRANCH  15  16
ENDBRANCH  14  15
ENDBRANCH   9  14
ENDBRANCH   2   3
TORSDOF 14
ENDMDL
MODEL      324
REMARK 921   NORMALIZED FREE ENERGY PREDICTED BY IDOCK:   -1.73 KCAL/MOL
REMARK 922        TOTAL FREE ENERGY PREDICTED BY IDOCK:   -4.96 KCAL/MOL
REMARK 923 INTER-LIGAND FREE ENERGY PREDICTED BY IDOCK:   -5.13 KCAL/MOL
REMARK 924 INTRA-LIGAND FREE ENERGY PREDICTED BY IDOCK:    0.17 KCAL/MOL
REMARK 927      BINDING AFFINITY PREDICTED BY RF-SCORE:    0.00 PKD
ROOT
HETATM    1  C   UNL     1      -6.361  18.707  65.087  1.00  0.00    -0.212 C  
HETATM    2  O   UNL     1      -5.987  18.849  66.451  1.00  0.00    -0.159 OA 
ENDROOT
BRANCH   2   3
HETATM    3  C   UNL     1      -6.963  18.556  67.401  1.00  0.00    -0.204 C  
HETATM    4  C   UNL     1      -6.966  17.330  67.956  1.00  0.00    -0.176 C  
HETATM    5  C   UNL     1      -8.023  16.997  68.958  1.00  0.00    -0.153 C  
HETATM    6  O   UNL     1      -7.922  20.753  67.556  1.00  0.00    -0.287 OA 
HETATM    7  O   UNL     1      -7.910  16.093  69.779  1.00  0.00     0.026 OA 
HETATM    8  C   UNL     1      -8.025  19.551  67.773  1.00  0.00    -0.294 C  
HETATM    9  C   UNL     1      -9.283  17.791  68.901  1.00  0.00    -0.142 C  
HETATM   10  C   UNL     1     -10.452  19.958  68.325  1.00  0.00    -0.436 C  
HETATM   11  C   UNL     1      -9.277  19.022  68.368  1.00  0.00    -0.398 C  
BRANCH   4  12
HETATM   12  O   UNL     1      -5.974  16.426  67.579  1.00  0.00    -0.131 OA 
HETATM   13  C   UNL     1      -6.361  15.102  67.233  1.00  0.00     0.187 C  
ENDBRANCH   4  12
BRANCH   9  14
HETATM   14  C   UNL     1     -10.497  17.106  69.450  1.00  0.00    -0.203 C  
BRANCH  14  15
HETATM   15  C   UNL     1     -10.328  15.590  69.566  1.00  0.00    -0.271 C  
BRANCH  15  16
HETATM   16  C   UNL     1     -11.321  14.840  68.679  1.00  0.00    -0.305 C  
BRANCH  16  17
HETATM   17  C   UNL     1     -11.301  13.343  68.962  1.00  0.00    -0.335 C  
BRANCH  17  18
HETATM   18  C   UNL     1     -10.912  12.534  67.740  1.00  0.00    -0.270 C  
BRANCH  18  19
HETATM   19  C   UNL     1      -9.791  11.574  68.117  1.00  0.00    -0.197 C  
BRANCH  19  20
HETATM   20  C   UNL     1      -8.479  12.020  67.497  1.00  0.00    -0.165 C  
BRANCH  20  21
HETATM   21  C   UNL     1      -7.877  10.901  66.660  1.00  0.00    -0.145 C  
BRANCH  21  22
HETATM   22  C   UNL     1      -8.952  10.264  65.793  1.00  0.00    -0.185 C  
BRANCH  22  23
HETATM   23  C   UNL     1      -8.937   8.748  65.937  1.00  0.00    -0.240 C  
BRANCH  23  24
HETATM   24  C   UNL     1      -7.890   8.134  65.017  1.00  0.00    -0.128 C  
BRANCH  24  25
HETATM   25  C   UNL     1      -8.261   6.710  64.637  1.00  0.00    -0.034 C  
HETATM   26  O   UNL     1      -8.166   6.552  63.229  1.00  0.00    -0.275 OA 
HETATM   27  H   UNL     1      -8.398   5.661  62.991  1.00  0.00     0.000 HD 
ENDBRANCH  24  25
ENDBRANCH  23  24
ENDBRANCH  22  23
ENDBRANCH  21  22
ENDBRANCH  20  21
ENDBRANCH  19  20
ENDBRANCH  18  19
ENDBRANCH  17  18
ENDBRANCH  16  17
ENDBRANCH  15  16
ENDBRANCH  14  15
ENDBRANCH   9  14
ENDBRANCH   2   3
TORSDOF 14
ENDMDL
MODEL      325
REMARK 921   NORMALIZED FREE ENERGY PREDICTED BY IDOCK:   -1.61 KCAL/MOL
REMARK 922        TOTAL FREE ENERGY PREDICTED BY IDOCK:   -4.75 KCAL/MOL
REMARK 923 INTER-LIGAND FREE ENERGY PREDICTED BY IDOCK:   -2.71 KCAL/MOL
REMARK 924 INTRA-LIGAND FREE ENERGY PREDICTED BY IDOCK:   -2.04 KCAL/MOL
REMARK 927      BINDING AFFINITY PREDICTED BY RF-SCORE:    0.00 PKD
ROOT
HETATM    1  C   UNL     1      -8.875  10.039  65.866  1.00  0.00    -0.144 C  
HETATM    2  O   UNL     1      -8.587   9.259  67.019  1.00  0.00    -0.122 OA 
ENDROOT
BRANCH   2   3
HETATM    3  C   UNL     1      -8.534   7.878  66.843  1.00  0.00    -0.128 C  
HETATM    4  C   UNL     1      -7.327   7.292  66.746  1.00  0.00    -0.088 C  
HETATM    5  C   UNL     1      -7.259   5.815  66.532  1.00  0.00    -0.074 C  
HETATM    6  O   UNL     1     -10.884   7.440  67.080  1.00  0.00    -0.354 OA 
HETATM    7  O   UNL     1      -6.269   5.142  66.800  1.00  0.00    -0.030 OA 
HETATM    8  C   UNL     1      -9.782   7.052  66.709  1.00  0.00    -0.184 C  
HETATM    9  C   UNL     1      -8.452   5.164  65.920  1.00  0.00    -0.121 C  
HETATM   10  C   UNL     1     -10.952   5.148  65.541  1.00  0.00     0.285 C  
HETATM   11  C   UNL     1      -9.661   5.736  66.035  1.00  0.00    -0.079 C  
BRANCH   4  12
HETATM   12  O   UNL     1      -6.189   8.090  66.861  1.00  0.00    -0.051 OA 
HETATM   13  C   UNL     1      -5.592   8.236  68.143  1.00  0.00    -0.034 C  
ENDBRANCH   4  12
BRANCH   9  14
HETATM   14  C   UNL     1      -8.180   3.888  65.185  1.00  0.00    -0.101 C  
BRANCH  14  15
HETATM   15  C   UNL     1      -7.703   2.760  66.102  1.00  0.00    -0.077 C  
BRANCH  15  16
HETATM   16  C   UNL     1      -8.705   2.479  67.221  1.00  0.00    -0.137 C  
BRANCH  16  17
HETATM   17  C   UNL     1      -8.062   1.702  68.364  1.00  0.00    -0.066 C  
BRANCH  17  18
HETATM   18  C   UNL     1      -6.846   2.413  68.927  1.00  0.00    -0.036 C  
BRANCH  18  19
HETATM   19  C   UNL     1      -7.305   3.640  69.704  1.00  0.00    -0.045 C  
BRANCH  19  20
HETATM   20  C   UNL     1      -8.039   3.225  70.966  1.00  0.00    -0.068 C  
BRANCH  20  21
HETATM   21  C   UNL     1      -9.306   4.049  71.142  1.00  0.00    -0.216 C  
BRANCH  21  22
HETATM   22  C   UNL     1      -9.442   5.042  69.997  1.00  0.00    -0.231 C  
BRANCH  22  23
HETATM   23  C   UNL     1     -10.179   6.296  70.452  1.00  0.00    -0.248 C  
BRANCH  23  24
HETATM   24  C   UNL     1      -9.337   7.078  71.450  1.00  0.00    -0.155 C  
BRANCH  24  25
HETATM   25  C   UNL     1      -8.065   7.602  70.802  1.00  0.00    -0.103 C  
HETATM   26  O   UNL     1      -7.487   8.603  71.627  1.00  0.00    -0.100 OA 
HETATM   27  H   UNL     1      -6.692   8.931  71.223  1.00  0.00     0.000 HD 
ENDBRANCH  24  25
ENDBRANCH  23  24
ENDBRANCH  22  23
ENDBRANCH  21  22
ENDBRANCH  20  21
ENDBRANCH  19  20
ENDBRANCH  18  19
ENDBRANCH  17  18
ENDBRANCH  16  17
ENDBRANCH  15  16
ENDBRANCH  14  15
ENDBRANCH   9  14
ENDBRANCH   2   3
TORSDOF 14
ENDMDL
MODEL      326
REMARK 921   NORMALIZED FREE ENERGY PREDICTED BY IDOCK:   -1.13 KCAL/MOL
REMARK 922        TOTAL FREE ENERGY PREDICTED BY IDOCK:   -3.87 KCAL/MOL
REMARK 923 INTER-LIGAND FREE ENERGY PREDICTED BY IDOCK:   -4.30 KCAL/MOL
REMARK 924 INTRA-LIGAND FREE ENERGY PREDICTED BY IDOCK:    0.43 KCAL/MOL
REMARK 927      BINDING AFFINITY PREDICTED BY RF-SCORE:    0.00 PKD
ROOT
HETATM    1  C   UNL     1     -10.734  13.003  67.212  1.00  0.00    -0.250 C  
HETATM    2  O   UNL     1      -9.483  12.406  66.897  1.00  0.00    -0.207 OA 
ENDROOT
BRANCH   2   3
HETATM    3  C   UNL     1      -9.448  11.013  66.855  1.00  0.00    -0.177 C  
HETATM    4  C   UNL     1      -9.320  10.413  65.658  1.00  0.00    -0.198 C  
HETATM    5  C   UNL     1      -9.307   8.920  65.598  1.00  0.00    -0.191 C  
HETATM    6  O   UNL     1      -9.419  10.628  69.226  1.00  0.00    -0.197 OA 
HETATM    7  O   UNL     1      -8.832   8.289  64.660  1.00  0.00     0.028 OA 
HETATM    8  C   UNL     1      -9.601  10.183  68.098  1.00  0.00    -0.139 C  
HETATM    9  C   UNL     1      -9.949   8.193  66.729  1.00  0.00    -0.349 C  
HETATM   10  C   UNL     1     -10.603   8.133  69.171  1.00  0.00    -0.179 C  
HETATM   11  C   UNL     1     -10.057   8.781  67.931  1.00  0.00    -0.257 C  
BRANCH   4  12
HETATM   12  O   UNL     1      -9.195  11.213  64.522  1.00  0.00    -0.186 OA 
HETATM   13  C   UNL     1      -9.031  10.576  63.261  1.00  0.00    -0.229 C  
ENDBRANCH   4  12
BRANCH   9  14
HETATM   14  C   UNL     1     -10.453   6.820  66.405  1.00  0.00     0.061 C  
BRANCH  14  15
HETATM   15  C   UNL     1      -9.352   5.880  65.910  1.00  0.00    -0.071 C  
BRANCH  15  16
HETATM   16  C   UNL     1      -8.273   5.663  66.971  1.00  0.00    -0.101 C  
BRANCH  16  17
HETATM   17  C   UNL     1      -8.199   4.203  67.400  1.00  0.00    -0.099 C  
BRANCH  17  18
HETATM   18  C   UNL     1      -9.498   3.720  68.016  1.00  0.00    -0.221 C  
BRANCH  18  19
HETATM   19  C   UNL     1      -9.649   4.335  69.401  1.00  0.00    -0.267 C  
BRANCH  19  20
HETATM   20  C   UNL     1      -8.548   5.349  69.654  1.00  0.00    -0.103 C  
BRANCH  20  21
HETATM   21  C   UNL     1      -7.819   5.031  70.951  1.00  0.00    -0.087 C  
BRANCH  21  22
HETATM   22  C   UNL     1      -6.916   6.192  71.338  1.00  0.00    -0.076 C  
BRANCH  22  23
HETATM   23  C   UNL     1      -7.438   6.892  72.586  1.00  0.00    -0.089 C  
BRANCH  23  24
HETATM   24  C   UNL     1      -8.956   6.802  72.655  1.00  0.00    -0.139 C  
BRANCH  24  25
HETATM   25  C   UNL     1      -9.528   7.871  73.572  1.00  0.00    -0.246 C  
HETATM   26  O   UNL     1      -8.472   8.658  74.103  1.00  0.00    -0.333 OA 
HETATM   27  H   UNL     1      -8.830   9.327  74.676  1.00  0.00     0.000 HD 
ENDBRANCH  24  25
ENDBRANCH  23  24
ENDBRANCH  22  23
ENDBRANCH  21  22
ENDBRANCH  20  21
ENDBRANCH  19  20
ENDBRANCH  18  19
ENDBRANCH  17  18
ENDBRANCH  16  17
ENDBRANCH  15  16
ENDBRANCH  14  15
ENDBRANCH   9  14
ENDBRANCH   2   3
TORSDOF 14
ENDMDL
MODEL      327
REMARK 921   NORMALIZED FREE ENERGY PREDICTED BY IDOCK:   -1.09 KCAL/MOL
REMARK 922        TOTAL FREE ENERGY PREDICTED BY IDOCK:   -3.80 KCAL/MOL
REMARK 923 INTER-LIGAND FREE ENERGY PREDICTED BY IDOCK:   -3.42 KCAL/MOL
REMARK 924 INTRA-LIGAND FREE ENERGY PREDICTED BY IDOCK:   -0.38 KCAL/MOL
REMARK 927      BINDING AFFINITY PREDICTED BY RF-SCORE:    0.00 PKD
ROOT
HETATM    1  C   UNL     1     -10.125  11.352  68.362  1.00  0.00    -0.201 C  
HETATM    2  O   UNL     1      -8.870  10.860  67.910  1.00  0.00    -0.130 OA 
ENDROOT
BRANCH   2   3
HETATM    3  C   UNL     1      -8.819   9.516  67.547  1.00  0.00    -0.125 C  
HETATM    4  C   UNL     1      -8.740   9.209  66.239  1.00  0.00    -0.140 C  
HETATM    5  C   UNL     1      -8.710   7.771  65.838  1.00  0.00    -0.149 C  
HETATM    6  O   UNL     1      -8.671   8.598  69.762  1.00  0.00    -0.127 OA 
HETATM    7  O   UNL     1      -8.273   7.383  64.760  1.00  0.00    -0.126 OA 
HETATM    8  C   UNL     1      -8.901   8.420  68.571  1.00  0.00    -0.136 C  
HETATM    9  C   UNL     1      -9.288   6.788  66.798  1.00  0.00    -0.189 C  
HETATM   10  C   UNL     1      -9.824   6.155  69.187  1.00  0.00    -0.176 C  
HETATM   11  C   UNL     1      -9.346   7.083  68.106  1.00  0.00    -0.125 C  
BRANCH   4  12
HETATM   12  O   UNL     1      -8.680  10.251  65.314  1.00  0.00    -0.156 OA 
HETATM   13  C   UNL     1      -9.899  10.825  64.860  1.00  0.00    -0.292 C  
ENDBRANCH   4  12
BRANCH   9  14
HETATM   14  C   UNL     1      -9.789   5.515  66.189  1.00  0.00    -0.137 C  
BRANCH  14  15
HETATM   15  C   UNL     1      -8.672   4.661  65.586  1.00  0.00    -0.127 C  
BRANCH  15  16
HETATM   16  C   UNL     1      -7.729   4.121  66.661  1.00  0.00    -0.089 C  
BRANCH  16  17
HETATM   17  C   UNL     1      -7.771   2.599  66.726  1.00  0.00    -0.071 C  
BRANCH  17  18
HETATM   18  C   UNL     1      -9.128   2.082  67.164  1.00  0.00    -0.135 C  
BRANCH  18  19
HETATM   19  C   UNL     1      -9.339   2.425  68.633  1.00  0.00    -0.244 C  
BRANCH  19  20
HETATM   20  C   UNL     1      -8.086   3.051  69.217  1.00  0.00    -0.066 C  
BRANCH  20  21
HETATM   21  C   UNL     1      -7.655   2.309  70.473  1.00  0.00    -0.039 C  
BRANCH  21  22
HETATM   22  C   UNL     1      -6.710   3.176  71.292  1.00  0.00    -0.031 C  
BRANCH  22  23
HETATM   23  C   UNL     1      -7.396   3.682  72.555  1.00  0.00    -0.050 C  
BRANCH  23  24
HETATM   24  C   UNL     1      -8.887   3.874  72.314  1.00  0.00    -0.126 C  
BRANCH  24  25
HETATM   25  C   UNL     1      -9.528   4.664  73.443  1.00  0.00    -0.118 C  
HETATM   26  O   UNL     1      -8.542   5.005  74.406  1.00  0.00    -0.112 OA 
HETATM   27  H   UNL     1      -8.942   5.500  75.112  1.00  0.00     0.000 HD 
ENDBRANCH  24  25
ENDBRANCH  23  24
ENDBRANCH  22  23
ENDBRANCH  21  22
ENDBRANCH  20  21
ENDBRANCH  19  20
ENDBRANCH  18  19
ENDBRANCH  17  18
ENDBRANCH  16  17
ENDBRANCH  15  16
ENDBRANCH  14  15
ENDBRANCH   9  14
ENDBRANCH   2   3
TORSDOF 14
ENDMDL
MODEL      328
REMARK 921   NORMALIZED FREE ENERGY PREDICTED BY IDOCK:   -1.08 KCAL/MOL
REMARK 922        TOTAL FREE ENERGY PREDICTED BY IDOCK:   -3.79 KCAL/MOL
REMARK 923 INTER-LIGAND FREE ENERGY PREDICTED BY IDOCK:   -4.95 KCAL/MOL
REMARK 924 INTRA-LIGAND FREE ENERGY PREDICTED BY IDOCK:    1.16 KCAL/MOL
REMARK 927      BINDING AFFINITY PREDICTED BY RF-SCORE:    0.00 PKD
ROOT
HETATM    1  C   UNL     1      -7.655  14.652  70.194  1.00  0.00     0.452 C  
HETATM    2  O   UNL     1      -6.802  15.296  69.256  1.00  0.00    -0.130 OA 
ENDROOT
BRANCH   2   3
HETATM    3  C   UNL     1      -7.358  16.342  68.521  1.00  0.00    -0.169 C  
HETATM    4  C   UNL     1      -6.687  16.794  67.447  1.00  0.00    -0.160 C  
HETATM    5  C   UNL     1      -7.261  17.931  66.666  1.00  0.00    -0.219 C  
HETATM    6  O   UNL     1      -9.454  16.467  69.689  1.00  0.00    -0.051 OA 
HETATM    7  O   UNL     1      -6.956  18.169  65.502  1.00  0.00    -0.495 OA 
HETATM    8  C   UNL     1      -8.647  16.995  68.932  1.00  0.00    -0.196 C  
HETATM    9  C   UNL     1      -8.215  18.827  67.379  1.00  0.00    -0.278 C  
HETATM   10  C   UNL     1      -9.951  19.138  69.191  1.00  0.00    -0.337 C  
HETATM   11  C   UNL     1      -8.901  18.371  68.438  1.00  0.00    -0.340 C  
BRANCH   4  12
HETATM   12  O   UNL     1      -5.487  16.174  67.101  1.00  0.00    -0.306 OA 
HETATM   13  C   UNL     1      -5.271  14.833  67.525  1.00  0.00     0.211 C  
ENDBRANCH   4  12
BRANCH   9  14
HETATM   14  C   UNL     1      -8.310  20.221  66.839  1.00  0.00    -0.348 C  
BRANCH  14  15
HETATM   15  C   UNL     1      -9.265  20.337  65.648  1.00  0.00     0.184 C  
BRANCH  15  16
HETATM   16  C   UNL     1     -10.614  19.680  65.939  1.00  0.00    -0.566 C  
BRANCH  16  17
HETATM   17  C   UNL     1     -10.754  18.349  65.209  1.00  0.00     0.467 C  
BRANCH  17  18
HETATM   18  C   UNL     1     -10.976  17.192  66.166  1.00  0.00     0.193 C  
BRANCH  18  19
HETATM   19  C   UNL     1     -10.436  15.916  65.534  1.00  0.00    -0.425 C  
BRANCH  19  20
HETATM   20  C   UNL     1     -11.453  14.795  65.650  1.00  0.00    -0.327 C  
BRANCH  20  21
HETATM   21  C   UNL     1     -11.078  13.850  66.782  1.00  0.00    -0.310 C  
BRANCH  21  22
HETATM   22  C   UNL     1     -11.947  14.127  67.999  1.00  0.00    -0.372 C  
BRANCH  22  23
HETATM   23  C   UNL     1     -11.524  13.258  69.176  1.00  0.00    -0.357 C  
BRANCH  23  24
HETATM   24  C   UNL     1     -12.373  13.566  70.402  1.00  0.00    -0.397 C  
BRANCH  24  25
HETATM   25  C   UNL     1     -12.152  14.993  70.877  1.00  0.00    -0.324 C  
HETATM   26  O   UNL     1     -12.075  15.017  72.295  1.00  0.00    -0.345 OA 
HETATM   27  H   UNL     1     -11.936  15.909  72.593  1.00  0.00     0.000 HD 
ENDBRANCH  24  25
ENDBRANCH  23  24
ENDBRANCH  22  23
ENDBRANCH  21  22
ENDBRANCH  20  21
ENDBRANCH  19  20
ENDBRANCH  18  19
ENDBRANCH  17  18
ENDBRANCH  16  17
ENDBRANCH  15  16
ENDBRANCH  14  15
ENDBRANCH   9  14
ENDBRANCH   2   3
TORSDOF 14
ENDMDL
MODEL      329
REMARK 921   NORMALIZED FREE ENERGY PREDICTED BY IDOCK:   -0.86 KCAL/MOL
REMARK 922        TOTAL FREE ENERGY PREDICTED BY IDOCK:   -3.38 KCAL/MOL
REMARK 923 INTER-LIGAND FREE ENERGY PREDICTED BY IDOCK:   -4.59 KCAL/MOL
REMARK 924 INTRA-LIGAND FREE ENERGY PREDICTED BY IDOCK:    1.21 KCAL/MOL
REMARK 927      BINDING AFFINITY PREDICTED BY RF-SCORE:    0.00 PKD
ROOT
HETATM    1  C   UNL     1      -7.425  14.506  70.185  1.00  0.00     0.423 C  
HETATM    2  O   UNL     1      -6.626  15.165  69.211  1.00  0.00    -0.119 OA 
ENDROOT
BRANCH   2   3
HETATM    3  C   UNL     1      -7.249  16.165  68.465  1.00  0.00    -0.144 C  
HETATM    4  C   UNL     1      -6.625  16.622  67.364  1.00  0.00    -0.168 C  
HETATM    5  C   UNL     1      -7.271  17.710  66.571  1.00  0.00    -0.252 C  
HETATM    6  O   UNL     1      -9.321  16.219  69.679  1.00  0.00    -0.120 OA 
HETATM    7  O   UNL     1      -7.005  17.934  65.395  1.00  0.00    -0.434 OA 
HETATM    8  C   UNL     1      -8.558  16.766  68.891  1.00  0.00    -0.218 C  
HETATM    9  C   UNL     1      -8.251  18.577  67.285  1.00  0.00    -0.254 C  
HETATM   10  C   UNL     1      -9.958  18.849  69.130  1.00  0.00    -0.273 C  
HETATM   11  C   UNL     1      -8.890  18.115  68.370  1.00  0.00    -0.305 C  
BRANCH   4  12
HETATM   12  O   UNL     1      -5.404  16.051  67.005  1.00  0.00    -0.336 OA 
HETATM   13  C   UNL     1      -5.126  14.723  67.433  1.00  0.00     0.383 C  
ENDBRANCH   4  12
BRANCH   9  14
HETATM   14  C   UNL     1      -8.426  19.951  66.714  1.00  0.00    -0.377 C  
BRANCH  14  15
HETATM   15  C   UNL     1      -9.507  20.016  65.633  1.00  0.00     0.026 C  
BRANCH  15  16
HETATM   16  C   UNL     1     -10.739  19.196  66.015  1.00  0.00    -0.451 C  
BRANCH  16  17
HETATM   17  C   UNL     1     -10.839  17.922  65.184  1.00  0.00     0.537 C  
BRANCH  17  18
HETATM   18  C   UNL     1     -10.934  16.680  66.050  1.00  0.00     0.085 C  
BRANCH  18  19
HETATM   19  C   UNL     1     -10.330  15.502  65.295  1.00  0.00    -0.416 C  
BRANCH  19  20
HETATM   20  C   UNL     1     -11.313  14.348  65.238  1.00  0.00    -0.346 C  
BRANCH  20  21
HETATM   21  C   UNL     1     -11.609  13.830  66.637  1.00  0.00    -0.392 C  
BRANCH  21  22
HETATM   22  C   UNL     1     -10.418  13.042  67.162  1.00  0.00    -0.243 C  
BRANCH  22  23
HETATM   23  C   UNL     1     -10.501  11.583  66.734  1.00  0.00    -0.275 C  
BRANCH  23  24
HETATM   24  C   UNL     1     -11.370  10.790  67.701  1.00  0.00    -0.328 C  
BRANCH  24  25
HETATM   25  C   UNL     1     -10.656   9.535  68.176  1.00  0.00    -0.217 C  
HETATM   26  O   UNL     1     -10.760   8.523  67.185  1.00  0.00    -0.379 OA 
HETATM   27  H   UNL     1     -10.313   7.738  67.482  1.00  0.00     0.000 HD 
ENDBRANCH  24  25
ENDBRANCH  23  24
ENDBRANCH  22  23
ENDBRANCH  21  22
ENDBRANCH  20  21
ENDBRANCH  19  20
ENDBRANCH  18  19
ENDBRANCH  17  18
ENDBRANCH  16  17
ENDBRANCH  15  16
ENDBRANCH  14  15
ENDBRANCH   9  14
ENDBRANCH   2   3
TORSDOF 14
ENDMDL
MODEL      330
REMARK 921   NORMALIZED FREE ENERGY PREDICTED BY IDOCK:   -0.83 KCAL/MOL
REMARK 922        TOTAL FREE ENERGY PREDICTED BY IDOCK:   -3.33 KCAL/MOL
REMARK 923 INTER-LIGAND FREE ENERGY PREDICTED BY IDOCK:   -3.91 KCAL/MOL
REMARK 924 INTRA-LIGAND FREE ENERGY PREDICTED BY IDOCK:    0.58 KCAL/MOL
REMARK 927      BINDING AFFINITY PREDICTED BY RF-SCORE:    0.00 PKD
ROOT
HETATM    1  C   UNL     1      -8.042   4.334  67.121  1.00  0.00    -0.100 C  
HETATM    2  O   UNL     1      -7.046   5.062  67.828  1.00  0.00    -0.064 OA 
ENDROOT
BRANCH   2   3
HETATM    3  C   UNL     1      -7.146   6.452  67.794  1.00  0.00    -0.085 C  
HETATM    4  C   UNL     1      -6.250   7.138  67.062  1.00  0.00    -0.049 C  
HETATM    5  C   UNL     1      -6.332   8.630  67.038  1.00  0.00    -0.057 C  
HETATM    6  O   UNL     1      -9.201   6.650  69.022  1.00  0.00    -0.133 OA 
HETATM    7  O   UNL     1      -5.839   9.316  66.149  1.00  0.00    -0.055 OA 
HETATM    8  C   UNL     1      -8.188   7.187  68.588  1.00  0.00    -0.125 C  
HETATM    9  C   UNL     1      -7.013   9.288  68.188  1.00  0.00    -0.076 C  
HETATM   10  C   UNL     1      -8.742   9.179  70.031  1.00  0.00    -0.186 C  
HETATM   11  C   UNL     1      -7.924   8.612  68.905  1.00  0.00    -0.113 C  
BRANCH   4  12
HETATM   12  O   UNL     1      -5.287   6.425  66.347  1.00  0.00    -0.012 OA 
HETATM   13  C   UNL     1      -5.714   5.618  65.257  1.00  0.00    -0.017 C  
ENDBRANCH   4  12
BRANCH   9  14
HETATM   14  C   UNL     1      -6.588  10.698  68.463  1.00  0.00    -0.055 C  
BRANCH  14  15
HETATM   15  C   UNL     1      -6.966  11.666  67.340  1.00  0.00    -0.117 C  
BRANCH  15  16
HETATM   16  C   UNL     1      -8.230  12.456  67.676  1.00  0.00    -0.169 C  
BRANCH  16  17
HETATM   17  C   UNL     1      -8.174  13.867  67.103  1.00  0.00    -0.128 C  
BRANCH  17  18
HETATM   18  C   UNL     1      -9.339  14.721  67.568  1.00  0.00    -0.194 C  
BRANCH  18  19
HETATM   19  C   UNL     1     -10.048  14.010  68.713  1.00  0.00    -0.183 C  
BRANCH  19  20
HETATM   20  C   UNL     1     -11.309  13.328  68.216  1.00  0.00    -0.335 C  
BRANCH  20  21
HETATM   21  C   UNL     1     -11.427  11.930  68.805  1.00  0.00    -0.347 C  
BRANCH  21  22
HETATM   22  C   UNL     1     -11.856  12.015  70.262  1.00  0.00    -0.356 C  
BRANCH  22  23
HETATM   23  C   UNL     1     -12.562  13.335  70.544  1.00  0.00    -0.259 C  
BRANCH  23  24
HETATM   24  C   UNL     1     -11.816  14.123  71.611  1.00  0.00     0.099 C  
BRANCH  24  25
HETATM   25  C   UNL     1     -12.772  14.969  72.436  1.00  0.00    -0.342 C  
HETATM   26  O   UNL     1     -12.746  14.538  73.789  1.00  0.00    -0.450 OA 
HETATM   27  H   UNL     1     -13.343  15.067  74.305  1.00  0.00     0.000 HD 
ENDBRANCH  24  25
ENDBRANCH  23  24
ENDBRANCH  22  23
ENDBRANCH  21  22
ENDBRANCH  20  21
ENDBRANCH  19  20
ENDBRANCH  18  19
ENDBRANCH  17  18
ENDBRANCH  16  17
ENDBRANCH  15  16
ENDBRANCH  14  15
ENDBRANCH   9  14
ENDBRANCH   2   3
TORSDOF 14
ENDMDL
MODEL      331
REMARK 921   NORMALIZED FREE ENERGY PREDICTED BY IDOCK:   -0.32 KCAL/MOL
REMARK 922        TOTAL FREE ENERGY PREDICTED BY IDOCK:   -2.40 KCAL/MOL
REMARK 923 INTER-LIGAND FREE ENERGY PREDICTED BY IDOCK:   -3.12 KCAL/MOL
REMARK 924 INTRA-LIGAND FREE ENERGY PREDICTED BY IDOCK:    0.72 KCAL/MOL
REMARK 927      BINDING AFFINITY PREDICTED BY RF-SCORE:    0.00 PKD
ROOT
HETATM    1  C   UNL     1      -9.989  10.715  68.484  1.00  0.00    -0.167 C  
HETATM    2  O   UNL     1      -8.798  10.824  67.715  1.00  0.00    -0.129 OA 
ENDROOT
BRANCH   2   3
HETATM    3  C   UNL     1      -8.425   9.701  66.977  1.00  0.00    -0.124 C  
HETATM    4  C   UNL     1      -8.690   9.686  65.659  1.00  0.00    -0.141 C  
HETATM    5  C   UNL     1      -8.317   8.478  64.864  1.00  0.00    -0.160 C  
HETATM    6  O   UNL     1      -7.248   8.552  68.729  1.00  0.00    -0.075 OA 
HETATM    7  O   UNL     1      -8.162   8.496  63.647  1.00  0.00    -0.164 OA 
HETATM    8  C   UNL     1      -7.789   8.507  67.629  1.00  0.00    -0.103 C  
HETATM    9  C   UNL     1      -8.177   7.195  65.608  1.00  0.00    -0.138 C  
HETATM   10  C   UNL     1      -7.640   5.993  67.768  1.00  0.00    -0.096 C  
HETATM   11  C   UNL     1      -7.890   7.208  66.920  1.00  0.00    -0.107 C  
BRANCH   4  12
HETATM   12  O   UNL     1      -9.294  10.807  65.088  1.00  0.00    -0.195 OA 
HETATM   13  C   UNL     1     -10.500  10.626  64.357  1.00  0.00    -0.177 C  
ENDBRANCH   4  12
BRANCH   9  14
HETATM   14  C   UNL     1      -8.397   5.955  64.797  1.00  0.00    -0.103 C  
BRANCH  14  15
HETATM   15  C   UNL     1      -7.095   5.342  64.277  1.00  0.00    -0.049 C  
BRANCH  15  16
HETATM   16  C   UNL     1      -6.518   4.322  65.259  1.00  0.00    -0.039 C  
BRANCH  16  17
HETATM   17  C   UNL     1      -6.558   2.911  64.684  1.00  0.00    -0.035 C  
BRANCH  17  18
HETATM   18  C   UNL     1      -7.973   2.453  64.389  1.00  0.00    -0.077 C  
BRANCH  18  19
HETATM   19  C   UNL     1      -8.849   2.732  65.604  1.00  0.00    -0.133 C  
BRANCH  19  20
HETATM   20  C   UNL     1      -8.014   2.729  66.872  1.00  0.00    -0.076 C  
BRANCH  20  21
HETATM   21  C   UNL     1      -8.331   1.504  67.716  1.00  0.00    -0.078 C  
BRANCH  21  22
HETATM   22  C   UNL     1      -7.753   1.672  69.113  1.00  0.00    -0.044 C  
BRANCH  22  23
HETATM   23  C   UNL     1      -8.708   2.456  70.004  1.00  0.00    -0.121 C  
BRANCH  23  24
HETATM   24  C   UNL     1      -9.433   3.526  69.199  1.00  0.00    -0.224 C  
BRANCH  24  25
HETATM   25  C   UNL     1     -10.001   4.605  70.107  1.00  0.00    -0.233 C  
HETATM   26  O   UNL     1      -9.146   4.785  71.227  1.00  0.00    -0.131 OA 
HETATM   27  H   UNL     1      -9.500   5.459  71.795  1.00  0.00     0.000 HD 
ENDBRANCH  24  25
ENDBRANCH  23  24
ENDBRANCH  22  23
ENDBRANCH  21  22
ENDBRANCH  20  21
ENDBRANCH  19  20
ENDBRANCH  18  19
ENDBRANCH  17  18
ENDBRANCH  16  17
ENDBRANCH  15  16
ENDBRANCH  14  15
ENDBRANCH   9  14
ENDBRANCH   2   3
TORSDOF 14
ENDMDL
MODEL      332
REMARK 921   NORMALIZED FREE ENERGY PREDICTED BY IDOCK:    2.87 KCAL/MOL
REMARK 922        TOTAL FREE ENERGY PREDICTED BY IDOCK:    3.41 KCAL/MOL
REMARK 923 INTER-LIGAND FREE ENERGY PREDICTED BY IDOCK:    0.11 KCAL/MOL
REMARK 924 INTRA-LIGAND FREE ENERGY PREDICTED BY IDOCK:    3.30 KCAL/MOL
REMARK 927      BINDING AFFINITY PREDICTED BY RF-SCORE:    0.00 PKD
ROOT
HETATM    1  C   UNL     1     -10.684  17.004  63.897  1.00  0.00     3.963 C  
HETATM    2  O   UNL     1     -10.853  16.906  65.305  1.00  0.00    -0.522 OA 
ENDROOT
BRANCH   2   3
HETATM    3  C   UNL     1      -9.885  16.184  66.002  1.00  0.00    -0.347 C  
HETATM    4  C   UNL     1      -9.990  14.844  66.039  1.00  0.00    -0.313 C  
HETATM    5  C   UNL     1      -8.972  14.063  66.804  1.00  0.00    -0.197 C  
HETATM    6  O   UNL     1      -8.432  18.027  66.519  1.00  0.00    -0.255 OA 
HETATM    7  O   UNL     1      -8.748  12.874  66.603  1.00  0.00    -0.156 OA 
HETATM    8  C   UNL     1      -8.773  16.871  66.743  1.00  0.00    -0.232 C  
HETATM    9  C   UNL     1      -8.242  14.781  67.886  1.00  0.00    -0.154 C  
HETATM   10  C   UNL     1      -7.337  16.952  68.815  1.00  0.00    -0.227 C  
HETATM   11  C   UNL     1      -8.117  16.116  67.839  1.00  0.00    -0.152 C  
BRANCH   4  12
HETATM   12  O   UNL     1     -11.042  14.240  65.351  1.00  0.00    -0.305 OA 
HETATM   13  C   UNL     1     -12.365  14.698  65.599  1.00  0.00    -0.145 C  
ENDBRANCH   4  12
BRANCH   9  14
HETATM   14  C   UNL     1      -7.708  13.914  68.984  1.00  0.00     0.026 C  
BRANCH  14  15
HETATM   15  C   UNL     1      -8.221  12.474  68.912  1.00  0.00     0.232 C  
BRANCH  15  16
HETATM   16  C   UNL     1      -9.746  12.412  69.000  1.00  0.00     0.292 C  
BRANCH  16  17
HETATM   17  C   UNL     1     -10.297  11.189  68.275  1.00  0.00    -0.198 C  
BRANCH  17  18
HETATM   18  C   UNL     1     -10.493  10.010  69.209  1.00  0.00    -0.245 C  
BRANCH  18  19
HETATM   19  C   UNL     1      -9.205   9.199  69.261  1.00  0.00    -0.146 C  
BRANCH  19  20
HETATM   20  C   UNL     1      -8.318   9.534  68.075  1.00  0.00    -0.118 C  
BRANCH  20  21
HETATM   21  C   UNL     1      -7.901   8.265  67.346  1.00  0.00    -0.106 C  
BRANCH  21  22
HETATM   22  C   UNL     1      -8.457   8.273  65.930  1.00  0.00    -0.151 C  
BRANCH  22  23
HETATM   23  C   UNL     1      -8.284   9.643  65.287  1.00  0.00    -0.131 C  
BRANCH  23  24
HETATM   24  C   UNL     1      -7.176   9.608  64.244  1.00  0.00    -0.122 C  
BRANCH  24  25
HETATM   25  C   UNL     1      -5.806   9.699  64.896  1.00  0.00    -0.075 C  
HETATM   26  O   UNL     1      -5.816  10.715  65.888  1.00  0.00    -0.105 OA 
HETATM   27  H   UNL     1      -4.960  10.772  66.296  1.00  0.00     0.000 HD 
ENDBRANCH  24  25
ENDBRANCH  23  24
ENDBRANCH  22  23
ENDBRANCH  21  22
ENDBRANCH  20  21
ENDBRANCH  19  20
ENDBRANCH  18  19
ENDBRANCH  17  18
ENDBRANCH  16  17
ENDBRANCH  15  16
ENDBRANCH  14  15
ENDBRANCH   9  14
ENDBRANCH   2   3
TORSDOF 14
ENDMDL
MODEL      333
REMARK 921   NORMALIZED FREE ENERGY PREDICTED BY IDOCK:    3.16 KCAL/MOL
REMARK 922        TOTAL FREE ENERGY PREDICTED BY IDOCK:    3.92 KCAL/MOL
REMARK 923 INTER-LIGAND FREE ENERGY PREDICTED BY IDOCK:    1.03 KCAL/MOL
REMARK 924 INTRA-LIGAND FREE ENERGY PREDICTED BY IDOCK:    2.89 KCAL/MOL
REMARK 927      BINDING AFFINITY PREDICTED BY RF-SCORE:    0.00 PKD
ROOT
HETATM    1  C   UNL     1      -9.495  11.971  65.290  1.00  0.00    -0.026 C  
HETATM    2  O   UNL     1      -9.259  10.662  64.787  1.00  0.00    -0.196 OA 
ENDROOT
BRANCH   2   3
HETATM    3  C   UNL     1      -8.607   9.773  65.639  1.00  0.00    -0.141 C  
HETATM    4  C   UNL     1      -7.388  10.107  66.099  1.00  0.00    -0.115 C  
HETATM    5  C   UNL     1      -6.669   9.150  66.994  1.00  0.00    -0.072 C  
HETATM    6  O   UNL     1     -10.405   8.199  65.887  1.00  0.00     0.462 OA 
HETATM    7  O   UNL     1      -5.766   9.487  67.751  1.00  0.00    -0.041 OA 
HETATM    8  C   UNL     1      -9.210   8.446  66.005  1.00  0.00    -0.187 C  
HETATM    9  C   UNL     1      -7.063   7.715  66.905  1.00  0.00    -0.084 C  
HETATM   10  C   UNL     1      -8.839   5.985  66.408  1.00  0.00    -0.137 C  
HETATM   11  C   UNL     1      -8.287   7.381  66.467  1.00  0.00    -0.124 C  
BRANCH   4  12
HETATM   12  O   UNL     1      -6.851  11.339  65.730  1.00  0.00     0.097 OA 
HETATM   13  C   UNL     1      -5.969  11.386  64.615  1.00  0.00     1.605 C  
ENDBRANCH   4  12
BRANCH   9  14
HETATM   14  C   UNL     1      -6.007   6.734  67.310  1.00  0.00    -0.017 C  
BRANCH  14  15
HETATM   15  C   UNL     1      -6.475   5.768  68.401  1.00  0.00    -0.046 C  
BRANCH  15  16
HETATM   16  C   UNL     1      -7.949   5.975  68.745  1.00  0.00    -0.104 C  
BRANCH  16  17
HETATM   17  C   UNL     1      -8.168   6.028  70.253  1.00  0.00    -0.119 C  
BRANCH  17  18
HETATM   18  C   UNL     1      -9.428   5.295  70.674  1.00  0.00    -0.222 C  
BRANCH  18  19
HETATM   19  C   UNL     1      -9.133   4.484  71.929  1.00  0.00    -0.164 C  
BRANCH  19  20
HETATM   20  C   UNL     1      -8.969   5.401  73.128  1.00  0.00    -0.118 C  
BRANCH  20  21
HETATM   21  C   UNL     1      -8.750   6.836  72.675  1.00  0.00    -0.130 C  
BRANCH  21  22
HETATM   22  C   UNL     1      -9.011   7.791  73.830  1.00  0.00    -0.317 C  
BRANCH  22  23
HETATM   23  C   UNL     1     -10.500   8.077  73.972  1.00  0.00     1.685 C  
BRANCH  23  24
HETATM   24  C   UNL     1     -11.186   8.029  72.613  1.00  0.00    -0.462 C  
BRANCH  24  25
HETATM   25  C   UNL     1     -12.632   7.579  72.744  1.00  0.00     0.458 C  
HETATM   26  O   UNL     1     -12.821   6.366  72.030  1.00  0.00    -0.455 OA 
HETATM   27  H   UNL     1     -13.725   6.085  72.112  1.00  0.00     0.000 HD 
ENDBRANCH  24  25
ENDBRANCH  23  24
ENDBRANCH  22  23
ENDBRANCH  21  22
ENDBRANCH  20  21
ENDBRANCH  19  20
ENDBRANCH  18  19
ENDBRANCH  17  18
ENDBRANCH  16  17
ENDBRANCH  15  16
ENDBRANCH  14  15
ENDBRANCH   9  14
ENDBRANCH   2   3
TORSDOF 14
ENDMDL
MODEL      334
REMARK 921   NORMALIZED FREE ENERGY PREDICTED BY IDOCK:    6.05 KCAL/MOL
REMARK 922        TOTAL FREE ENERGY PREDICTED BY IDOCK:    9.18 KCAL/MOL
REMARK 923 INTER-LIGAND FREE ENERGY PREDICTED BY IDOCK:    4.99 KCAL/MOL
REMARK 924 INTRA-LIGAND FREE ENERGY PREDICTED BY IDOCK:    4.19 KCAL/MOL
REMARK 927      BINDING AFFINITY PREDICTED BY RF-SCORE:    0.00 PKD
ROOT
HETATM    1  C   UNL     1     -10.675  17.049  63.904  1.00  0.00     3.963 C  
HETATM    2  O   UNL     1     -11.122  17.031  65.253  1.00  0.00    -0.300 OA 
ENDROOT
BRANCH   2   3
HETATM    3  C   UNL     1     -10.383  16.259  66.147  1.00  0.00    -0.341 C  
HETATM    4  C   UNL     1     -10.582  14.929  66.158  1.00  0.00    -0.318 C  
HETATM    5  C   UNL     1      -9.812  14.094  67.130  1.00  0.00    -0.253 C  
HETATM    6  O   UNL     1      -8.963  18.011  66.976  1.00  0.00    -0.247 OA 
HETATM    7  O   UNL     1      -9.628  12.891  66.983  1.00  0.00    -0.218 OA 
HETATM    8  C   UNL     1      -9.421  16.883  67.118  1.00  0.00    -0.237 C  
HETATM    9  C   UNL     1      -9.295  14.779  68.348  1.00  0.00    -0.197 C  
HETATM   10  C   UNL     1      -8.479  16.900  69.457  1.00  0.00     0.475 C  
HETATM   11  C   UNL     1      -9.075  16.103  68.332  1.00  0.00    -0.199 C  
BRANCH   4  12
HETATM   12  O   UNL     1     -11.492  14.384  65.253  1.00  0.00    -0.328 OA 
HETATM   13  C   UNL     1     -12.791  14.957  65.172  1.00  0.00     0.296 C  
ENDBRANCH   4  12
BRANCH   9  14
HETATM   14  C   UNL     1      -9.076  13.894  69.537  1.00  0.00     0.901 C  
BRANCH  14  15
HETATM   15  C   UNL     1      -9.537  12.454  69.303  1.00  0.00     0.739 C  
BRANCH  15  16
HETATM   16  C   UNL     1     -11.025  12.385  68.961  1.00  0.00    -0.247 C  
BRANCH  16  17
HETATM   17  C   UNL     1     -11.613  11.020  69.299  1.00  0.00    -0.384 C  
BRANCH  17  18
HETATM   18  C   UNL     1     -12.090  10.943  70.737  1.00  0.00    -0.469 C  
BRANCH  18  19
HETATM   19  C   UNL     1     -10.910  10.594  71.634  1.00  0.00     2.548 C  
BRANCH  19  20
HETATM   20  C   UNL     1      -9.703  10.210  70.798  1.00  0.00     0.608 C  
BRANCH  20  21
HETATM   21  C   UNL     1      -9.194   8.833  71.196  1.00  0.00    -0.299 C  
BRANCH  21  22
HETATM   22  C   UNL     1      -9.331   7.870  70.027  1.00  0.00    -0.157 C  
BRANCH  22  23
HETATM   23  C   UNL     1      -8.937   8.545  68.720  1.00  0.00    -0.139 C  
BRANCH  23  24
HETATM   24  C   UNL     1      -7.582   8.039  68.244  1.00  0.00    -0.109 C  
BRANCH  24  25
HETATM   25  C   UNL     1      -6.449   8.714  68.999  1.00  0.00    -0.048 C  
HETATM   26  O   UNL     1      -6.701  10.108  69.092  1.00  0.00    -0.051 OA 
HETATM   27  H   UNL     1      -5.992  10.530  69.564  1.00  0.00     0.000 HD 
ENDBRANCH  24  25
ENDBRANCH  23  24
ENDBRANCH  22  23
ENDBRANCH  21  22
ENDBRANCH  20  21
ENDBRANCH  19  20
ENDBRANCH  18  19
ENDBRANCH  17  18
ENDBRANCH  16  17
ENDBRANCH  15  16
ENDBRANCH  14  15
ENDBRANCH   9  14
ENDBRANCH   2   3
TORSDOF 14
ENDMDL
MODEL      335
REMARK 921   NORMALIZED FREE ENERGY PREDICTED BY IDOCK:    9.74 KCAL/MOL
REMARK 922        TOTAL FREE ENERGY PREDICTED BY IDOCK:   15.90 KCAL/MOL
REMARK 923 INTER-LIGAND FREE ENERGY PREDICTED BY IDOCK:    8.19 KCAL/MOL
REMARK 924 INTRA-LIGAND FREE ENERGY PREDICTED BY IDOCK:    7.71 KCAL/MOL
REMARK 927      BINDING AFFINITY PREDICTED BY RF-SCORE:    0.00 PKD
ROOT
HETATM    1  C   UNL     1      -7.708  11.764  64.836  1.00  0.00     2.074 C  
HETATM    2  O   UNL     1      -8.129  10.859  65.849  1.00  0.00    -0.160 OA 
ENDROOT
BRANCH   2   3
HETATM    3  C   UNL     1      -7.584  11.044  67.118  1.00  0.00    -0.117 C  
HETATM    4  C   UNL     1      -8.220  10.501  68.171  1.00  0.00    -0.114 C  
HETATM    5  C   UNL     1      -7.659  10.714  69.540  1.00  0.00    -0.124 C  
HETATM    6  O   UNL     1      -5.557  12.137  66.434  1.00  0.00    -0.203 OA 
HETATM    7  O   UNL     1      -7.916   9.986  70.492  1.00  0.00    -0.224 OA 
HETATM    8  C   UNL     1      -6.348  11.871  67.332  1.00  0.00    -0.128 C  
HETATM    9  C   UNL     1      -6.783  11.904  69.733  1.00  0.00     0.046 C  
HETATM   10  C   UNL     1      -5.155  13.575  68.758  1.00  0.00    -0.073 C  
HETATM   11  C   UNL     1      -6.130  12.434  68.687  1.00  0.00    -0.065 C  
BRANCH   4  12
HETATM   12  O   UNL     1      -9.373   9.751  67.939  1.00  0.00    -0.128 OA 
HETATM   13  C   UNL     1     -10.126   9.303  69.059  1.00  0.00    -0.199 C  
ENDBRANCH   4  12
BRANCH   9  14
HETATM   14  C   UNL     1      -6.723  12.435  71.132  1.00  0.00     2.920 C  
BRANCH  14  15
HETATM   15  C   UNL     1      -6.751  11.331  72.192  1.00  0.00     4.826 C  
BRANCH  15  16
HETATM   16  C   UNL     1      -6.835   9.942  71.561  1.00  0.00     0.631 C  
BRANCH  16  17
HETATM   17  C   UNL     1      -5.720   9.033  72.062  1.00  0.00    -0.069 C  
BRANCH  17  18
HETATM   18  C   UNL     1      -6.189   7.603  72.255  1.00  0.00    -0.040 C  
BRANCH  18  19
HETATM   19  C   UNL     1      -5.242   6.895  73.215  1.00  0.00    -0.038 C  
BRANCH  19  20
HETATM   20  C   UNL     1      -5.987   5.843  74.016  1.00  0.00    -0.062 C  
BRANCH  20  21
HETATM   21  C   UNL     1      -6.929   5.056  73.118  1.00  0.00    -0.079 C  
BRANCH  21  22
HETATM   22  C   UNL     1      -6.306   4.877  71.742  1.00  0.00    -0.030 C  
BRANCH  22  23
HETATM   23  C   UNL     1      -7.273   4.178  70.795  1.00  0.00    -0.037 C  
BRANCH  23  24
HETATM   24  C   UNL     1      -8.714   4.493  71.174  1.00  0.00    -0.141 C  
BRANCH  24  25
HETATM   25  C   UNL     1      -9.405   5.297  70.085  1.00  0.00    -0.153 C  
HETATM   26  O   UNL     1      -8.529   6.308  69.610  1.00  0.00    -0.126 OA 
HETATM   27  H   UNL     1      -8.961   6.811  68.928  1.00  0.00     0.000 HD 
ENDBRANCH  24  25
ENDBRANCH  23  24
ENDBRANCH  22  23
ENDBRANCH  21  22
ENDBRANCH  20  21
ENDBRANCH  19  20
ENDBRANCH  18  19
ENDBRANCH  17  18
ENDBRANCH  16  17
ENDBRANCH  15  16
ENDBRANCH  14  15
ENDBRANCH   9  14
ENDBRANCH   2   3
TORSDOF 14
ENDMDL
