MODEL        1
REMARK 921   NORMALIZED FREE ENERGY PREDICTED BY IDOCK:   -9.14 KCAL/MOL
REMARK 922        TOTAL FREE ENERGY PREDICTED BY IDOCK:  -11.88 KCAL/MOL
REMARK 923 INTER-LIGAND FREE ENERGY PREDICTED BY IDOCK:  -11.81 KCAL/MOL
REMARK 924 INTRA-LIGAND FREE ENERGY PREDICTED BY IDOCK:   -0.07 KCAL/MOL
REMARK 927      BINDING AFFINITY PREDICTED BY RF-SCORE:    0.00 PKD
ROOT
HETATM    1  C   UNL     1     -10.358  14.045  68.453  1.00  0.00    -0.251 C  
ENDROOT
BRANCH   1   2
HETATM    2  C   UNL     1      -9.596  12.947  67.685  1.00  0.00    -0.196 C  
HETATM    3  C   UNL     1      -8.082  13.082  67.691  1.00  0.00    -0.172 C  
ENDBRANCH   1   2
BRANCH   1   4
HETATM    4  N   UNL     1     -11.762  13.641  68.590  1.00  0.00    -0.332 NA 
HETATM    5  H   UNL     1     -12.388  13.767  67.795  1.00  0.00     0.000 HD 
BRANCH   4   6
HETATM    6  C   UNL     1     -12.268  13.099  69.754  1.00  0.00    -0.202 A  
HETATM    7  C   UNL     1     -13.382  13.207  71.858  1.00  0.00    -0.455 A  
HETATM    8  N   UNL     1     -13.217  11.917  72.174  1.00  0.00    -0.423 NA 
HETATM    9  N   UNL     1     -13.335  15.202  70.767  1.00  0.00    -0.663 NA 
HETATM   10  C   UNL     1     -12.552  11.280  71.195  1.00  0.00    -0.397 A  
HETATM   11  C   UNL     1     -13.937  15.342  71.938  1.00  0.00    -0.542 A  
HETATM   12  H   UNL     1     -13.174  15.920  70.061  1.00  0.00     0.000 HD 
HETATM   13  N   UNL     1     -12.074  11.782  70.037  1.00  0.00    -0.323 NA 
HETATM   14  C   UNL     1     -12.971  13.866  70.711  1.00  0.00    -0.196 A  
HETATM   15  N   UNL     1     -13.993  14.161  72.624  1.00  0.00    -0.644 NA 
ENDBRANCH   4   6
ENDBRANCH   1   4
BRANCH   1  16
HETATM   16  C   UNL     1     -10.330  15.447  67.734  1.00  0.00    -0.253 C  
HETATM   17  O   UNL     1     -11.281  17.040  64.663  1.00  0.00    -0.968 OA 
HETATM   18  N   UNL     1      -9.967  16.472  68.456  1.00  0.00    -0.240 NA 
HETATM   19  C   UNL     1      -9.957  17.748  67.884  1.00  0.00    -0.322 A  
HETATM   20  N   UNL     1     -10.743  15.583  66.408  1.00  0.00    -0.307 N  
HETATM   21  C   UNL     1     -10.877  16.845  65.809  1.00  0.00    -0.060 C  
HETATM   22  C   UNL     1      -9.443  18.816  68.630  1.00  0.00    -0.412 A  
HETATM   23  C   UNL     1     -10.446  17.999  66.606  1.00  0.00    -0.332 A  
HETATM   24  C   UNL     1      -9.439  20.117  68.115  1.00  0.00    -0.334 A  
HETATM   25  C   UNL     1      -9.971  20.362  66.853  1.00  0.00    -0.549 A  
HETATM   26  F   UNL     1     -10.975  19.580  64.893  1.00  0.00    -0.261 F  
HETATM   27  C   UNL     1     -10.473  19.303  66.104  1.00  0.00    -0.488 A  
BRANCH  20  28
HETATM   28  C   UNL     1     -11.069  14.463  65.583  1.00  0.00    -0.321 A  
HETATM   29  C   UNL     1     -10.105  13.857  64.769  1.00  0.00    -0.247 A  
HETATM   30  C   UNL     1     -10.435  12.728  64.015  1.00  0.00    -0.433 A  
HETATM   31  C   UNL     1     -11.727  12.206  64.061  1.00  0.00    -0.515 A  
HETATM   32  C   UNL     1     -12.704  12.835  64.828  1.00  0.00    -0.469 A  
HETATM   33  C   UNL     1     -12.383  13.972  65.567  1.00  0.00    -0.503 A  
ENDBRANCH  20  28
ENDBRANCH   1  16
TORSDOF 5
ENDMDL
MODEL        2
REMARK 921   NORMALIZED FREE ENERGY PREDICTED BY IDOCK:   -9.02 KCAL/MOL
REMARK 922        TOTAL FREE ENERGY PREDICTED BY IDOCK:  -11.72 KCAL/MOL
REMARK 923 INTER-LIGAND FREE ENERGY PREDICTED BY IDOCK:  -10.15 KCAL/MOL
REMARK 924 INTRA-LIGAND FREE ENERGY PREDICTED BY IDOCK:   -1.57 KCAL/MOL
REMARK 927      BINDING AFFINITY PREDICTED BY RF-SCORE:    0.00 PKD
ROOT
HETATM    1  C   UNL     1     -10.944  13.644  68.304  1.00  0.00    -0.254 C  
ENDROOT
BRANCH   1   2
HETATM    2  C   UNL     1     -11.906  13.613  69.508  1.00  0.00    -0.394 C  
HETATM    3  C   UNL     1     -11.924  12.311  70.292  1.00  0.00    -0.373 C  
ENDBRANCH   1   2
BRANCH   1   4
HETATM    4  N   UNL     1      -9.616  13.202  68.745  1.00  0.00    -0.411 NA 
HETATM    5  H   UNL     1      -9.309  13.440  69.689  1.00  0.00     0.000 HD 
BRANCH   4   6
HETATM    6  C   UNL     1      -8.766  12.479  67.934  1.00  0.00    -0.180 A  
HETATM    7  C   UNL     1      -8.235  10.707  66.430  1.00  0.00    -0.146 A  
HETATM    8  N   UNL     1      -6.929  10.984  66.338  1.00  0.00    -0.136 NA 
HETATM    9  N   UNL     1     -10.437  10.774  66.992  1.00  0.00    -0.235 NA 
HETATM   10  C   UNL     1      -6.626  12.053  67.096  1.00  0.00    -0.143 A  
HETATM   11  C   UNL     1     -10.208   9.751  66.184  1.00  0.00    -0.208 A  
HETATM   12  H   UNL     1     -11.329  11.057  67.398  1.00  0.00     0.000 HD 
HETATM   13  N   UNL     1      -7.444  12.794  67.873  1.00  0.00    -0.113 NA 
HETATM   14  C   UNL     1      -9.201  11.376  67.164  1.00  0.00    -0.166 A  
HETATM   15  N   UNL     1      -8.894   9.679  65.815  1.00  0.00    -0.149 NA 
ENDBRANCH   4   6
ENDBRANCH   1   4
BRANCH   1  16
HETATM   16  C   UNL     1     -10.786  15.075  67.665  1.00  0.00    -0.274 C  
HETATM   17  O   UNL     1     -11.264  16.833  64.573  1.00  0.00    -0.997 OA 
HETATM   18  N   UNL     1     -10.506  16.056  68.479  1.00  0.00    -0.247 NA 
HETATM   19  C   UNL     1     -10.389  17.356  67.978  1.00  0.00    -0.362 A  
HETATM   20  N   UNL     1     -11.007  15.283  66.303  1.00  0.00    -0.320 N  
HETATM   21  C   UNL     1     -11.028  16.574  65.753  1.00  0.00    -0.010 C  
HETATM   22  C   UNL     1      -9.961  18.374  68.839  1.00  0.00    -0.374 A  
HETATM   23  C   UNL     1     -10.688  17.679  66.658  1.00  0.00    -0.117 A  
HETATM   24  C   UNL     1      -9.857  19.696  68.394  1.00  0.00    -0.531 A  
HETATM   25  C   UNL     1     -10.201  20.013  67.084  1.00  0.00    -0.580 A  
HETATM   26  F   UNL     1     -10.938  19.350  64.968  1.00  0.00    -0.385 F  
HETATM   27  C   UNL     1     -10.617  19.004  66.222  1.00  0.00    -0.412 A  
BRANCH  20  28
HETATM   28  C   UNL     1     -11.238  14.212  65.387  1.00  0.00    -0.325 A  
HETATM   29  C   UNL     1     -10.197  13.675  64.621  1.00  0.00    -0.338 A  
HETATM   30  C   UNL     1     -10.438  12.590  63.774  1.00  0.00    -0.451 A  
HETATM   31  C   UNL     1     -11.717  12.044  63.681  1.00  0.00    -0.587 A  
HETATM   32  C   UNL     1     -12.768  12.606  64.399  1.00  0.00    -0.417 A  
HETATM   33  C   UNL     1     -12.535  13.700  65.231  1.00  0.00    -0.517 A  
ENDBRANCH  20  28
ENDBRANCH   1  16
TORSDOF 5
ENDMDL
MODEL        3
REMARK 921   NORMALIZED FREE ENERGY PREDICTED BY IDOCK:   -9.00 KCAL/MOL
REMARK 922        TOTAL FREE ENERGY PREDICTED BY IDOCK:  -11.69 KCAL/MOL
REMARK 923 INTER-LIGAND FREE ENERGY PREDICTED BY IDOCK:  -10.33 KCAL/MOL
REMARK 924 INTRA-LIGAND FREE ENERGY PREDICTED BY IDOCK:   -1.36 KCAL/MOL
REMARK 927      BINDING AFFINITY PREDICTED BY RF-SCORE:    0.00 PKD
ROOT
HETATM    1  C   UNL     1      -9.281  13.284  67.662  1.00  0.00    -0.209 C  
ENDROOT
BRANCH   1   2
HETATM    2  C   UNL     1      -7.939  13.712  68.287  1.00  0.00    -0.150 C  
HETATM    3  C   UNL     1      -7.204  14.821  67.552  1.00  0.00    -0.222 C  
ENDBRANCH   1   2
BRANCH   1   4
HETATM    4  N   UNL     1      -9.677  14.282  66.661  1.00  0.00    -0.276 NA 
HETATM    5  H   UNL     1      -9.268  15.215  66.710  1.00  0.00     0.000 HD 
BRANCH   4   6
HETATM    6  C   UNL     1     -10.582  14.006  65.656  1.00  0.00    -0.307 A  
HETATM    7  C   UNL     1     -11.404  12.757  63.799  1.00  0.00    -0.461 A  
HETATM    8  N   UNL     1     -12.455  13.547  63.549  1.00  0.00    -0.748 NA 
HETATM    9  N   UNL     1      -9.526  11.863  64.719  1.00  0.00    -0.437 NA 
HETATM   10  C   UNL     1     -12.490  14.566  64.426  1.00  0.00    -0.309 A  
HETATM   11  C   UNL     1      -9.907  11.140  63.677  1.00  0.00    -0.345 A  
HETATM   12  H   UNL     1      -8.725  11.699  65.329  1.00  0.00     0.000 HD 
HETATM   13  N   UNL     1     -11.635  14.839  65.434  1.00  0.00    -0.338 NA 
HETATM   14  C   UNL     1     -10.453  12.890  64.798  1.00  0.00    -0.350 A  
HETATM   15  N   UNL     1     -11.040  11.641  63.099  1.00  0.00    -0.224 NA 
ENDBRANCH   4   6
ENDBRANCH   1   4
BRANCH   1  16
HETATM   16  C   UNL     1     -10.451  13.167  68.711  1.00  0.00    -0.167 C  
HETATM   17  O   UNL     1     -12.154  10.755  70.750  1.00  0.00    -0.314 OA 
HETATM   18  N   UNL     1     -10.965  14.284  69.148  1.00  0.00    -0.259 NA 
HETATM   19  C   UNL     1     -11.982  14.247  70.107  1.00  0.00    -0.326 A  
HETATM   20  N   UNL     1     -10.861  11.924  69.195  1.00  0.00    -0.188 N  
HETATM   21  C   UNL     1     -11.786  11.815  70.244  1.00  0.00    -0.295 C  
HETATM   22  C   UNL     1     -12.612  15.444  70.469  1.00  0.00    -0.471 A  
HETATM   23  C   UNL     1     -12.388  13.066  70.722  1.00  0.00    -0.394 A  
HETATM   24  C   UNL     1     -13.613  15.463  71.445  1.00  0.00    -0.604 A  
HETATM   25  C   UNL     1     -13.978  14.283  72.084  1.00  0.00    -0.618 A  
HETATM   26  F   UNL     1     -13.744  11.974  72.358  1.00  0.00    -0.538 F  
HETATM   27  C   UNL     1     -13.363  13.089  71.721  1.00  0.00    -0.378 A  
BRANCH  20  28
HETATM   28  C   UNL     1     -10.364  10.691  68.672  1.00  0.00    -0.186 A  
HETATM   29  C   UNL     1     -10.907  10.122  67.514  1.00  0.00    -0.349 A  
HETATM   30  C   UNL     1     -10.365   8.945  66.991  1.00  0.00    -0.340 A  
HETATM   31  C   UNL     1      -9.288   8.327  67.625  1.00  0.00    -0.158 A  
HETATM   32  C   UNL     1      -8.777   8.858  68.806  1.00  0.00    -0.137 A  
HETATM   33  C   UNL     1      -9.327  10.022  69.340  1.00  0.00    -0.237 A  
ENDBRANCH  20  28
ENDBRANCH   1  16
TORSDOF 5
ENDMDL
MODEL        4
REMARK 921   NORMALIZED FREE ENERGY PREDICTED BY IDOCK:   -8.84 KCAL/MOL
REMARK 922        TOTAL FREE ENERGY PREDICTED BY IDOCK:  -11.49 KCAL/MOL
REMARK 923 INTER-LIGAND FREE ENERGY PREDICTED BY IDOCK:  -10.12 KCAL/MOL
REMARK 924 INTRA-LIGAND FREE ENERGY PREDICTED BY IDOCK:   -1.37 KCAL/MOL
REMARK 927      BINDING AFFINITY PREDICTED BY RF-SCORE:    0.00 PKD
ROOT
HETATM    1  C   UNL     1      -9.232  13.205  67.578  1.00  0.00    -0.206 C  
ENDROOT
BRANCH   1   2
HETATM    2  C   UNL     1      -7.870  13.572  68.199  1.00  0.00    -0.144 C  
HETATM    3  C   UNL     1      -6.662  12.918  67.547  1.00  0.00    -0.156 C  
ENDBRANCH   1   2
BRANCH   1   4
HETATM    4  N   UNL     1      -9.613  14.248  66.618  1.00  0.00    -0.278 NA 
HETATM    5  H   UNL     1      -9.197  15.175  66.711  1.00  0.00     0.000 HD 
BRANCH   4   6
HETATM    6  C   UNL     1     -10.511  14.023  65.595  1.00  0.00    -0.318 A  
HETATM    7  C   UNL     1     -11.360  12.826  63.716  1.00  0.00    -0.461 A  
HETATM    8  N   UNL     1     -12.365  13.669  63.452  1.00  0.00    -0.760 NA 
HETATM    9  N   UNL     1      -9.547  11.835  64.664  1.00  0.00    -0.418 NA 
HETATM   10  C   UNL     1     -12.366  14.684  64.334  1.00  0.00    -0.398 A  
HETATM   11  C   UNL     1      -9.944  11.137  63.612  1.00  0.00    -0.363 A  
HETATM   12  H   UNL     1      -8.766  11.628  65.288  1.00  0.00     0.000 HD 
HETATM   13  N   UNL     1     -11.517  14.909  65.359  1.00  0.00    -0.341 NA 
HETATM   14  C   UNL     1     -10.422  12.906  64.733  1.00  0.00    -0.350 A  
HETATM   15  N   UNL     1     -11.039  11.697  63.016  1.00  0.00    -0.098 NA 
ENDBRANCH   4   6
ENDBRANCH   1   4
BRANCH   1  16
HETATM   16  C   UNL     1     -10.391  13.084  68.639  1.00  0.00    -0.191 C  
HETATM   17  O   UNL     1     -12.063  10.668  70.698  1.00  0.00    -0.302 OA 
HETATM   18  N   UNL     1     -10.905  14.200  69.079  1.00  0.00    -0.254 NA 
HETATM   19  C   UNL     1     -11.912  14.159  70.049  1.00  0.00    -0.340 A  
HETATM   20  N   UNL     1     -10.790  11.840  69.128  1.00  0.00    -0.207 N  
HETATM   21  C   UNL     1     -11.705  11.728  70.187  1.00  0.00    -0.269 C  
HETATM   22  C   UNL     1     -12.543  15.354  70.416  1.00  0.00    -0.433 A  
HETATM   23  C   UNL     1     -12.307  12.977  70.669  1.00  0.00    -0.391 A  
HETATM   24  C   UNL     1     -13.535  15.370  71.402  1.00  0.00    -0.607 A  
HETATM   25  C   UNL     1     -13.889  14.189  72.046  1.00  0.00    -0.577 A  
HETATM   26  F   UNL     1     -13.642  11.881  72.320  1.00  0.00    -0.567 F  
HETATM   27  C   UNL     1     -13.272  12.998  71.678  1.00  0.00    -0.336 A  
BRANCH  20  28
HETATM   28  C   UNL     1     -10.293  10.609  68.601  1.00  0.00    -0.186 A  
HETATM   29  C   UNL     1      -9.188   9.968  69.173  1.00  0.00    -0.196 A  
HETATM   30  C   UNL     1      -8.757   8.736  68.674  1.00  0.00    -0.134 A  
HETATM   31  C   UNL     1      -9.419   8.144  67.599  1.00  0.00    -0.172 A  
HETATM   32  C   UNL     1     -10.486   8.801  66.991  1.00  0.00    -0.338 A  
HETATM   33  C   UNL     1     -10.906  10.038  67.475  1.00  0.00    -0.326 A  
ENDBRANCH  20  28
ENDBRANCH   1  16
TORSDOF 5
ENDMDL
MODEL        5
REMARK 921   NORMALIZED FREE ENERGY PREDICTED BY IDOCK:   -8.81 KCAL/MOL
REMARK 922        TOTAL FREE ENERGY PREDICTED BY IDOCK:  -11.46 KCAL/MOL
REMARK 923 INTER-LIGAND FREE ENERGY PREDICTED BY IDOCK:   -9.94 KCAL/MOL
REMARK 924 INTRA-LIGAND FREE ENERGY PREDICTED BY IDOCK:   -1.52 KCAL/MOL
REMARK 927      BINDING AFFINITY PREDICTED BY RF-SCORE:    0.00 PKD
ROOT
HETATM    1  C   UNL     1     -10.950  13.712  68.272  1.00  0.00    -0.254 C  
ENDROOT
BRANCH   1   2
HETATM    2  C   UNL     1     -11.900  13.721  69.486  1.00  0.00    -0.394 C  
HETATM    3  C   UNL     1     -12.055  12.388  70.199  1.00  0.00    -0.366 C  
ENDBRANCH   1   2
BRANCH   1   4
HETATM    4  N   UNL     1      -9.626  13.252  68.709  1.00  0.00    -0.410 NA 
HETATM    5  H   UNL     1      -9.309  13.493  69.648  1.00  0.00     0.000 HD 
BRANCH   4   6
HETATM    6  C   UNL     1      -8.794  12.506  67.899  1.00  0.00    -0.185 A  
HETATM    7  C   UNL     1      -6.698  11.974  66.896  1.00  0.00    -0.040 A  
HETATM    8  N   UNL     1      -7.154  10.967  66.139  1.00  0.00    -0.097 NA 
HETATM    9  N   UNL     1      -6.571  13.699  68.371  1.00  0.00    -0.085 NA 
HETATM   10  C   UNL     1      -8.473  10.798  66.335  1.00  0.00    -0.158 A  
HETATM   11  C   UNL     1      -5.383  13.479  67.829  1.00  0.00    -0.058 A  
HETATM   12  H   UNL     1      -6.815  14.402  69.069  1.00  0.00     0.000 HD 
HETATM   13  N   UNL     1      -9.300  11.493  67.144  1.00  0.00    -0.170 NA 
HETATM   14  C   UNL     1      -7.409  12.766  67.782  1.00  0.00    -0.130 A  
HETATM   15  N   UNL     1      -5.415  12.442  66.939  1.00  0.00    -0.336 NA 
ENDBRANCH   4   6
ENDBRANCH   1   4
BRANCH   1  16
HETATM   16  C   UNL     1     -10.769  15.129  67.607  1.00  0.00    -0.285 C  
HETATM   17  O   UNL     1     -11.280  16.851  64.501  1.00  0.00    -1.057 OA 
HETATM   18  N   UNL     1     -10.442  16.113  68.398  1.00  0.00    -0.261 NA 
HETATM   19  C   UNL     1     -10.303  17.402  67.874  1.00  0.00    -0.369 A  
HETATM   20  N   UNL     1     -11.020  15.322  66.248  1.00  0.00    -0.320 N  
HETATM   21  C   UNL     1     -11.021  16.604  65.679  1.00  0.00    -0.027 C  
HETATM   22  C   UNL     1      -9.826  18.421  68.707  1.00  0.00    -0.388 A  
HETATM   23  C   UNL     1     -10.628  17.713  66.557  1.00  0.00    -0.207 A  
HETATM   24  C   UNL     1      -9.698  19.733  68.238  1.00  0.00    -0.499 A  
HETATM   25  C   UNL     1     -10.068  20.039  66.933  1.00  0.00    -0.601 A  
HETATM   26  F   UNL     1     -10.877  19.364  64.847  1.00  0.00    -0.163 F  
HETATM   27  C   UNL     1     -10.532  19.029  66.098  1.00  0.00    -0.467 A  
BRANCH  20  28
HETATM   28  C   UNL     1     -11.303  14.243  65.355  1.00  0.00    -0.329 A  
HETATM   29  C   UNL     1     -10.298  13.669  64.569  1.00  0.00    -0.355 A  
HETATM   30  C   UNL     1     -10.590  12.578  63.746  1.00  0.00    -0.471 A  
HETATM   31  C   UNL     1     -11.884  12.063  63.696  1.00  0.00    -0.602 A  
HETATM   32  C   UNL     1     -12.900  12.662  64.436  1.00  0.00    -0.344 A  
HETATM   33  C   UNL     1     -12.617  13.762  65.243  1.00  0.00    -0.510 A  
ENDBRANCH  20  28
ENDBRANCH   1  16
TORSDOF 5
ENDMDL
MODEL        6
REMARK 921   NORMALIZED FREE ENERGY PREDICTED BY IDOCK:   -8.80 KCAL/MOL
REMARK 922        TOTAL FREE ENERGY PREDICTED BY IDOCK:  -11.43 KCAL/MOL
REMARK 923 INTER-LIGAND FREE ENERGY PREDICTED BY IDOCK:  -10.46 KCAL/MOL
REMARK 924 INTRA-LIGAND FREE ENERGY PREDICTED BY IDOCK:   -0.98 KCAL/MOL
REMARK 927      BINDING AFFINITY PREDICTED BY RF-SCORE:    0.00 PKD
ROOT
HETATM    1  C   UNL     1      -9.189  15.352  67.956  1.00  0.00    -0.184 C  
ENDROOT
BRANCH   1   2
HETATM    2  C   UNL     1      -8.033  16.093  68.656  1.00  0.00    -0.201 C  
HETATM    3  C   UNL     1      -7.040  15.203  69.386  1.00  0.00    -0.189 C  
ENDBRANCH   1   2
BRANCH   1   4
HETATM    4  N   UNL     1      -9.799  16.250  66.967  1.00  0.00    -0.239 NA 
HETATM    5  H   UNL     1     -10.305  15.841  66.181  1.00  0.00     0.000 HD 
BRANCH   4   6
HETATM    6  C   UNL     1      -9.714  17.624  67.061  1.00  0.00    -0.292 A  
HETATM    7  C   UNL     1      -8.676  19.735  66.675  1.00  0.00    -0.354 A  
HETATM    8  N   UNL     1      -9.566  20.459  67.365  1.00  0.00    -0.429 NA 
HETATM    9  N   UNL     1      -7.576  18.004  65.694  1.00  0.00    -0.539 NA 
HETATM   10  C   UNL     1     -10.518  19.661  67.879  1.00  0.00    -0.423 A  
HETATM   11  C   UNL     1      -6.929  19.137  65.468  1.00  0.00    -0.212 A  
HETATM   12  H   UNL     1      -7.323  17.070  65.372  1.00  0.00     0.000 HD 
HETATM   13  N   UNL     1     -10.639  18.321  67.776  1.00  0.00    -0.412 NA 
HETATM   14  C   UNL     1      -8.670  18.366  66.463  1.00  0.00    -0.278 A  
HETATM   15  N   UNL     1      -7.564  20.206  66.036  1.00  0.00    -0.290 NA 
ENDBRANCH   4   6
ENDBRANCH   1   4
BRANCH   1  16
HETATM   16  C   UNL     1     -10.324  14.885  68.945  1.00  0.00    -0.244 C  
HETATM   17  O   UNL     1     -12.518  12.119  69.588  1.00  0.00    -0.047 OA 
HETATM   18  N   UNL     1     -10.533  15.631  69.995  1.00  0.00    -0.315 NA 
HETATM   19  C   UNL     1     -11.503  15.250  70.929  1.00  0.00    -0.339 A  
HETATM   20  N   UNL     1     -11.016  13.692  68.733  1.00  0.00    -0.258 N  
HETATM   21  C   UNL     1     -11.912  13.186  69.688  1.00  0.00    -0.306 C  
HETATM   22  C   UNL     1     -11.806  16.125  71.980  1.00  0.00    -0.615 A  
HETATM   23  C   UNL     1     -12.172  14.032  70.858  1.00  0.00    -0.436 A  
HETATM   24  C   UNL     1     -12.745  15.777  72.956  1.00  0.00    -0.599 A  
HETATM   25  C   UNL     1     -13.375  14.538  72.899  1.00  0.00    -0.579 A  
HETATM   26  F   UNL     1     -13.713  12.487  71.831  1.00  0.00    -0.459 F  
HETATM   27  C   UNL     1     -13.085  13.670  71.851  1.00  0.00    -0.387 A  
BRANCH  20  28
HETATM   28  C   UNL     1     -10.854  12.906  67.552  1.00  0.00    -0.235 A  
HETATM   29  C   UNL     1      -9.849  11.936  67.457  1.00  0.00    -0.194 A  
HETATM   30  C   UNL     1      -9.748  11.141  66.312  1.00  0.00    -0.244 A  
HETATM   31  C   UNL     1     -10.640  11.317  65.255  1.00  0.00    -0.323 A  
HETATM   32  C   UNL     1     -11.609  12.315  65.321  1.00  0.00    -0.405 A  
HETATM   33  C   UNL     1     -11.701  13.121  66.453  1.00  0.00    -0.429 A  
ENDBRANCH  20  28
ENDBRANCH   1  16
TORSDOF 5
ENDMDL
MODEL        7
REMARK 921   NORMALIZED FREE ENERGY PREDICTED BY IDOCK:   -8.78 KCAL/MOL
REMARK 922        TOTAL FREE ENERGY PREDICTED BY IDOCK:  -11.42 KCAL/MOL
REMARK 923 INTER-LIGAND FREE ENERGY PREDICTED BY IDOCK:   -9.76 KCAL/MOL
REMARK 924 INTRA-LIGAND FREE ENERGY PREDICTED BY IDOCK:   -1.66 KCAL/MOL
REMARK 927      BINDING AFFINITY PREDICTED BY RF-SCORE:    0.00 PKD
ROOT
HETATM    1  C   UNL     1     -11.586  13.334  67.058  1.00  0.00    -0.359 C  
ENDROOT
BRANCH   1   2
HETATM    2  C   UNL     1     -12.502  13.988  66.005  1.00  0.00    -0.489 C  
HETATM    3  C   UNL     1     -11.837  14.309  64.676  1.00  0.00    -0.459 C  
ENDBRANCH   1   2
BRANCH   1   4
HETATM    4  N   UNL     1     -11.954  11.919  67.195  1.00  0.00    -0.603 NA 
HETATM    5  H   UNL     1     -12.925  11.648  67.041  1.00  0.00     0.000 HD 
BRANCH   4   6
HETATM    6  C   UNL     1     -11.036  10.943  67.525  1.00  0.00    -0.310 A  
HETATM    7  C   UNL     1     -10.080   9.304  68.968  1.00  0.00    -0.199 A  
HETATM    8  N   UNL     1      -9.054   8.989  68.168  1.00  0.00    -0.133 NA 
HETATM    9  N   UNL     1     -11.964  10.254  69.817  1.00  0.00    -0.467 NA 
HETATM   10  C   UNL     1      -9.104   9.719  67.039  1.00  0.00    -0.138 A  
HETATM   11  C   UNL     1     -11.470   9.382  70.681  1.00  0.00    -0.284 A  
HETATM   12  H   UNL     1     -12.803  10.824  69.921  1.00  0.00     0.000 HD 
HETATM   13  N   UNL     1     -10.007  10.657  66.682  1.00  0.00    -0.205 NA 
HETATM   14  C   UNL     1     -11.092  10.223  68.741  1.00  0.00    -0.228 A  
HETATM   15  N   UNL     1     -10.338   8.781  70.205  1.00  0.00    -0.201 NA 
ENDBRANCH   4   6
ENDBRANCH   1   4
BRANCH   1  16
HETATM   16  C   UNL     1     -11.696  13.998  68.483  1.00  0.00    -0.352 C  
HETATM   17  O   UNL     1     -10.699  16.933  70.291  1.00  0.00    -0.095 OA 
HETATM   18  N   UNL     1     -12.502  13.429  69.337  1.00  0.00    -0.050 NA 
HETATM   19  C   UNL     1     -12.670  13.992  70.606  1.00  0.00    -0.303 A  
HETATM   20  N   UNL     1     -11.014  15.178  68.780  1.00  0.00    -0.244 N  
HETATM   21  C   UNL     1     -11.229  15.865  69.985  1.00  0.00    -0.353 C  
HETATM   22  C   UNL     1     -13.435  13.301  71.554  1.00  0.00    -0.257 A  
HETATM   23  C   UNL     1     -12.114  15.217  70.961  1.00  0.00    -0.397 A  
HETATM   24  C   UNL     1     -13.658  13.837  72.827  1.00  0.00    -0.460 A  
HETATM   25  C   UNL     1     -13.133  15.083  73.154  1.00  0.00    -0.619 A  
HETATM   26  F   UNL     1     -11.875  16.964  72.574  1.00  0.00    -0.555 F  
HETATM   27  C   UNL     1     -12.364  15.768  72.219  1.00  0.00    -0.452 A  
BRANCH  20  28
HETATM   28  C   UNL     1     -10.070  15.770  67.886  1.00  0.00    -0.230 A  
HETATM   29  C   UNL     1     -10.420  16.856  67.075  1.00  0.00    -0.281 A  
HETATM   30  C   UNL     1      -9.462  17.452  66.251  1.00  0.00    -0.247 A  
HETATM   31  C   UNL     1      -8.157  16.962  66.224  1.00  0.00    -0.351 A  
HETATM   32  C   UNL     1      -7.815  15.849  66.987  1.00  0.00    -0.267 A  
HETATM   33  C   UNL     1      -8.773  15.241  67.797  1.00  0.00    -0.168 A  
ENDBRANCH  20  28
ENDBRANCH   1  16
TORSDOF 5
ENDMDL
MODEL        8
REMARK 921   NORMALIZED FREE ENERGY PREDICTED BY IDOCK:   -8.77 KCAL/MOL
REMARK 922        TOTAL FREE ENERGY PREDICTED BY IDOCK:  -11.40 KCAL/MOL
REMARK 923 INTER-LIGAND FREE ENERGY PREDICTED BY IDOCK:  -10.54 KCAL/MOL
REMARK 924 INTRA-LIGAND FREE ENERGY PREDICTED BY IDOCK:   -0.85 KCAL/MOL
REMARK 927      BINDING AFFINITY PREDICTED BY RF-SCORE:    0.00 PKD
ROOT
HETATM    1  C   UNL     1     -10.768  15.680  67.067  1.00  0.00    -0.314 C  
ENDROOT
BRANCH   1   2
HETATM    2  C   UNL     1      -9.342  15.357  66.579  1.00  0.00    -0.311 C  
HETATM    3  C   UNL     1      -8.398  14.818  67.642  1.00  0.00    -0.180 C  
ENDBRANCH   1   2
BRANCH   1   4
HETATM    4  N   UNL     1     -10.737  16.934  67.829  1.00  0.00    -0.337 NA 
HETATM    5  H   UNL     1     -11.212  16.972  68.731  1.00  0.00     0.000 HD 
BRANCH   4   6
HETATM    6  C   UNL     1     -10.090  18.064  67.372  1.00  0.00    -0.349 A  
HETATM    7  C   UNL     1      -8.354  19.697  67.406  1.00  0.00    -0.300 A  
HETATM    8  N   UNL     1      -8.852  20.456  66.422  1.00  0.00    -0.145 NA 
HETATM    9  N   UNL     1      -8.055  18.043  68.937  1.00  0.00    -0.217 NA 
HETATM   10  C   UNL     1      -9.999  19.926  65.961  1.00  0.00    -0.458 A  
HETATM   11  C   UNL     1      -7.077  18.929  69.033  1.00  0.00    -0.306 A  
HETATM   12  H   UNL     1      -8.181  17.194  69.488  1.00  0.00     0.000 HD 
HETATM   13  N   UNL     1     -10.634  18.808  66.371  1.00  0.00    -0.405 NA 
HETATM   14  C   UNL     1      -8.872  18.522  67.925  1.00  0.00    -0.284 A  
HETATM   15  N   UNL     1      -7.215  19.939  68.123  1.00  0.00    -0.290 NA 
ENDBRANCH   4   6
ENDBRANCH   1   4
BRANCH   1  16
HETATM   16  C   UNL     1     -11.376  14.566  68.002  1.00  0.00    -0.306 C  
HETATM   17  O   UNL     1     -12.152  11.063  68.048  1.00  0.00    -0.615 OA 
HETATM   18  N   UNL     1     -11.596  14.896  69.245  1.00  0.00    -0.288 NA 
HETATM   19  C   UNL     1     -12.101  13.941  70.133  1.00  0.00    -0.349 A  
HETATM   20  N   UNL     1     -11.598  13.273  67.528  1.00  0.00    -0.325 N  
HETATM   21  C   UNL     1     -11.985  12.234  68.389  1.00  0.00    -0.210 C  
HETATM   22  C   UNL     1     -12.454  14.343  71.427  1.00  0.00    -0.433 A  
HETATM   23  C   UNL     1     -12.260  12.604  69.782  1.00  0.00    -0.209 A  
HETATM   24  C   UNL     1     -12.934  13.420  72.361  1.00  0.00    -0.372 A  
HETATM   25  C   UNL     1     -13.047  12.078  72.012  1.00  0.00    -0.456 A  
HETATM   26  F   UNL     1     -12.832  10.375  70.428  1.00  0.00    -0.373 F  
HETATM   27  C   UNL     1     -12.708  11.675  70.725  1.00  0.00    -0.201 A  
BRANCH  20  28
HETATM   28  C   UNL     1     -11.436  12.916  66.154  1.00  0.00    -0.348 A  
HETATM   29  C   UNL     1     -12.418  13.222  65.204  1.00  0.00    -0.525 A  
HETATM   30  C   UNL     1     -12.209  12.914  63.858  1.00  0.00    -0.525 A  
HETATM   31  C   UNL     1     -11.029  12.290  63.455  1.00  0.00    -0.521 A  
HETATM   32  C   UNL     1     -10.072  11.935  64.402  1.00  0.00    -0.310 A  
HETATM   33  C   UNL     1     -10.284  12.225  65.748  1.00  0.00    -0.281 A  
ENDBRANCH  20  28
ENDBRANCH   1  16
TORSDOF 5
ENDMDL
MODEL        9
REMARK 921   NORMALIZED FREE ENERGY PREDICTED BY IDOCK:   -8.69 KCAL/MOL
REMARK 922        TOTAL FREE ENERGY PREDICTED BY IDOCK:  -11.30 KCAL/MOL
REMARK 923 INTER-LIGAND FREE ENERGY PREDICTED BY IDOCK:   -9.66 KCAL/MOL
REMARK 924 INTRA-LIGAND FREE ENERGY PREDICTED BY IDOCK:   -1.64 KCAL/MOL
REMARK 927      BINDING AFFINITY PREDICTED BY RF-SCORE:    0.00 PKD
ROOT
HETATM    1  C   UNL     1     -11.480  13.456  66.898  1.00  0.00    -0.342 C  
ENDROOT
BRANCH   1   2
HETATM    2  C   UNL     1     -12.435  14.109  65.880  1.00  0.00    -0.479 C  
HETATM    3  C   UNL     1     -11.766  14.699  64.649  1.00  0.00    -0.431 C  
ENDBRANCH   1   2
BRANCH   1   4
HETATM    4  N   UNL     1     -11.778  12.021  66.977  1.00  0.00    -0.571 NA 
HETATM    5  H   UNL     1     -12.742  11.713  66.845  1.00  0.00     0.000 HD 
BRANCH   4   6
HETATM    6  C   UNL     1     -10.806  11.073  67.224  1.00  0.00    -0.281 A  
HETATM    7  C   UNL     1      -9.761   9.367  68.520  1.00  0.00    -0.149 A  
HETATM    8  N   UNL     1      -8.715   9.188  67.704  1.00  0.00    -0.120 NA 
HETATM    9  N   UNL     1     -11.701  10.123  69.434  1.00  0.00    -0.476 NA 
HETATM   10  C   UNL     1      -8.804  10.015  66.647  1.00  0.00    -0.132 A  
HETATM   11  C   UNL     1     -11.160   9.204  70.219  1.00  0.00    -0.239 A  
HETATM   12  H   UNL     1     -12.573  10.631  69.583  1.00  0.00     0.000 HD 
HETATM   13  N   UNL     1      -9.758  10.927  66.369  1.00  0.00    -0.195 NA 
HETATM   14  C   UNL     1     -10.824  10.243  68.368  1.00  0.00    -0.245 A  
HETATM   15  N   UNL     1      -9.992   8.717  69.700  1.00  0.00    -0.186 NA 
ENDBRANCH   4   6
ENDBRANCH   1   4
BRANCH   1  16
HETATM   16  C   UNL     1     -11.609  14.054  68.351  1.00  0.00    -0.331 C  
HETATM   17  O   UNL     1     -10.742  16.956  70.275  1.00  0.00    -0.095 OA 
HETATM   18  N   UNL     1     -12.379  13.410  69.186  1.00  0.00    -0.136 NA 
HETATM   19  C   UNL     1     -12.564  13.910  70.479  1.00  0.00    -0.312 A  
HETATM   20  N   UNL     1     -10.984  15.253  68.693  1.00  0.00    -0.246 N  
HETATM   21  C   UNL     1     -11.222  15.876  69.928  1.00  0.00    -0.348 C  
HETATM   22  C   UNL     1     -13.285  13.143  71.402  1.00  0.00    -0.290 A  
HETATM   23  C   UNL     1     -12.065  15.145  70.881  1.00  0.00    -0.388 A  
HETATM   24  C   UNL     1     -13.523  13.613  72.697  1.00  0.00    -0.608 A  
HETATM   25  C   UNL     1     -13.057  14.868  73.074  1.00  0.00    -0.605 A  
HETATM   26  F   UNL     1     -11.898  16.832  72.565  1.00  0.00    -0.572 F  
HETATM   27  C   UNL     1     -12.331  15.630  72.164  1.00  0.00    -0.430 A  
BRANCH  20  28
HETATM   28  C   UNL     1     -10.078  15.927  67.818  1.00  0.00    -0.244 A  
HETATM   29  C   UNL     1      -8.759  15.487  67.659  1.00  0.00    -0.183 A  
HETATM   30  C   UNL     1      -7.911  16.130  66.753  1.00  0.00    -0.307 A  
HETATM   31  C   UNL     1      -8.370  17.219  66.014  1.00  0.00    -0.154 A  
HETATM   32  C   UNL     1      -9.664  17.695  66.206  1.00  0.00    -0.275 A  
HETATM   33  C   UNL     1     -10.507  17.067  67.121  1.00  0.00    -0.291 A  
ENDBRANCH  20  28
ENDBRANCH   1  16
TORSDOF 5
ENDMDL
MODEL       10
REMARK 921   NORMALIZED FREE ENERGY PREDICTED BY IDOCK:   -8.68 KCAL/MOL
REMARK 922        TOTAL FREE ENERGY PREDICTED BY IDOCK:  -11.28 KCAL/MOL
REMARK 923 INTER-LIGAND FREE ENERGY PREDICTED BY IDOCK:   -9.88 KCAL/MOL
REMARK 924 INTRA-LIGAND FREE ENERGY PREDICTED BY IDOCK:   -1.40 KCAL/MOL
REMARK 927      BINDING AFFINITY PREDICTED BY RF-SCORE:    0.00 PKD
ROOT
HETATM    1  C   UNL     1     -11.508  13.425  66.871  1.00  0.00    -0.342 C  
ENDROOT
BRANCH   1   2
HETATM    2  C   UNL     1     -12.447  14.117  65.863  1.00  0.00    -0.479 C  
HETATM    3  C   UNL     1     -11.802  14.522  64.548  1.00  0.00    -0.459 C  
ENDBRANCH   1   2
BRANCH   1   4
HETATM    4  N   UNL     1     -11.868  12.004  66.957  1.00  0.00    -0.611 NA 
HETATM    5  H   UNL     1     -12.785  11.752  67.325  1.00  0.00     0.000 HD 
BRANCH   4   6
HETATM    6  C   UNL     1     -11.012  10.997  66.559  1.00  0.00    -0.166 A  
HETATM    7  C   UNL     1      -9.723   9.023  66.908  1.00  0.00    -0.200 A  
HETATM    8  N   UNL     1      -9.175   8.992  65.687  1.00  0.00    -0.229 NA 
HETATM    9  N   UNL     1     -10.951   9.622  68.725  1.00  0.00    -0.411 NA 
HETATM   10  C   UNL     1      -9.617  10.029  64.953  1.00  0.00    -0.310 A  
HETATM   11  C   UNL     1     -10.237   8.541  68.999  1.00  0.00    -0.207 A  
HETATM   12  H   UNL     1     -11.598  10.112  69.343  1.00  0.00     0.000 HD 
HETATM   13  N   UNL     1     -10.476  11.007  65.309  1.00  0.00    -0.269 NA 
HETATM   14  C   UNL     1     -10.626   9.942  67.417  1.00  0.00    -0.277 A  
HETATM   15  N   UNL     1      -9.488   8.142  67.927  1.00  0.00    -0.144 NA 
ENDBRANCH   4   6
ENDBRANCH   1   4
BRANCH   1  16
HETATM   16  C   UNL     1     -11.594  14.030  68.324  1.00  0.00    -0.329 C  
HETATM   17  O   UNL     1     -10.568  16.888  70.234  1.00  0.00    -0.024 OA 
HETATM   18  N   UNL     1     -12.386  13.425  69.168  1.00  0.00    -0.136 NA 
HETATM   19  C   UNL     1     -12.533  13.935  70.462  1.00  0.00    -0.352 A  
HETATM   20  N   UNL     1     -10.908  15.198  68.658  1.00  0.00    -0.236 N  
HETATM   21  C   UNL     1     -11.103  15.833  69.894  1.00  0.00    -0.331 C  
HETATM   22  C   UNL     1     -13.281  13.205  71.393  1.00  0.00    -0.290 A  
HETATM   23  C   UNL     1     -11.970  15.145  70.857  1.00  0.00    -0.378 A  
HETATM   24  C   UNL     1     -13.483  13.687  72.690  1.00  0.00    -0.608 A  
HETATM   25  C   UNL     1     -12.952  14.919  73.060  1.00  0.00    -0.599 A  
HETATM   26  F   UNL     1     -11.705  16.824  72.537  1.00  0.00    -0.574 F  
HETATM   27  C   UNL     1     -12.200  15.643  72.142  1.00  0.00    -0.439 A  
BRANCH  20  28
HETATM   28  C   UNL     1      -9.980  15.827  67.773  1.00  0.00    -0.227 A  
HETATM   29  C   UNL     1     -10.338  16.956  67.028  1.00  0.00    -0.307 A  
HETATM   30  C   UNL     1      -9.394  17.586  66.213  1.00  0.00    -0.231 A  
HETATM   31  C   UNL     1      -8.095  17.087  66.129  1.00  0.00    -0.292 A  
HETATM   32  C   UNL     1      -7.746  15.934  66.826  1.00  0.00    -0.245 A  
HETATM   33  C   UNL     1      -8.690  15.293  67.626  1.00  0.00    -0.179 A  
ENDBRANCH  20  28
ENDBRANCH   1  16
TORSDOF 5
ENDMDL
MODEL       11
REMARK 921   NORMALIZED FREE ENERGY PREDICTED BY IDOCK:   -8.67 KCAL/MOL
REMARK 922        TOTAL FREE ENERGY PREDICTED BY IDOCK:  -11.27 KCAL/MOL
REMARK 923 INTER-LIGAND FREE ENERGY PREDICTED BY IDOCK:   -9.84 KCAL/MOL
REMARK 924 INTRA-LIGAND FREE ENERGY PREDICTED BY IDOCK:   -1.42 KCAL/MOL
REMARK 927      BINDING AFFINITY PREDICTED BY RF-SCORE:    0.00 PKD
ROOT
HETATM    1  C   UNL     1     -11.560  13.601  66.827  1.00  0.00    -0.364 C  
ENDROOT
BRANCH   1   2
HETATM    2  C   UNL     1     -12.566  14.281  65.878  1.00  0.00    -0.376 C  
HETATM    3  C   UNL     1     -11.978  14.812  64.581  1.00  0.00    -0.448 C  
ENDBRANCH   1   2
BRANCH   1   4
HETATM    4  N   UNL     1     -11.849  12.162  66.874  1.00  0.00    -0.601 NA 
HETATM    5  H   UNL     1     -12.784  11.859  67.145  1.00  0.00     0.000 HD 
BRANCH   4   6
HETATM    6  C   UNL     1     -10.904  11.205  66.568  1.00  0.00    -0.245 A  
HETATM    7  C   UNL     1      -9.479  10.003  65.082  1.00  0.00    -0.270 A  
HETATM    8  N   UNL     1      -9.006   9.148  65.997  1.00  0.00    -0.168 NA 
HETATM    9  N   UNL     1     -10.617  11.687  64.063  1.00  0.00    -0.336 NA 
HETATM   10  C   UNL     1      -9.551   9.406  67.199  1.00  0.00    -0.154 A  
HETATM   11  C   UNL     1      -9.874  11.044  63.177  1.00  0.00    -0.363 A  
HETATM   12  H   UNL     1     -11.226  12.489  63.898  1.00  0.00     0.000 HD 
HETATM   13  N   UNL     1     -10.452  10.354  67.529  1.00  0.00    -0.227 NA 
HETATM   14  C   UNL     1     -10.387  11.034  65.263  1.00  0.00    -0.275 A  
HETATM   15  N   UNL     1      -9.165  10.025  63.751  1.00  0.00    -0.263 NA 
ENDBRANCH   4   6
ENDBRANCH   1   4
BRANCH   1  16
HETATM   16  C   UNL     1     -11.621  14.151  68.303  1.00  0.00    -0.321 C  
HETATM   17  O   UNL     1     -10.597  16.956  70.292  1.00  0.00    -0.024 OA 
HETATM   18  N   UNL     1     -12.381  13.502  69.142  1.00  0.00    -0.170 NA 
HETATM   19  C   UNL     1     -12.505  13.962  70.457  1.00  0.00    -0.352 A  
HETATM   20  N   UNL     1     -10.946  15.318  68.663  1.00  0.00    -0.246 N  
HETATM   21  C   UNL     1     -11.122  15.905  69.925  1.00  0.00    -0.343 C  
HETATM   22  C   UNL     1     -13.218  13.185  71.378  1.00  0.00    -0.290 A  
HETATM   23  C   UNL     1     -11.954  15.167  70.883  1.00  0.00    -0.378 A  
HETATM   24  C   UNL     1     -13.397  13.616  72.697  1.00  0.00    -0.587 A  
HETATM   25  C   UNL     1     -12.879  14.843  73.099  1.00  0.00    -0.619 A  
HETATM   26  F   UNL     1     -11.677  16.788  72.616  1.00  0.00    -0.582 F  
HETATM   27  C   UNL     1     -12.161  15.614  72.190  1.00  0.00    -0.448 A  
BRANCH  20  28
HETATM   28  C   UNL     1     -10.051  15.995  67.780  1.00  0.00    -0.243 A  
HETATM   29  C   UNL     1      -8.723  15.576  67.631  1.00  0.00    -0.183 A  
HETATM   30  C   UNL     1      -7.884  16.221  66.718  1.00  0.00    -0.300 A  
HETATM   31  C   UNL     1      -8.361  17.289  65.960  1.00  0.00    -0.154 A  
HETATM   32  C   UNL     1      -9.665  17.744  66.141  1.00  0.00    -0.230 A  
HETATM   33  C   UNL     1     -10.498  17.116  67.063  1.00  0.00    -0.282 A  
ENDBRANCH  20  28
ENDBRANCH   1  16
TORSDOF 5
ENDMDL
MODEL       12
REMARK 921   NORMALIZED FREE ENERGY PREDICTED BY IDOCK:   -8.56 KCAL/MOL
REMARK 922        TOTAL FREE ENERGY PREDICTED BY IDOCK:  -11.13 KCAL/MOL
REMARK 923 INTER-LIGAND FREE ENERGY PREDICTED BY IDOCK:   -9.97 KCAL/MOL
REMARK 924 INTRA-LIGAND FREE ENERGY PREDICTED BY IDOCK:   -1.16 KCAL/MOL
REMARK 927      BINDING AFFINITY PREDICTED BY RF-SCORE:    0.00 PKD
ROOT
HETATM    1  C   UNL     1     -12.409   9.100  71.324  1.00  0.00    -0.315 C  
ENDROOT
BRANCH   1   2
HETATM    2  C   UNL     1     -13.689   8.670  72.066  1.00  0.00    -0.470 C  
HETATM    3  C   UNL     1     -14.410   7.469  71.474  1.00  0.00    -0.603 C  
ENDBRANCH   1   2
BRANCH   1   4
HETATM    4  N   UNL     1     -11.242   8.721  72.130  1.00  0.00    -0.362 NA 
HETATM    5  H   UNL     1     -10.677   9.458  72.551  1.00  0.00     0.000 HD 
BRANCH   4   6
HETATM    6  C   UNL     1     -10.881   7.406  72.340  1.00  0.00    -0.263 A  
HETATM    7  C   UNL     1     -10.366   5.189  71.632  1.00  0.00    -0.207 A  
HETATM    8  N   UNL     1     -10.210   4.679  72.860  1.00  0.00    -0.172 NA 
HETATM    9  N   UNL     1     -10.749   6.614  69.902  1.00  0.00    -0.230 NA 
HETATM   10  C   UNL     1     -10.412   5.631  73.788  1.00  0.00    -0.270 A  
HETATM   11  C   UNL     1     -10.503   5.398  69.440  1.00  0.00    -0.261 A  
HETATM   12  H   UNL     1     -10.948   7.455  69.362  1.00  0.00     0.000 HD 
HETATM   13  N   UNL     1     -10.735   6.929  73.606  1.00  0.00    -0.333 NA 
HETATM   14  C   UNL     1     -10.678   6.492  71.281  1.00  0.00    -0.237 A  
HETATM   15  N   UNL     1     -10.259   4.510  70.450  1.00  0.00    -0.162 NA 
ENDBRANCH   4   6
ENDBRANCH   1   4
BRANCH   1  16
HETATM   16  C   UNL     1     -12.328  10.652  71.064  1.00  0.00    -0.403 C  
HETATM   17  O   UNL     1     -11.007  13.037  68.731  1.00  0.00    -0.248 OA 
HETATM   18  N   UNL     1     -13.055  11.417  71.832  1.00  0.00    -0.473 NA 
HETATM   19  C   UNL     1     -13.054  12.800  71.627  1.00  0.00    -0.331 A  
HETATM   20  N   UNL     1     -11.566  11.167  70.014  1.00  0.00    -0.321 N  
HETATM   21  C   UNL     1     -11.614  12.527  69.672  1.00  0.00    -0.253 C  
HETATM   22  C   UNL     1     -13.735  13.617  72.538  1.00  0.00    -0.663 A  
HETATM   23  C   UNL     1     -12.409  13.396  70.548  1.00  0.00    -0.401 A  
HETATM   24  C   UNL     1     -13.790  15.003  72.360  1.00  0.00    -0.596 A  
HETATM   25  C   UNL     1     -13.178  15.582  71.253  1.00  0.00    -0.588 A  
HETATM   26  F   UNL     1     -11.914  15.373  69.299  1.00  0.00    -0.311 F  
HETATM   27  C   UNL     1     -12.491  14.776  70.351  1.00  0.00    -0.349 A  
BRANCH  20  28
HETATM   28  C   UNL     1     -10.706  10.353  69.215  1.00  0.00    -0.237 A  
HETATM   29  C   UNL     1      -9.363  10.161  69.559  1.00  0.00    -0.230 A  
HETATM   30  C   UNL     1      -8.558   9.314  68.792  1.00  0.00    -0.131 A  
HETATM   31  C   UNL     1      -9.084   8.666  67.676  1.00  0.00    -0.145 A  
HETATM   32  C   UNL     1     -10.405   8.894  67.297  1.00  0.00    -0.350 A  
HETATM   33  C   UNL     1     -11.205   9.751  68.049  1.00  0.00    -0.059 A  
ENDBRANCH  20  28
ENDBRANCH   1  16
TORSDOF 5
ENDMDL
MODEL       13
REMARK 921   NORMALIZED FREE ENERGY PREDICTED BY IDOCK:   -8.52 KCAL/MOL
REMARK 922        TOTAL FREE ENERGY PREDICTED BY IDOCK:  -11.08 KCAL/MOL
REMARK 923 INTER-LIGAND FREE ENERGY PREDICTED BY IDOCK:  -10.01 KCAL/MOL
REMARK 924 INTRA-LIGAND FREE ENERGY PREDICTED BY IDOCK:   -1.07 KCAL/MOL
REMARK 927      BINDING AFFINITY PREDICTED BY RF-SCORE:    0.00 PKD
ROOT
HETATM    1  C   UNL     1      -9.171  12.173  67.347  1.00  0.00    -0.182 C  
ENDROOT
BRANCH   1   2
HETATM    2  C   UNL     1      -7.749  12.145  67.940  1.00  0.00    -0.134 C  
HETATM    3  C   UNL     1      -6.953  10.881  67.657  1.00  0.00    -0.082 C  
ENDBRANCH   1   2
BRANCH   1   4
HETATM    4  N   UNL     1      -9.296  13.343  66.469  1.00  0.00    -0.367 NA 
HETATM    5  H   UNL     1      -8.592  14.079  66.529  1.00  0.00     0.000 HD 
BRANCH   4   6
HETATM    6  C   UNL     1     -10.329  13.486  65.565  1.00  0.00    -0.300 A  
HETATM    7  C   UNL     1     -11.825  14.751  64.207  1.00  0.00    -0.319 A  
HETATM    8  N   UNL     1     -12.527  13.704  63.755  1.00  0.00    -0.727 NA 
HETATM    9  N   UNL     1     -10.298  16.038  65.293  1.00  0.00    -0.533 NA 
HETATM   10  C   UNL     1     -12.045  12.561  64.273  1.00  0.00    -0.428 A  
HETATM   11  C   UNL     1     -11.113  16.804  64.586  1.00  0.00     0.076 A  
HETATM   12  H   UNL     1      -9.513  16.335  65.873  1.00  0.00     0.000 HD 
HETATM   13  N   UNL     1     -11.018  12.394  65.134  1.00  0.00    -0.292 NA 
HETATM   14  C   UNL     1     -10.743  14.744  65.072  1.00  0.00    -0.433 A  
HETATM   15  N   UNL     1     -12.045  16.067  63.910  1.00  0.00    -0.819 NA 
ENDBRANCH   4   6
ENDBRANCH   1   4
BRANCH   1  16
HETATM   16  C   UNL     1     -10.304  12.271  68.439  1.00  0.00    -0.224 C  
HETATM   17  O   UNL     1     -12.143  10.241  70.757  1.00  0.00    -0.298 OA 
HETATM   18  N   UNL     1     -10.691  13.469  68.780  1.00  0.00    -0.250 NA 
HETATM   19  C   UNL     1     -11.667  13.622  69.770  1.00  0.00    -0.297 A  
HETATM   20  N   UNL     1     -10.809  11.125  69.054  1.00  0.00    -0.218 N  
HETATM   21  C   UNL     1     -11.697  11.207  70.138  1.00  0.00    -0.353 C  
HETATM   22  C   UNL     1     -12.165  14.904  70.033  1.00  0.00    -0.381 A  
HETATM   23  C   UNL     1     -12.157  12.550  70.510  1.00  0.00    -0.361 A  
HETATM   24  C   UNL     1     -13.119  15.114  71.034  1.00  0.00    -0.513 A  
HETATM   25  C   UNL     1     -13.568  14.040  71.796  1.00  0.00    -0.476 A  
HETATM   26  F   UNL     1     -13.543  11.756  72.287  1.00  0.00    -0.553 F  
HETATM   27  C   UNL     1     -13.085  12.763  71.532  1.00  0.00    -0.286 A  
BRANCH  20  28
HETATM   28  C   UNL     1     -10.453   9.806  68.639  1.00  0.00    -0.208 A  
HETATM   29  C   UNL     1     -10.881   9.291  67.409  1.00  0.00    -0.165 A  
HETATM   30  C   UNL     1     -10.471   8.019  67.002  1.00  0.00    -0.410 A  
HETATM   31  C   UNL     1      -9.644   7.253  67.820  1.00  0.00    -0.158 A  
HETATM   32  C   UNL     1      -9.257   7.736  69.067  1.00  0.00    -0.143 A  
HETATM   33  C   UNL     1      -9.678   8.997  69.485  1.00  0.00    -0.171 A  
ENDBRANCH  20  28
ENDBRANCH   1  16
TORSDOF 5
ENDMDL
MODEL       14
REMARK 921   NORMALIZED FREE ENERGY PREDICTED BY IDOCK:   -8.50 KCAL/MOL
REMARK 922        TOTAL FREE ENERGY PREDICTED BY IDOCK:  -11.05 KCAL/MOL
REMARK 923 INTER-LIGAND FREE ENERGY PREDICTED BY IDOCK:   -9.72 KCAL/MOL
REMARK 924 INTRA-LIGAND FREE ENERGY PREDICTED BY IDOCK:   -1.33 KCAL/MOL
REMARK 927      BINDING AFFINITY PREDICTED BY RF-SCORE:    0.00 PKD
ROOT
HETATM    1  C   UNL     1     -10.924  14.098  68.533  1.00  0.00    -0.254 C  
ENDROOT
BRANCH   1   2
HETATM    2  C   UNL     1     -11.217  14.249  70.039  1.00  0.00    -0.154 C  
HETATM    3  C   UNL     1     -12.672  14.065  70.438  1.00  0.00    -0.316 C  
ENDBRANCH   1   2
BRANCH   1   4
HETATM    4  N   UNL     1      -9.672  13.350  68.365  1.00  0.00    -0.269 NA 
HETATM    5  H   UNL     1      -8.789  13.859  68.397  1.00  0.00     0.000 HD 
BRANCH   4   6
HETATM    6  C   UNL     1      -9.644  11.985  68.167  1.00  0.00    -0.200 A  
HETATM    7  C   UNL     1      -8.709   9.805  68.408  1.00  0.00    -0.120 A  
HETATM    8  N   UNL     1      -9.612   9.177  67.645  1.00  0.00    -0.146 NA 
HETATM    9  N   UNL     1      -7.559  11.403  69.545  1.00  0.00    -0.356 NA 
HETATM   10  C   UNL     1     -10.515  10.055  67.175  1.00  0.00    -0.244 A  
HETATM   11  C   UNL     1      -6.968  10.229  69.696  1.00  0.00    -0.114 A  
HETATM   12  H   UNL     1      -7.274  12.298  69.945  1.00  0.00     0.000 HD 
HETATM   13  N   UNL     1     -10.580  11.388  67.380  1.00  0.00    -0.208 NA 
HETATM   14  C   UNL     1      -8.649  11.152  68.727  1.00  0.00    -0.132 A  
HETATM   15  N   UNL     1      -7.635   9.236  69.032  1.00  0.00    -0.073 NA 
ENDBRANCH   4   6
ENDBRANCH   1   4
BRANCH   1  16
HETATM   16  C   UNL     1     -10.763  15.476  67.785  1.00  0.00    -0.297 C  
HETATM   17  O   UNL     1     -11.261  16.995  64.573  1.00  0.00    -1.091 OA 
HETATM   18  N   UNL     1     -10.468  16.514  68.520  1.00  0.00    -0.282 NA 
HETATM   19  C   UNL     1     -10.348  17.771  67.919  1.00  0.00    -0.386 A  
HETATM   20  N   UNL     1     -10.996  15.581  66.413  1.00  0.00    -0.283 N  
HETATM   21  C   UNL     1     -11.015  16.826  65.767  1.00  0.00     0.044 C  
HETATM   22  C   UNL     1      -9.905  18.849  68.695  1.00  0.00    -0.463 A  
HETATM   23  C   UNL     1     -10.659  17.994  66.581  1.00  0.00    -0.268 A  
HETATM   24  C   UNL     1      -9.797  20.132  68.149  1.00  0.00    -0.460 A  
HETATM   25  C   UNL     1     -10.153  20.351  66.823  1.00  0.00    -0.478 A  
HETATM   26  F   UNL     1     -10.915  19.533  64.771  1.00  0.00    -0.052 F  
HETATM   27  C   UNL     1     -10.584  19.281  66.044  1.00  0.00    -0.461 A  
BRANCH  20  28
HETATM   28  C   UNL     1     -11.243  14.444  65.584  1.00  0.00    -0.323 A  
HETATM   29  C   UNL     1     -10.222  13.868  64.820  1.00  0.00    -0.353 A  
HETATM   30  C   UNL     1     -10.476  12.722  64.061  1.00  0.00    -0.433 A  
HETATM   31  C   UNL     1     -11.749  12.154  64.054  1.00  0.00    -0.515 A  
HETATM   32  C   UNL     1     -12.782  12.752  64.769  1.00  0.00    -0.469 A  
HETATM   33  C   UNL     1     -12.537  13.905  65.512  1.00  0.00    -0.560 A  
ENDBRANCH  20  28
ENDBRANCH   1  16
TORSDOF 5
ENDMDL
MODEL       15
REMARK 921   NORMALIZED FREE ENERGY PREDICTED BY IDOCK:   -8.35 KCAL/MOL
REMARK 922        TOTAL FREE ENERGY PREDICTED BY IDOCK:  -10.85 KCAL/MOL
REMARK 923 INTER-LIGAND FREE ENERGY PREDICTED BY IDOCK:   -9.37 KCAL/MOL
REMARK 924 INTRA-LIGAND FREE ENERGY PREDICTED BY IDOCK:   -1.48 KCAL/MOL
REMARK 927      BINDING AFFINITY PREDICTED BY RF-SCORE:    0.00 PKD
ROOT
HETATM    1  C   UNL     1     -12.531  10.995  70.769  1.00  0.00    -0.396 C  
ENDROOT
BRANCH   1   2
HETATM    2  C   UNL     1     -13.511   9.859  71.121  1.00  0.00    -0.308 C  
HETATM    3  C   UNL     1     -13.477   9.399  72.570  1.00  0.00    -0.437 C  
ENDBRANCH   1   2
BRANCH   1   4
HETATM    4  N   UNL     1     -13.285  12.248  70.634  1.00  0.00     0.397 NA 
HETATM    5  H   UNL     1     -14.106  12.263  70.030  1.00  0.00     0.000 HD 
BRANCH   4   6
HETATM    6  C   UNL     1     -12.924  13.405  71.294  1.00  0.00    -0.287 A  
HETATM    7  C   UNL     1     -11.855  15.528  71.461  1.00  0.00    -0.406 A  
HETATM    8  N   UNL     1     -12.150  15.736  72.751  1.00  0.00    -0.444 NA 
HETATM    9  N   UNL     1     -11.698  14.609  69.388  1.00  0.00    -0.298 NA 
HETATM   10  C   UNL     1     -12.853  14.699  73.239  1.00  0.00    -0.467 A  
HETATM   11  C   UNL     1     -11.057  15.767  69.418  1.00  0.00    -0.314 A  
HETATM   12  H   UNL     1     -11.804  13.978  68.593  1.00  0.00     0.000 HD 
HETATM   13  N   UNL     1     -13.243  13.573  72.607  1.00  0.00    -0.456 NA 
HETATM   14  C   UNL     1     -12.194  14.442  70.671  1.00  0.00    -0.344 A  
HETATM   15  N   UNL     1     -11.134  16.358  70.648  1.00  0.00    -0.268 NA 
ENDBRANCH   4   6
ENDBRANCH   1   4
BRANCH   1  16
HETATM   16  C   UNL     1     -11.754  10.755  69.419  1.00  0.00    -0.306 C  
HETATM   17  O   UNL     1      -9.579   8.393  67.819  1.00  0.00    -0.149 OA 
HETATM   18  N   UNL     1     -12.016  11.573  68.436  1.00  0.00    -0.562 NA 
HETATM   19  C   UNL     1     -11.386  11.390  67.201  1.00  0.00    -0.255 A  
HETATM   20  N   UNL     1     -10.885   9.674  69.272  1.00  0.00    -0.222 N  
HETATM   21  C   UNL     1     -10.314   9.357  68.030  1.00  0.00    -0.220 C  
HETATM   22  C   UNL     1     -11.576  12.349  66.198  1.00  0.00    -0.452 A  
HETATM   23  C   UNL     1     -10.582  10.288  66.927  1.00  0.00    -0.282 A  
HETATM   24  C   UNL     1     -10.992  12.196  64.937  1.00  0.00    -0.355 A  
HETATM   25  C   UNL     1     -10.228  11.067  64.661  1.00  0.00    -0.392 A  
HETATM   26  F   UNL     1      -9.283   9.045  65.352  1.00  0.00    -0.238 F  
HETATM   27  C   UNL     1     -10.027  10.117  65.657  1.00  0.00    -0.279 A  
BRANCH  20  28
HETATM   28  C   UNL     1     -10.529   8.817  70.358  1.00  0.00    -0.209 A  
HETATM   29  C   UNL     1      -9.593   9.215  71.320  1.00  0.00    -0.331 A  
HETATM   30  C   UNL     1      -9.305   8.381  72.404  1.00  0.00    -0.356 A  
HETATM   31  C   UNL     1      -9.941   7.147  72.527  1.00  0.00    -0.196 A  
HETATM   32  C   UNL     1     -10.834   6.722  71.547  1.00  0.00    -0.265 A  
HETATM   33  C   UNL     1     -11.109   7.543  70.456  1.00  0.00    -0.275 A  
ENDBRANCH  20  28
ENDBRANCH   1  16
TORSDOF 5
ENDMDL
MODEL       16
REMARK 921   NORMALIZED FREE ENERGY PREDICTED BY IDOCK:   -8.34 KCAL/MOL
REMARK 922        TOTAL FREE ENERGY PREDICTED BY IDOCK:  -10.85 KCAL/MOL
REMARK 923 INTER-LIGAND FREE ENERGY PREDICTED BY IDOCK:   -9.79 KCAL/MOL
REMARK 924 INTRA-LIGAND FREE ENERGY PREDICTED BY IDOCK:   -1.06 KCAL/MOL
REMARK 927      BINDING AFFINITY PREDICTED BY RF-SCORE:    0.00 PKD
ROOT
HETATM    1  C   UNL     1      -9.034  11.853  67.169  1.00  0.00    -0.178 C  
ENDROOT
BRANCH   1   2
HETATM    2  C   UNL     1      -7.607  11.980  67.737  1.00  0.00    -0.130 C  
HETATM    3  C   UNL     1      -6.914  10.664  68.053  1.00  0.00    -0.073 C  
ENDBRANCH   1   2
BRANCH   1   4
HETATM    4  N   UNL     1      -9.239  12.899  66.160  1.00  0.00    -0.453 NA 
HETATM    5  H   UNL     1      -8.558  13.655  66.092  1.00  0.00     0.000 HD 
BRANCH   4   6
HETATM    6  C   UNL     1     -10.318  12.899  65.300  1.00  0.00    -0.300 A  
HETATM    7  C   UNL     1     -12.068  13.942  64.062  1.00  0.00    -0.396 A  
HETATM    8  N   UNL     1     -12.595  12.811  63.578  1.00  0.00    -0.736 NA 
HETATM    9  N   UNL     1     -10.744  15.426  65.164  1.00  0.00    -0.414 NA 
HETATM   10  C   UNL     1     -11.899  11.748  64.019  1.00  0.00    -0.306 A  
HETATM   11  C   UNL     1     -11.710  16.069  64.527  1.00  0.00    -0.127 A  
HETATM   12  H   UNL     1     -10.000  15.830  65.733  1.00  0.00     0.000 HD 
HETATM   13  N   UNL     1     -10.824  11.725  64.834  1.00  0.00    -0.291 NA 
HETATM   14  C   UNL     1     -10.966  14.087  64.889  1.00  0.00    -0.392 A  
HETATM   15  N   UNL     1     -12.527  15.211  63.844  1.00  0.00    -0.711 NA 
ENDBRANCH   4   6
ENDBRANCH   1   4
BRANCH   1  16
HETATM   16  C   UNL     1     -10.159  12.013  68.261  1.00  0.00    -0.201 C  
HETATM   17  O   UNL     1     -12.002  10.114  70.685  1.00  0.00    -0.289 OA 
HETATM   18  N   UNL     1     -10.534  13.230  68.546  1.00  0.00    -0.251 NA 
HETATM   19  C   UNL     1     -11.503  13.440  69.533  1.00  0.00    -0.244 A  
HETATM   20  N   UNL     1     -10.671  10.903  68.934  1.00  0.00    -0.201 N  
HETATM   21  C   UNL     1     -11.551  11.045  70.018  1.00  0.00    -0.344 C  
HETATM   22  C   UNL     1     -11.988  14.737  69.736  1.00  0.00    -0.368 A  
HETATM   23  C   UNL     1     -11.998  12.409  70.326  1.00  0.00    -0.371 A  
HETATM   24  C   UNL     1     -12.934  15.004  70.731  1.00  0.00    -0.442 A  
HETATM   25  C   UNL     1     -13.388  13.972  71.547  1.00  0.00    -0.422 A  
HETATM   26  F   UNL     1     -13.380  11.714  72.148  1.00  0.00    -0.592 F  
HETATM   27  C   UNL     1     -12.917  12.680  71.342  1.00  0.00    -0.258 A  
BRANCH  20  28
HETATM   28  C   UNL     1     -10.329   9.562  68.581  1.00  0.00    -0.205 A  
HETATM   29  C   UNL     1      -9.603   8.744  69.455  1.00  0.00    -0.167 A  
HETATM   30  C   UNL     1      -9.331   7.417  69.109  1.00  0.00    -0.146 A  
HETATM   31  C   UNL     1      -9.770   6.906  67.889  1.00  0.00    -0.136 A  
HETATM   32  C   UNL     1     -10.446   7.729  66.992  1.00  0.00    -0.419 A  
HETATM   33  C   UNL     1     -10.704   9.057  67.327  1.00  0.00    -0.222 A  
ENDBRANCH  20  28
ENDBRANCH   1  16
TORSDOF 5
ENDMDL
MODEL       17
REMARK 921   NORMALIZED FREE ENERGY PREDICTED BY IDOCK:   -8.26 KCAL/MOL
REMARK 922        TOTAL FREE ENERGY PREDICTED BY IDOCK:  -10.75 KCAL/MOL
REMARK 923 INTER-LIGAND FREE ENERGY PREDICTED BY IDOCK:   -9.71 KCAL/MOL
REMARK 924 INTRA-LIGAND FREE ENERGY PREDICTED BY IDOCK:   -1.04 KCAL/MOL
REMARK 927      BINDING AFFINITY PREDICTED BY RF-SCORE:    0.00 PKD
ROOT
HETATM    1  C   UNL     1     -10.727  10.025  68.824  1.00  0.00    -0.223 C  
ENDROOT
BRANCH   1   2
HETATM    2  C   UNL     1      -9.221  10.299  68.646  1.00  0.00    -0.159 C  
HETATM    3  C   UNL     1      -8.347   9.919  69.830  1.00  0.00    -0.200 C  
ENDBRANCH   1   2
BRANCH   1   4
HETATM    4  N   UNL     1     -11.351   9.918  67.499  1.00  0.00    -0.438 NA 
HETATM    5  H   UNL     1     -12.222   9.397  67.408  1.00  0.00     0.000 HD 
BRANCH   4   6
HETATM    6  C   UNL     1     -10.802  10.496  66.372  1.00  0.00    -0.024 A  
HETATM    7  C   UNL     1     -10.610  12.204  64.721  1.00  0.00    -0.296 A  
HETATM    8  N   UNL     1      -9.673  11.590  63.988  1.00  0.00    -0.238 NA 
HETATM    9  N   UNL     1     -12.130  12.692  66.340  1.00  0.00    -0.565 NA 
HETATM   10  C   UNL     1      -9.354  10.406  64.539  1.00  0.00    -0.264 A  
HETATM   11  C   UNL     1     -12.099  13.665  65.442  1.00  0.00    -0.403 A  
HETATM   12  H   UNL     1     -12.708  12.640  67.179  1.00  0.00     0.000 HD 
HETATM   13  N   UNL     1      -9.854   9.834  65.655  1.00  0.00    -0.296 NA 
HETATM   14  C   UNL     1     -11.207  11.762  65.890  1.00  0.00    -0.290 A  
HETATM   15  N   UNL     1     -11.189  13.413  64.452  1.00  0.00    -0.372 NA 
ENDBRANCH   4   6
ENDBRANCH   1   4
BRANCH   1  16
HETATM   16  C   UNL     1     -11.481  11.158  69.619  1.00  0.00    -0.310 C  
HETATM   17  O   UNL     1     -13.471  11.667  72.560  1.00  0.00    -0.139 OA 
HETATM   18  N   UNL     1     -11.278  12.386  69.227  1.00  0.00    -0.229 NA 
HETATM   19  C   UNL     1     -11.890  13.439  69.915  1.00  0.00    -0.315 A  
HETATM   20  N   UNL     1     -12.267  10.854  70.730  1.00  0.00    -0.353 N  
HETATM   21  C   UNL     1     -12.810  11.863  71.541  1.00  0.00    -0.316 C  
HETATM   22  C   UNL     1     -11.769  14.737  69.406  1.00  0.00    -0.358 A  
HETATM   23  C   UNL     1     -12.609  13.246  71.091  1.00  0.00    -0.412 A  
HETATM   24  C   UNL     1     -12.337  15.827  70.074  1.00  0.00    -0.248 A  
HETATM   25  C   UNL     1     -13.015  15.627  71.272  1.00  0.00    -0.556 A  
HETATM   26  F   UNL     1     -13.808  14.186  72.932  1.00  0.00    -0.537 F  
HETATM   27  C   UNL     1     -13.147  14.337  71.776  1.00  0.00    -0.359 A  
BRANCH  20  28
HETATM   28  C   UNL     1     -12.561   9.513  71.124  1.00  0.00    -0.301 A  
HETATM   29  C   UNL     1     -13.850   8.983  70.993  1.00  0.00    -0.012 A  
HETATM   30  C   UNL     1     -14.098   7.651  71.332  1.00  0.00    -0.479 A  
HETATM   31  C   UNL     1     -13.066   6.846  71.813  1.00  0.00    -0.302 A  
HETATM   32  C   UNL     1     -11.793   7.380  71.996  1.00  0.00    -0.335 A  
HETATM   33  C   UNL     1     -11.547   8.714  71.675  1.00  0.00    -0.379 A  
ENDBRANCH  20  28
ENDBRANCH   1  16
TORSDOF 5
ENDMDL
MODEL       18
REMARK 921   NORMALIZED FREE ENERGY PREDICTED BY IDOCK:   -8.22 KCAL/MOL
REMARK 922        TOTAL FREE ENERGY PREDICTED BY IDOCK:  -10.69 KCAL/MOL
REMARK 923 INTER-LIGAND FREE ENERGY PREDICTED BY IDOCK:   -9.39 KCAL/MOL
REMARK 924 INTRA-LIGAND FREE ENERGY PREDICTED BY IDOCK:   -1.29 KCAL/MOL
REMARK 927      BINDING AFFINITY PREDICTED BY RF-SCORE:    0.00 PKD
ROOT
HETATM    1  C   UNL     1      -9.538  14.462  67.642  1.00  0.00    -0.214 C  
ENDROOT
BRANCH   1   2
HETATM    2  C   UNL     1      -8.159  14.775  68.256  1.00  0.00    -0.139 C  
HETATM    3  C   UNL     1      -7.011  13.921  67.743  1.00  0.00    -0.181 C  
ENDBRANCH   1   2
BRANCH   1   4
HETATM    4  N   UNL     1     -10.036  15.662  66.958  1.00  0.00    -0.248 NA 
HETATM    5  H   UNL     1     -10.982  15.650  66.576  1.00  0.00     0.000 HD 
BRANCH   4   6
HETATM    6  C   UNL     1      -9.275  16.803  66.811  1.00  0.00    -0.243 A  
HETATM    7  C   UNL     1      -8.682  19.058  67.306  1.00  0.00    -0.278 A  
HETATM    8  N   UNL     1      -7.706  19.152  66.395  1.00  0.00    -0.265 NA 
HETATM    9  N   UNL     1     -10.377  18.274  68.603  1.00  0.00    -0.394 NA 
HETATM   10  C   UNL     1      -7.582  17.993  65.724  1.00  0.00    -0.035 A  
HETATM   11  C   UNL     1     -10.123  19.537  68.907  1.00  0.00    -0.401 A  
HETATM   12  H   UNL     1     -11.077  17.662  69.023  1.00  0.00     0.000 HD 
HETATM   13  N   UNL     1      -8.294  16.856  65.870  1.00  0.00    -0.485 NA 
HETATM   14  C   UNL     1      -9.485  17.965  67.588  1.00  0.00    -0.260 A  
HETATM   15  N   UNL     1      -9.102  20.045  68.153  1.00  0.00    -0.265 NA 
ENDBRANCH   4   6
ENDBRANCH   1   4
BRANCH   1  16
HETATM   16  C   UNL     1     -10.617  14.035  68.708  1.00  0.00    -0.251 C  
HETATM   17  O   UNL     1     -12.019  11.122  70.264  1.00  0.00    -0.314 OA 
HETATM   18  N   UNL     1     -11.159  14.991  69.412  1.00  0.00    -0.264 NA 
HETATM   19  C   UNL     1     -12.097  14.673  70.400  1.00  0.00    -0.319 A  
HETATM   20  N   UNL     1     -10.916  12.690  68.929  1.00  0.00    -0.243 N  
HETATM   21  C   UNL     1     -11.752  12.290  69.983  1.00  0.00    -0.242 C  
HETATM   22  C   UNL     1     -12.765  15.714  71.056  1.00  0.00    -0.517 A  
HETATM   23  C   UNL     1     -12.386  13.360  70.761  1.00  0.00    -0.433 A  
HETATM   24  C   UNL     1     -13.689  15.448  72.071  1.00  0.00    -0.613 A  
HETATM   25  C   UNL     1     -13.936  14.134  72.454  1.00  0.00    -0.613 A  
HETATM   26  F   UNL     1     -13.550  11.844  72.196  1.00  0.00    -0.531 F  
HETATM   27  C   UNL     1     -13.283  13.096  71.799  1.00  0.00    -0.403 A  
BRANCH  20  28
HETATM   28  C   UNL     1     -10.391  11.640  68.117  1.00  0.00    -0.194 A  
HETATM   29  C   UNL     1     -11.012  11.268  66.919  1.00  0.00    -0.348 A  
HETATM   30  C   UNL     1     -10.445  10.276  66.114  1.00  0.00    -0.200 A  
HETATM   31  C   UNL     1      -9.265   9.645  66.505  1.00  0.00    -0.197 A  
HETATM   32  C   UNL     1      -8.670   9.972  67.721  1.00  0.00    -0.125 A  
HETATM   33  C   UNL     1      -9.243  10.948  68.534  1.00  0.00    -0.181 A  
ENDBRANCH  20  28
ENDBRANCH   1  16
TORSDOF 5
ENDMDL
MODEL       19
REMARK 921   NORMALIZED FREE ENERGY PREDICTED BY IDOCK:   -8.18 KCAL/MOL
REMARK 922        TOTAL FREE ENERGY PREDICTED BY IDOCK:  -10.64 KCAL/MOL
REMARK 923 INTER-LIGAND FREE ENERGY PREDICTED BY IDOCK:   -9.09 KCAL/MOL
REMARK 924 INTRA-LIGAND FREE ENERGY PREDICTED BY IDOCK:   -1.55 KCAL/MOL
REMARK 927      BINDING AFFINITY PREDICTED BY RF-SCORE:    0.00 PKD
ROOT
HETATM    1  C   UNL     1     -11.833  11.518  69.887  1.00  0.00    -0.355 C  
ENDROOT
BRANCH   1   2
HETATM    2  C   UNL     1     -12.544  10.246  70.390  1.00  0.00    -0.277 C  
HETATM    3  C   UNL     1     -12.168   9.805  71.795  1.00  0.00    -0.449 C  
ENDBRANCH   1   2
BRANCH   1   4
HETATM    4  N   UNL     1     -12.760  12.652  69.989  1.00  0.00     0.197 NA 
HETATM    5  H   UNL     1     -13.695  12.559  69.591  1.00  0.00     0.000 HD 
BRANCH   4   6
HETATM    6  C   UNL     1     -12.416  13.839  70.603  1.00  0.00    -0.359 A  
HETATM    7  C   UNL     1     -11.420  16.004  70.670  1.00  0.00    -0.402 A  
HETATM    8  N   UNL     1     -11.669  16.236  71.965  1.00  0.00    -0.499 NA 
HETATM    9  N   UNL     1     -11.314  15.034  68.617  1.00  0.00    -0.281 NA 
HETATM   10  C   UNL     1     -12.313  15.188  72.510  1.00  0.00    -0.370 A  
HETATM   11  C   UNL     1     -10.716  16.214  68.590  1.00  0.00    -0.295 A  
HETATM   12  H   UNL     1     -11.429  14.378  67.844  1.00  0.00     0.000 HD 
HETATM   13  N   UNL     1     -12.686  14.032  71.923  1.00  0.00    -0.319 NA 
HETATM   14  C   UNL     1     -11.750  14.885  69.923  1.00  0.00    -0.305 A  
HETATM   15  N   UNL     1     -10.764  16.835  69.807  1.00  0.00    -0.281 NA 
ENDBRANCH   4   6
ENDBRANCH   1   4
BRANCH   1  16
HETATM   16  C   UNL     1     -11.359  11.420  68.388  1.00  0.00    -0.281 C  
HETATM   17  O   UNL     1      -9.197   9.513  66.252  1.00  0.00    -0.153 OA 
HETATM   18  N   UNL     1     -11.995  12.159  67.520  1.00  0.00    -0.553 NA 
HETATM   19  C   UNL     1     -11.645  12.088  66.167  1.00  0.00    -0.304 A  
HETATM   20  N   UNL     1     -10.354  10.529  68.008  1.00  0.00    -0.172 N  
HETATM   21  C   UNL     1     -10.037  10.316  66.659  1.00  0.00    -0.223 C  
HETATM   22  C   UNL     1     -12.245  12.979  65.269  1.00  0.00    -0.513 A  
HETATM   23  C   UNL     1     -10.729  11.162  65.679  1.00  0.00    -0.250 A  
HETATM   24  C   UNL     1     -11.952  12.928  63.902  1.00  0.00    -0.550 A  
HETATM   25  C   UNL     1     -11.067  11.969  63.420  1.00  0.00    -0.476 A  
HETATM   26  F   UNL     1      -9.614  10.180  63.807  1.00  0.00    -0.301 F  
HETATM   27  C   UNL     1     -10.461  11.088  64.310  1.00  0.00    -0.359 A  
BRANCH  20  28
HETATM   28  C   UNL     1      -9.597   9.773  68.954  1.00  0.00    -0.167 A  
HETATM   29  C   UNL     1      -8.482  10.322  69.597  1.00  0.00    -0.132 A  
HETATM   30  C   UNL     1      -7.793   9.580  70.560  1.00  0.00    -0.182 A  
HETATM   31  C   UNL     1      -8.206   8.287  70.878  1.00  0.00    -0.123 A  
HETATM   32  C   UNL     1      -9.283   7.715  70.205  1.00  0.00    -0.157 A  
HETATM   33  C   UNL     1      -9.961   8.446  69.231  1.00  0.00    -0.195 A  
ENDBRANCH  20  28
ENDBRANCH   1  16
TORSDOF 5
ENDMDL
MODEL       20
REMARK 921   NORMALIZED FREE ENERGY PREDICTED BY IDOCK:   -8.18 KCAL/MOL
REMARK 922        TOTAL FREE ENERGY PREDICTED BY IDOCK:  -10.63 KCAL/MOL
REMARK 923 INTER-LIGAND FREE ENERGY PREDICTED BY IDOCK:   -9.39 KCAL/MOL
REMARK 924 INTRA-LIGAND FREE ENERGY PREDICTED BY IDOCK:   -1.24 KCAL/MOL
REMARK 927      BINDING AFFINITY PREDICTED BY RF-SCORE:    0.00 PKD
ROOT
HETATM    1  C   UNL     1     -11.453  14.335  67.341  1.00  0.00    -0.347 C  
ENDROOT
BRANCH   1   2
HETATM    2  C   UNL     1     -12.403  14.168  66.139  1.00  0.00    -0.463 C  
HETATM    3  C   UNL     1     -12.160  12.932  65.287  1.00  0.00    -0.496 C  
ENDBRANCH   1   2
BRANCH   1   4
HETATM    4  N   UNL     1     -12.238  14.736  68.515  1.00  0.00    -0.605 NA 
HETATM    5  H   UNL     1     -12.608  15.686  68.556  1.00  0.00     0.000 HD 
BRANCH   4   6
HETATM    6  C   UNL     1     -12.493  13.878  69.565  1.00  0.00    -0.095 A  
HETATM    7  C   UNL     1     -13.352  13.329  71.720  1.00  0.00    -0.393 A  
HETATM    8  N   UNL     1     -12.914  12.064  71.730  1.00  0.00    -0.389 NA 
HETATM    9  N   UNL     1     -13.804  15.468  71.095  1.00  0.00    -0.762 NA 
HETATM   10  C   UNL     1     -12.262  11.788  70.587  1.00  0.00    -0.349 A  
HETATM   11  C   UNL     1     -14.279  15.242  72.310  1.00  0.00    -0.547 A  
HETATM   12  H   UNL     1     -13.864  16.331  70.555  1.00  0.00     0.000 HD 
HETATM   13  N   UNL     1     -12.026  12.600  69.535  1.00  0.00    -0.297 NA 
HETATM   14  C   UNL     1     -13.208  14.275  70.718  1.00  0.00    -0.197 A  
HETATM   15  N   UNL     1     -14.034  13.962  72.721  1.00  0.00    -0.658 NA 
ENDBRANCH   4   6
ENDBRANCH   1   4
BRANCH   1  16
HETATM   16  C   UNL     1     -10.340  15.428  67.112  1.00  0.00    -0.271 C  
HETATM   17  O   UNL     1      -6.805  15.763  66.600  1.00  0.00    -0.162 OA 
HETATM   18  N   UNL     1     -10.750  16.649  66.901  1.00  0.00    -0.217 NA 
HETATM   19  C   UNL     1      -9.812  17.657  66.655  1.00  0.00    -0.309 A  
HETATM   20  N   UNL     1      -8.990  15.081  67.068  1.00  0.00    -0.219 N  
HETATM   21  C   UNL     1      -8.006  16.013  66.705  1.00  0.00    -0.267 C  
HETATM   22  C   UNL     1     -10.255  18.982  66.561  1.00  0.00    -0.487 A  
HETATM   23  C   UNL     1      -8.455  17.394  66.493  1.00  0.00    -0.298 A  
HETATM   24  C   UNL     1      -9.362  20.022  66.286  1.00  0.00    -0.456 A  
HETATM   25  C   UNL     1      -8.015  19.740  66.082  1.00  0.00    -0.351 A  
HETATM   26  F   UNL     1      -6.263  18.197  65.983  1.00  0.00    -0.187 F  
HETATM   27  C   UNL     1      -7.567  18.427  66.185  1.00  0.00    -0.235 A  
BRANCH  20  28
HETATM   28  C   UNL     1      -8.521  13.766  67.372  1.00  0.00    -0.202 A  
HETATM   29  C   UNL     1      -8.014  13.451  68.638  1.00  0.00    -0.056 A  
HETATM   30  C   UNL     1      -7.616  12.143  68.927  1.00  0.00     0.003 A  
HETATM   31  C   UNL     1      -7.711  11.149  67.955  1.00  0.00    -0.105 A  
HETATM   32  C   UNL     1      -8.165  11.467  66.677  1.00  0.00    -0.163 A  
HETATM   33  C   UNL     1      -8.546  12.773  66.380  1.00  0.00     0.187 A  
ENDBRANCH  20  28
ENDBRANCH   1  16
TORSDOF 5
ENDMDL
MODEL       21
REMARK 921   NORMALIZED FREE ENERGY PREDICTED BY IDOCK:   -8.16 KCAL/MOL
REMARK 922        TOTAL FREE ENERGY PREDICTED BY IDOCK:  -10.62 KCAL/MOL
REMARK 923 INTER-LIGAND FREE ENERGY PREDICTED BY IDOCK:   -9.23 KCAL/MOL
REMARK 924 INTRA-LIGAND FREE ENERGY PREDICTED BY IDOCK:   -1.39 KCAL/MOL
REMARK 927      BINDING AFFINITY PREDICTED BY RF-SCORE:    0.00 PKD
ROOT
HETATM    1  C   UNL     1      -9.736  13.043  67.707  1.00  0.00    -0.218 C  
ENDROOT
BRANCH   1   2
HETATM    2  C   UNL     1      -8.451  13.574  68.374  1.00  0.00    -0.143 C  
HETATM    3  C   UNL     1      -7.623  14.524  67.524  1.00  0.00    -0.211 C  
ENDBRANCH   1   2
BRANCH   1   4
HETATM    4  N   UNL     1     -10.710  14.138  67.615  1.00  0.00    -0.256 NA 
HETATM    5  H   UNL     1     -11.143  14.481  68.473  1.00  0.00     0.000 HD 
BRANCH   4   6
HETATM    6  C   UNL     1     -11.063  14.719  66.415  1.00  0.00    -0.340 A  
HETATM    7  C   UNL     1     -12.011  14.707  64.228  1.00  0.00    -0.386 A  
HETATM    8  N   UNL     1     -11.689  15.970  63.925  1.00  0.00    -0.740 NA 
HETATM    9  N   UNL     1     -12.258  12.728  65.321  1.00  0.00    -0.464 NA 
HETATM   10  C   UNL     1     -11.040  16.544  64.954  1.00  0.00    -0.190 A  
HETATM   11  C   UNL     1     -12.776  12.641  64.106  1.00  0.00    -0.281 A  
HETATM   12  H   UNL     1     -12.230  12.003  66.038  1.00  0.00     0.000 HD 
HETATM   13  N   UNL     1     -10.711  16.006  66.147  1.00  0.00    -0.283 NA 
HETATM   14  C   UNL     1     -11.763  14.020  65.405  1.00  0.00    -0.342 A  
HETATM   15  N   UNL     1     -12.655  13.815  63.416  1.00  0.00    -0.789 NA 
ENDBRANCH   4   6
ENDBRANCH   1   4
BRANCH   1  16
HETATM   16  C   UNL     1     -10.413  11.863  68.501  1.00  0.00    -0.224 C  
HETATM   17  O   UNL     1     -10.334   8.290  68.818  1.00  0.00    -0.208 OA 
HETATM   18  N   UNL     1     -11.199  12.194  69.490  1.00  0.00    -0.181 NA 
HETATM   19  C   UNL     1     -11.801  11.191  70.257  1.00  0.00    -0.366 A  
HETATM   20  N   UNL     1     -10.123  10.533  68.198  1.00  0.00    -0.154 N  
HETATM   21  C   UNL     1     -10.591   9.480  68.999  1.00  0.00    -0.219 C  
HETATM   22  C   UNL     1     -12.740  11.557  71.228  1.00  0.00    -0.469 A  
HETATM   23  C   UNL     1     -11.496   9.842  70.096  1.00  0.00    -0.309 A  
HETATM   24  C   UNL     1     -13.348  10.595  72.041  1.00  0.00    -0.409 A  
HETATM   25  C   UNL     1     -13.002   9.254  71.901  1.00  0.00    -0.489 A  
HETATM   26  F   UNL     1     -11.772   7.583  70.826  1.00  0.00    -0.294 F  
HETATM   27  C   UNL     1     -12.077   8.884  70.930  1.00  0.00    -0.177 A  
BRANCH  20  28
HETATM   28  C   UNL     1      -9.328  10.154  67.073  1.00  0.00    -0.154 A  
HETATM   29  C   UNL     1      -7.948   9.956  67.193  1.00  0.00    -0.109 A  
HETATM   30  C   UNL     1      -7.203   9.531  66.090  1.00  0.00    -0.093 A  
HETATM   31  C   UNL     1      -7.828   9.311  64.864  1.00  0.00    -0.116 A  
HETATM   32  C   UNL     1      -9.191   9.556  64.724  1.00  0.00    -0.267 A  
HETATM   33  C   UNL     1      -9.934   9.998  65.817  1.00  0.00    -0.346 A  
ENDBRANCH  20  28
ENDBRANCH   1  16
TORSDOF 5
ENDMDL
MODEL       22
REMARK 921   NORMALIZED FREE ENERGY PREDICTED BY IDOCK:   -8.15 KCAL/MOL
REMARK 922        TOTAL FREE ENERGY PREDICTED BY IDOCK:  -10.61 KCAL/MOL
REMARK 923 INTER-LIGAND FREE ENERGY PREDICTED BY IDOCK:   -9.64 KCAL/MOL
REMARK 924 INTRA-LIGAND FREE ENERGY PREDICTED BY IDOCK:   -0.96 KCAL/MOL
REMARK 927      BINDING AFFINITY PREDICTED BY RF-SCORE:    0.00 PKD
ROOT
HETATM    1  C   UNL     1      -9.586  13.373  67.571  1.00  0.00    -0.221 C  
ENDROOT
BRANCH   1   2
HETATM    2  C   UNL     1      -8.195  12.876  68.012  1.00  0.00    -0.168 C  
HETATM    3  C   UNL     1      -7.464  12.010  66.998  1.00  0.00    -0.106 C  
ENDBRANCH   1   2
BRANCH   1   4
HETATM    4  N   UNL     1      -9.498  14.801  67.242  1.00  0.00    -0.210 NA 
HETATM    5  H   UNL     1      -8.905  15.400  67.816  1.00  0.00     0.000 HD 
BRANCH   4   6
HETATM    6  C   UNL     1     -10.188  15.364  66.188  1.00  0.00    -0.308 A  
HETATM    7  C   UNL     1     -11.058  17.194  64.933  1.00  0.00     0.272 A  
HETATM    8  N   UNL     1     -11.700  16.452  64.023  1.00  0.00    -1.045 NA 
HETATM    9  N   UNL     1      -9.799  17.846  66.711  1.00  0.00    -0.316 NA 
HETATM   10  C   UNL     1     -11.524  15.144  64.282  1.00  0.00    -0.136 A  
HETATM   11  C   UNL     1     -10.275  18.909  66.081  1.00  0.00    -0.433 A  
HETATM   12  H   UNL     1      -9.199  17.830  67.535  1.00  0.00     0.000 HD 
HETATM   13  N   UNL     1     -10.830  14.571  65.287  1.00  0.00    -0.342 NA 
HETATM   14  C   UNL     1     -10.295  16.762  66.005  1.00  0.00    -0.335 A  
HETATM   15  N   UNL     1     -11.034  18.560  64.998  1.00  0.00    -0.372 NA 
ENDBRANCH   4   6
ENDBRANCH   1   4
BRANCH   1  16
HETATM   16  C   UNL     1     -10.692  13.203  68.680  1.00  0.00    -0.250 C  
HETATM   17  O   UNL     1     -12.237  10.702  70.737  1.00  0.00    -0.309 OA 
HETATM   18  N   UNL     1     -11.198  14.298  69.179  1.00  0.00    -0.260 NA 
HETATM   19  C   UNL     1     -12.158  14.213  70.194  1.00  0.00    -0.346 A  
HETATM   20  N   UNL     1     -11.054  11.939  69.148  1.00  0.00    -0.238 N  
HETATM   21  C   UNL     1     -11.915  11.783  70.244  1.00  0.00    -0.343 C  
HETATM   22  C   UNL     1     -12.785  15.388  70.627  1.00  0.00    -0.490 A  
HETATM   23  C   UNL     1     -12.509  13.008  70.793  1.00  0.00    -0.384 A  
HETATM   24  C   UNL     1     -13.729  15.360  71.659  1.00  0.00    -0.606 A  
HETATM   25  C   UNL     1     -14.038  14.155  72.281  1.00  0.00    -0.630 A  
HETATM   26  F   UNL     1     -13.752  11.844  72.470  1.00  0.00    -0.471 F  
HETATM   27  C   UNL     1     -13.426  12.984  71.846  1.00  0.00    -0.408 A  
BRANCH  20  28
HETATM   28  C   UNL     1     -10.567  10.732  68.560  1.00  0.00    -0.195 A  
HETATM   29  C   UNL     1      -9.585   9.961  69.191  1.00  0.00    -0.204 A  
HETATM   30  C   UNL     1      -9.168   8.754  68.622  1.00  0.00    -0.141 A  
HETATM   31  C   UNL     1      -9.720   8.318  67.419  1.00  0.00    -0.225 A  
HETATM   32  C   UNL     1     -10.659   9.106  66.758  1.00  0.00    -0.207 A  
HETATM   33  C   UNL     1     -11.064  10.318  67.314  1.00  0.00    -0.215 A  
ENDBRANCH  20  28
ENDBRANCH   1  16
TORSDOF 5
ENDMDL
MODEL       23
REMARK 921   NORMALIZED FREE ENERGY PREDICTED BY IDOCK:   -8.15 KCAL/MOL
REMARK 922        TOTAL FREE ENERGY PREDICTED BY IDOCK:  -10.60 KCAL/MOL
REMARK 923 INTER-LIGAND FREE ENERGY PREDICTED BY IDOCK:   -9.20 KCAL/MOL
REMARK 924 INTRA-LIGAND FREE ENERGY PREDICTED BY IDOCK:   -1.40 KCAL/MOL
REMARK 927      BINDING AFFINITY PREDICTED BY RF-SCORE:    0.00 PKD
ROOT
HETATM    1  C   UNL     1     -10.463  12.760  68.086  1.00  0.00    -0.236 C  
ENDROOT
BRANCH   1   2
HETATM    2  C   UNL     1      -9.798  13.809  68.999  1.00  0.00     0.091 C  
HETATM    3  C   UNL     1     -10.695  14.959  69.427  1.00  0.00    -0.264 C  
ENDBRANCH   1   2
BRANCH   1   4
HETATM    4  N   UNL     1     -11.719  13.312  67.564  1.00  0.00    -0.348 NA 
HETATM    5  H   UNL     1     -12.454  13.566  68.225  1.00  0.00     0.000 HD 
BRANCH   4   6
HETATM    6  C   UNL     1     -11.944  13.501  66.216  1.00  0.00    -0.413 A  
HETATM    7  C   UNL     1     -11.955  14.785  64.207  1.00  0.00    -0.368 A  
HETATM    8  N   UNL     1     -12.512  13.841  63.438  1.00  0.00    -0.803 NA 
HETATM    9  N   UNL     1     -11.071  15.903  65.979  1.00  0.00    -0.123 NA 
HETATM   10  C   UNL     1     -12.755  12.734  64.162  1.00  0.00    -0.226 A  
HETATM   11  C   UNL     1     -11.076  16.683  64.909  1.00  0.00    -0.129 A  
HETATM   12  H   UNL     1     -10.728  16.131  66.912  1.00  0.00     0.000 HD 
HETATM   13  N   UNL     1     -12.516  12.516  65.472  1.00  0.00    -0.635 NA 
HETATM   14  C   UNL     1     -11.633  14.710  65.553  1.00  0.00    -0.335 A  
HETATM   15  N   UNL     1     -11.594  16.044  63.817  1.00  0.00    -0.658 NA 
ENDBRANCH   4   6
ENDBRANCH   1   4
BRANCH   1  16
HETATM   16  C   UNL     1     -10.803  11.411  68.826  1.00  0.00    -0.208 C  
HETATM   17  O   UNL     1      -9.916   7.934  68.861  1.00  0.00    -0.180 OA 
HETATM   18  N   UNL     1     -11.566  11.494  69.881  1.00  0.00    -0.312 NA 
HETATM   19  C   UNL     1     -11.874  10.336  70.602  1.00  0.00    -0.347 A  
HETATM   20  N   UNL     1     -10.250  10.201  68.404  1.00  0.00    -0.162 N  
HETATM   21  C   UNL     1     -10.415   9.023  69.148  1.00  0.00    -0.225 C  
HETATM   22  C   UNL     1     -12.797  10.421  71.652  1.00  0.00    -0.579 A  
HETATM   23  C   UNL     1     -11.293   9.103  70.321  1.00  0.00    -0.217 A  
HETATM   24  C   UNL     1     -13.115   9.298  72.423  1.00  0.00    -0.481 A  
HETATM   25  C   UNL     1     -12.494   8.081  72.160  1.00  0.00    -0.335 A  
HETATM   26  F   UNL     1     -11.010   6.799  70.890  1.00  0.00    -0.251 F  
HETATM   27  C   UNL     1     -11.585   7.989  71.111  1.00  0.00    -0.282 A  
BRANCH  20  28
HETATM   28  C   UNL     1      -9.478  10.081  67.209  1.00  0.00    -0.154 A  
HETATM   29  C   UNL     1     -10.084   9.806  65.977  1.00  0.00    -0.322 A  
HETATM   30  C   UNL     1      -9.312   9.750  64.814  1.00  0.00    -0.327 A  
HETATM   31  C   UNL     1      -7.935   9.958  64.875  1.00  0.00    -0.138 A  
HETATM   32  C   UNL     1      -7.318  10.179  66.104  1.00  0.00    -0.115 A  
HETATM   33  C   UNL     1      -8.082  10.218  67.268  1.00  0.00    -0.120 A  
ENDBRANCH  20  28
ENDBRANCH   1  16
TORSDOF 5
ENDMDL
MODEL       24
REMARK 921   NORMALIZED FREE ENERGY PREDICTED BY IDOCK:   -8.02 KCAL/MOL
REMARK 922        TOTAL FREE ENERGY PREDICTED BY IDOCK:  -10.43 KCAL/MOL
REMARK 923 INTER-LIGAND FREE ENERGY PREDICTED BY IDOCK:   -9.49 KCAL/MOL
REMARK 924 INTRA-LIGAND FREE ENERGY PREDICTED BY IDOCK:   -0.94 KCAL/MOL
REMARK 927      BINDING AFFINITY PREDICTED BY RF-SCORE:    0.00 PKD
ROOT
HETATM    1  C   UNL     1     -11.716  11.781  69.759  1.00  0.00    -0.335 C  
ENDROOT
BRANCH   1   2
HETATM    2  C   UNL     1     -12.444  10.539  70.311  1.00  0.00    -0.345 C  
HETATM    3  C   UNL     1     -12.922  10.654  71.750  1.00  0.00    -0.577 C  
ENDBRANCH   1   2
BRANCH   1   4
HETATM    4  N   UNL     1     -12.591  12.950  69.910  1.00  0.00     0.074 NA 
HETATM    5  H   UNL     1     -13.587  12.845  69.715  1.00  0.00     0.000 HD 
BRANCH   4   6
HETATM    6  C   UNL     1     -12.118  14.185  70.304  1.00  0.00    -0.342 A  
HETATM    7  C   UNL     1     -11.798  15.954  71.869  1.00  0.00    -0.506 A  
HETATM    8  N   UNL     1     -11.179  16.785  71.021  1.00  0.00     0.108 NA 
HETATM    9  N   UNL     1     -12.853  14.150  72.763  1.00  0.00    -0.385 NA 
HETATM   10  C   UNL     1     -11.070  16.215  69.808  1.00  0.00    -0.350 A  
HETATM   11  C   UNL     1     -12.738  15.102  73.674  1.00  0.00    -0.546 A  
HETATM   12  H   UNL     1     -13.274  13.228  72.878  1.00  0.00     0.000 HD 
HETATM   13  N   UNL     1     -11.497  14.999  69.407  1.00  0.00    -0.281 NA 
HETATM   14  C   UNL     1     -12.276  14.678  71.619  1.00  0.00    -0.344 A  
HETATM   15  N   UNL     1     -12.100  16.206  73.178  1.00  0.00    -0.508 NA 
ENDBRANCH   4   6
ENDBRANCH   1   4
BRANCH   1  16
HETATM   16  C   UNL     1     -11.337  11.658  68.235  1.00  0.00    -0.285 C  
HETATM   17  O   UNL     1      -9.306   9.722  65.999  1.00  0.00    -0.168 OA 
HETATM   18  N   UNL     1     -12.030  12.380  67.396  1.00  0.00    -0.520 NA 
HETATM   19  C   UNL     1     -11.765  12.287  66.026  1.00  0.00    -0.388 A  
HETATM   20  N   UNL     1     -10.354  10.765  67.808  1.00  0.00    -0.184 N  
HETATM   21  C   UNL     1     -10.121  10.529  66.444  1.00  0.00    -0.228 C  
HETATM   22  C   UNL     1     -12.425  13.160  65.152  1.00  0.00    -0.539 A  
HETATM   23  C   UNL     1     -10.877  11.356  65.496  1.00  0.00    -0.282 A  
HETATM   24  C   UNL     1     -12.218  13.088  63.771  1.00  0.00    -0.536 A  
HETATM   25  C   UNL     1     -11.361  12.123  63.250  1.00  0.00    -0.410 A  
HETATM   26  F   UNL     1      -9.879  10.346  63.574  1.00  0.00    -0.326 F  
HETATM   27  C   UNL     1     -10.696  11.260  64.115  1.00  0.00    -0.369 A  
BRANCH  20  28
HETATM   28  C   UNL     1      -9.536  10.027  68.717  1.00  0.00    -0.162 A  
HETATM   29  C   UNL     1      -8.370  10.581  69.258  1.00  0.00    -0.144 A  
HETATM   30  C   UNL     1      -7.618   9.860  70.189  1.00  0.00    -0.185 A  
HETATM   31  C   UNL     1      -8.019   8.581  70.575  1.00  0.00    -0.095 A  
HETATM   32  C   UNL     1      -9.147   8.003  70.000  1.00  0.00    -0.152 A  
HETATM   33  C   UNL     1      -9.889   8.712  69.059  1.00  0.00    -0.184 A  
ENDBRANCH  20  28
ENDBRANCH   1  16
TORSDOF 5
ENDMDL
MODEL       25
REMARK 921   NORMALIZED FREE ENERGY PREDICTED BY IDOCK:   -7.99 KCAL/MOL
REMARK 922        TOTAL FREE ENERGY PREDICTED BY IDOCK:  -10.40 KCAL/MOL
REMARK 923 INTER-LIGAND FREE ENERGY PREDICTED BY IDOCK:   -8.77 KCAL/MOL
REMARK 924 INTRA-LIGAND FREE ENERGY PREDICTED BY IDOCK:   -1.63 KCAL/MOL
REMARK 927      BINDING AFFINITY PREDICTED BY RF-SCORE:    0.00 PKD
ROOT
HETATM    1  C   UNL     1      -8.971  10.488  67.565  1.00  0.00    -0.135 C  
ENDROOT
BRANCH   1   2
HETATM    2  C   UNL     1      -7.565  10.441  68.196  1.00  0.00    -0.091 C  
HETATM    3  C   UNL     1      -6.526   9.660  67.408  1.00  0.00    -0.069 C  
ENDBRANCH   1   2
BRANCH   1   4
HETATM    4  N   UNL     1      -9.082  11.698  66.741  1.00  0.00    -0.180 NA 
HETATM    5  H   UNL     1      -8.531  12.517  66.997  1.00  0.00     0.000 HD 
BRANCH   4   6
HETATM    6  C   UNL     1      -9.903  11.769  65.635  1.00  0.00    -0.237 A  
HETATM    7  C   UNL     1     -11.832  12.509  64.445  1.00  0.00    -0.386 A  
HETATM    8  N   UNL     1     -11.593  11.804  63.333  1.00  0.00    -0.383 NA 
HETATM    9  N   UNL     1     -11.661  13.415  66.524  1.00  0.00    -0.341 NA 
HETATM   10  C   UNL     1     -10.459  11.094  63.466  1.00  0.00    -0.358 A  
HETATM   11  C   UNL     1     -12.767  13.842  65.935  1.00  0.00    -0.401 A  
HETATM   12  H   UNL     1     -11.318  13.658  67.453  1.00  0.00     0.000 HD 
HETATM   13  N   UNL     1      -9.624  11.032  64.525  1.00  0.00    -0.241 NA 
HETATM   14  C   UNL     1     -11.070  12.566  65.601  1.00  0.00    -0.303 A  
HETATM   15  N   UNL     1     -12.904  13.325  64.676  1.00  0.00    -0.701 NA 
ENDBRANCH   4   6
ENDBRANCH   1   4
BRANCH   1  16
HETATM   16  C   UNL     1     -10.134  10.524  68.629  1.00  0.00    -0.180 C  
HETATM   17  O   UNL     1     -12.029   8.369  70.782  1.00  0.00    -0.236 OA 
HETATM   18  N   UNL     1     -10.535  11.702  69.023  1.00  0.00    -0.173 NA 
HETATM   19  C   UNL     1     -11.538  11.799  69.992  1.00  0.00    -0.236 A  
HETATM   20  N   UNL     1     -10.651   9.346  69.168  1.00  0.00    -0.220 N  
HETATM   21  C   UNL     1     -11.569   9.367  70.229  1.00  0.00    -0.138 C  
HETATM   22  C   UNL     1     -12.048  13.064  70.309  1.00  0.00    -0.388 A  
HETATM   23  C   UNL     1     -12.045  10.688  70.659  1.00  0.00    -0.461 A  
HETATM   24  C   UNL     1     -13.030  13.217  71.293  1.00  0.00    -0.353 A  
HETATM   25  C   UNL     1     -13.497  12.103  71.984  1.00  0.00    -0.388 A  
HETATM   26  F   UNL     1     -13.476   9.796  72.352  1.00  0.00    -0.469 F  
HETATM   27  C   UNL     1     -13.001  10.844  71.665  1.00  0.00    -0.464 A  
BRANCH  20  28
HETATM   28  C   UNL     1     -10.279   8.051  68.692  1.00  0.00    -0.206 A  
HETATM   29  C   UNL     1      -9.347   7.265  69.380  1.00  0.00    -0.151 A  
HETATM   30  C   UNL     1      -9.043   5.980  68.925  1.00  0.00    -0.121 A  
HETATM   31  C   UNL     1      -9.657   5.478  67.778  1.00  0.00    -0.138 A  
HETATM   32  C   UNL     1     -10.545   6.274  67.059  1.00  0.00    -0.386 A  
HETATM   33  C   UNL     1     -10.837   7.563  67.500  1.00  0.00    -0.232 A  
ENDBRANCH  20  28
ENDBRANCH   1  16
TORSDOF 5
ENDMDL
MODEL       26
REMARK 921   NORMALIZED FREE ENERGY PREDICTED BY IDOCK:   -7.97 KCAL/MOL
REMARK 922        TOTAL FREE ENERGY PREDICTED BY IDOCK:  -10.37 KCAL/MOL
REMARK 923 INTER-LIGAND FREE ENERGY PREDICTED BY IDOCK:   -9.19 KCAL/MOL
REMARK 924 INTRA-LIGAND FREE ENERGY PREDICTED BY IDOCK:   -1.18 KCAL/MOL
REMARK 927      BINDING AFFINITY PREDICTED BY RF-SCORE:    0.00 PKD
ROOT
HETATM    1  C   UNL     1      -9.670  15.975  69.078  1.00  0.00    -0.244 C  
ENDROOT
BRANCH   1   2
HETATM    2  C   UNL     1      -8.137  16.093  68.974  1.00  0.00    -0.237 C  
HETATM    3  C   UNL     1      -7.361  14.854  69.394  1.00  0.00    -0.181 C  
ENDBRANCH   1   2
BRANCH   1   4
HETATM    4  N   UNL     1     -10.001  14.943  70.068  1.00  0.00    -0.465 NA 
HETATM    5  H   UNL     1      -9.440  14.092  70.095  1.00  0.00     0.000 HD 
BRANCH   4   6
HETATM    6  C   UNL     1     -11.042  15.081  70.964  1.00  0.00    -0.169 A  
HETATM    7  C   UNL     1     -12.989  14.327  72.115  1.00  0.00    -0.373 A  
HETATM    8  N   UNL     1     -13.218  15.470  72.773  1.00  0.00    -0.459 NA 
HETATM    9  N   UNL     1     -12.078  12.741  70.763  1.00  0.00    -0.491 NA 
HETATM   10  C   UNL     1     -12.283  16.384  72.457  1.00  0.00    -0.369 A  
HETATM   11  C   UNL     1     -13.170  12.267  71.343  1.00  0.00    -0.086 A  
HETATM   12  H   UNL     1     -11.460  12.256  70.114  1.00  0.00     0.000 HD 
HETATM   13  N   UNL     1     -11.240  16.263  71.609  1.00  0.00    -0.058 NA 
HETATM   14  C   UNL     1     -11.961  14.040  71.231  1.00  0.00    -0.115 A  
HETATM   15  N   UNL     1     -13.745  13.190  72.173  1.00  0.00    -0.522 NA 
ENDBRANCH   4   6
ENDBRANCH   1   4
BRANCH   1  16
HETATM   16  C   UNL     1     -10.361  15.575  67.719  1.00  0.00    -0.263 C  
HETATM   17  O   UNL     1     -11.055  16.864  64.443  1.00  0.00    -1.128 OA 
HETATM   18  N   UNL     1     -10.737  14.332  67.594  1.00  0.00    -0.256 NA 
HETATM   19  C   UNL     1     -11.324  13.907  66.397  1.00  0.00    -0.328 A  
HETATM   20  N   UNL     1     -10.494  16.499  66.682  1.00  0.00    -0.290 N  
HETATM   21  C   UNL     1     -10.958  16.114  65.415  1.00  0.00    -0.227 C  
HETATM   22  C   UNL     1     -11.839  12.607  66.324  1.00  0.00    -0.471 A  
HETATM   23  C   UNL     1     -11.408  14.724  65.274  1.00  0.00    -0.363 A  
HETATM   24  C   UNL     1     -12.408  12.125  65.141  1.00  0.00    -0.135 A  
HETATM   25  C   UNL     1     -12.446  12.936  64.011  1.00  0.00    -0.407 A  
HETATM   26  F   UNL     1     -12.001  14.982  62.973  1.00  0.00     0.919 F  
HETATM   27  C   UNL     1     -11.945  14.232  64.082  1.00  0.00    -0.373 A  
BRANCH  20  28
HETATM   28  C   UNL     1     -10.159  17.879  66.830  1.00  0.00    -0.348 A  
HETATM   29  C   UNL     1     -11.035  18.776  67.453  1.00  0.00    -0.281 A  
HETATM   30  C   UNL     1     -10.659  20.109  67.637  1.00  0.00    -0.332 A  
HETATM   31  C   UNL     1      -9.416  20.555  67.192  1.00  0.00    -0.544 A  
HETATM   32  C   UNL     1      -8.561  19.681  66.525  1.00  0.00    -0.387 A  
HETATM   33  C   UNL     1      -8.940  18.356  66.324  1.00  0.00    -0.205 A  
ENDBRANCH  20  28
ENDBRANCH   1  16
TORSDOF 5
ENDMDL
MODEL       27
REMARK 921   NORMALIZED FREE ENERGY PREDICTED BY IDOCK:   -7.95 KCAL/MOL
REMARK 922        TOTAL FREE ENERGY PREDICTED BY IDOCK:  -10.34 KCAL/MOL
REMARK 923 INTER-LIGAND FREE ENERGY PREDICTED BY IDOCK:   -9.04 KCAL/MOL
REMARK 924 INTRA-LIGAND FREE ENERGY PREDICTED BY IDOCK:   -1.31 KCAL/MOL
REMARK 927      BINDING AFFINITY PREDICTED BY RF-SCORE:    0.00 PKD
ROOT
HETATM    1  C   UNL     1      -9.563  11.446  69.103  1.00  0.00     0.121 C  
ENDROOT
BRANCH   1   2
HETATM    2  C   UNL     1      -8.029  11.547  68.995  1.00  0.00     0.013 C  
HETATM    3  C   UNL     1      -7.483  12.953  68.805  1.00  0.00    -0.047 C  
ENDBRANCH   1   2
BRANCH   1   4
HETATM    4  N   UNL     1      -9.941  10.029  69.186  1.00  0.00    -0.192 NA 
HETATM    5  H   UNL     1      -9.979   9.481  68.327  1.00  0.00     0.000 HD 
BRANCH   4   6
HETATM    6  C   UNL     1     -10.246   9.412  70.382  1.00  0.00    -0.255 A  
HETATM    7  C   UNL     1     -11.705   8.809  72.168  1.00  0.00    -0.363 A  
HETATM    8  N   UNL     1     -10.781   8.176  72.901  1.00  0.00    -0.326 NA 
HETATM    9  N   UNL     1     -12.749   9.966  70.512  1.00  0.00    -0.532 NA 
HETATM   10  C   UNL     1      -9.589   8.211  72.277  1.00  0.00    -0.251 A  
HETATM   11  C   UNL     1     -13.607   9.694  71.483  1.00  0.00    -0.300 A  
HETATM   12  H   UNL     1     -12.933  10.466  69.642  1.00  0.00     0.000 HD 
HETATM   13  N   UNL     1      -9.274   8.782  71.096  1.00  0.00    -0.214 NA 
HETATM   14  C   UNL     1     -11.546   9.426  70.937  1.00  0.00    -0.312 A  
HETATM   15  N   UNL     1     -13.019   8.990  72.497  1.00  0.00    -0.406 NA 
ENDBRANCH   4   6
ENDBRANCH   1   4
BRANCH   1  16
HETATM   16  C   UNL     1     -10.321  12.072  67.871  1.00  0.00    -0.197 C  
HETATM   17  O   UNL     1     -12.239  14.955  66.933  1.00  0.00    -0.140 OA 
HETATM   18  N   UNL     1     -10.158  11.483  66.718  1.00  0.00    -0.210 NA 
HETATM   19  C   UNL     1     -10.776  12.013  65.580  1.00  0.00    -0.272 A  
HETATM   20  N   UNL     1     -11.068  13.242  68.007  1.00  0.00    -0.246 N  
HETATM   21  C   UNL     1     -11.612  13.897  66.891  1.00  0.00    -0.378 C  
HETATM   22  C   UNL     1     -10.700  11.298  64.378  1.00  0.00    -0.407 A  
HETATM   23  C   UNL     1     -11.456  13.226  65.595  1.00  0.00    -0.342 A  
HETATM   24  C   UNL     1     -11.274  11.801  63.206  1.00  0.00    -0.357 A  
HETATM   25  C   UNL     1     -11.913  13.036  63.224  1.00  0.00    -0.493 A  
HETATM   26  F   UNL     1     -12.625  14.929  64.394  1.00  0.00    -0.485 F  
HETATM   27  C   UNL     1     -12.000  13.744  64.418  1.00  0.00    -0.445 A  
BRANCH  20  28
HETATM   28  C   UNL     1     -11.319  13.855  69.273  1.00  0.00    -0.272 A  
HETATM   29  C   UNL     1     -12.250  13.317  70.168  1.00  0.00    -0.376 A  
HETATM   30  C   UNL     1     -12.435  13.903  71.423  1.00  0.00    -0.424 A  
HETATM   31  C   UNL     1     -11.701  15.031  71.785  1.00  0.00    -0.452 A  
HETATM   32  C   UNL     1     -10.811  15.603  70.880  1.00  0.00    -0.224 A  
HETATM   33  C   UNL     1     -10.638  15.032  69.621  1.00  0.00    -0.252 A  
ENDBRANCH  20  28
ENDBRANCH   1  16
TORSDOF 5
ENDMDL
MODEL       28
REMARK 921   NORMALIZED FREE ENERGY PREDICTED BY IDOCK:   -7.88 KCAL/MOL
REMARK 922        TOTAL FREE ENERGY PREDICTED BY IDOCK:  -10.25 KCAL/MOL
REMARK 923 INTER-LIGAND FREE ENERGY PREDICTED BY IDOCK:   -9.17 KCAL/MOL
REMARK 924 INTRA-LIGAND FREE ENERGY PREDICTED BY IDOCK:   -1.08 KCAL/MOL
REMARK 927      BINDING AFFINITY PREDICTED BY RF-SCORE:    0.00 PKD
ROOT
HETATM    1  C   UNL     1     -12.527   8.979  71.322  1.00  0.00    -0.289 C  
ENDROOT
BRANCH   1   2
HETATM    2  C   UNL     1     -13.991   8.498  71.343  1.00  0.00    -0.331 C  
HETATM    3  C   UNL     1     -14.178   6.996  71.490  1.00  0.00    -0.413 C  
ENDBRANCH   1   2
BRANCH   1   4
HETATM    4  N   UNL     1     -11.929   8.739  72.641  1.00  0.00    -0.227 NA 
HETATM    5  H   UNL     1     -12.426   9.063  73.471  1.00  0.00     0.000 HD 
BRANCH   4   6
HETATM    6  C   UNL     1     -10.721   8.092  72.802  1.00  0.00    -0.362 A  
HETATM    7  C   UNL     1      -9.352   6.180  73.193  1.00  0.00    -0.138 A  
HETATM    8  N   UNL     1      -8.187   6.838  73.204  1.00  0.00    -0.111 NA 
HETATM    9  N   UNL     1     -11.567   5.683  73.060  1.00  0.00    -0.525 NA 
HETATM   10  C   UNL     1      -8.392   8.151  72.998  1.00  0.00    -0.199 A  
HETATM   11  C   UNL     1     -10.872   4.584  73.311  1.00  0.00    -0.269 A  
HETATM   12  H   UNL     1     -12.577   5.765  72.941  1.00  0.00     0.000 HD 
HETATM   13  N   UNL     1      -9.559   8.801  72.808  1.00  0.00    -0.165 NA 
HETATM   14  C   UNL     1     -10.623   6.695  72.997  1.00  0.00    -0.256 A  
HETATM   15  N   UNL     1      -9.531   4.839  73.391  1.00  0.00    -0.122 NA 
ENDBRANCH   4   6
ENDBRANCH   1   4
BRANCH   1  16
HETATM   16  C   UNL     1     -12.377  10.515  71.001  1.00  0.00    -0.399 C  
HETATM   17  O   UNL     1     -10.806  12.751  68.676  1.00  0.00    -0.242 OA 
HETATM   18  N   UNL     1     -13.138  11.334  71.675  1.00  0.00    -0.454 NA 
HETATM   19  C   UNL     1     -13.078  12.706  71.410  1.00  0.00    -0.216 A  
HETATM   20  N   UNL     1     -11.521  10.958  69.992  1.00  0.00    -0.308 N  
HETATM   21  C   UNL     1     -11.500  12.302  69.588  1.00  0.00    -0.215 C  
HETATM   22  C   UNL     1     -13.801  13.583  72.227  1.00  0.00    -0.680 A  
HETATM   23  C   UNL     1     -12.332  13.233  70.359  1.00  0.00    -0.365 A  
HETATM   24  C   UNL     1     -13.798  14.960  71.985  1.00  0.00    -0.563 A  
HETATM   25  C   UNL     1     -13.084  15.470  70.905  1.00  0.00    -0.508 A  
HETATM   26  F   UNL     1     -11.681  15.135  69.067  1.00  0.00    -0.287 F  
HETATM   27  C   UNL     1     -12.356  14.604  70.096  1.00  0.00    -0.336 A  
BRANCH  20  28
HETATM   28  C   UNL     1     -10.628  10.085  69.300  1.00  0.00    -0.227 A  
HETATM   29  C   UNL     1     -10.993   9.483  68.091  1.00  0.00    -0.144 A  
HETATM   30  C   UNL     1     -10.079   8.678  67.405  1.00  0.00    -0.292 A  
HETATM   31  C   UNL     1      -8.805   8.462  67.927  1.00  0.00    -0.138 A  
HETATM   32  C   UNL     1      -8.453   9.015  69.156  1.00  0.00    -0.128 A  
HETATM   33  C   UNL     1      -9.368   9.803  69.851  1.00  0.00    -0.262 A  
ENDBRANCH  20  28
ENDBRANCH   1  16
TORSDOF 5
ENDMDL
MODEL       29
REMARK 921   NORMALIZED FREE ENERGY PREDICTED BY IDOCK:   -7.84 KCAL/MOL
REMARK 922        TOTAL FREE ENERGY PREDICTED BY IDOCK:  -10.20 KCAL/MOL
REMARK 923 INTER-LIGAND FREE ENERGY PREDICTED BY IDOCK:   -8.47 KCAL/MOL
REMARK 924 INTRA-LIGAND FREE ENERGY PREDICTED BY IDOCK:   -1.72 KCAL/MOL
REMARK 927      BINDING AFFINITY PREDICTED BY RF-SCORE:    0.00 PKD
ROOT
HETATM    1  C   UNL     1      -9.803  13.542  66.695  1.00  0.00    -0.279 C  
ENDROOT
BRANCH   1   2
HETATM    2  C   UNL     1     -10.733  13.381  65.477  1.00  0.00    -0.301 C  
HETATM    3  C   UNL     1     -11.054  14.666  64.731  1.00  0.00    -0.394 C  
ENDBRANCH   1   2
BRANCH   1   4
HETATM    4  N   UNL     1      -8.758  12.512  66.634  1.00  0.00    -0.378 NA 
HETATM    5  H   UNL     1      -8.787  11.829  65.876  1.00  0.00     0.000 HD 
BRANCH   4   6
HETATM    6  C   UNL     1      -7.739  12.433  67.560  1.00  0.00    -0.161 A  
HETATM    7  C   UNL     1      -6.645  11.506  69.465  1.00  0.00    -0.120 A  
HETATM    8  N   UNL     1      -5.634  12.383  69.490  1.00  0.00    -0.081 NA 
HETATM    9  N   UNL     1      -8.536  10.385  68.885  1.00  0.00    -0.140 NA 
HETATM   10  C   UNL     1      -5.761  13.269  68.487  1.00  0.00    -0.083 A  
HETATM   11  C   UNL     1      -8.001   9.839  69.966  1.00  0.00    -0.184 A  
HETATM   12  H   UNL     1      -9.381  10.091  68.394  1.00  0.00     0.000 HD 
HETATM   13  N   UNL     1      -6.731  13.348  67.552  1.00  0.00    -0.166 NA 
HETATM   14  C   UNL     1      -7.699  11.442  68.568  1.00  0.00    -0.133 A  
HETATM   15  N   UNL     1      -6.854  10.480  70.344  1.00  0.00    -0.299 NA 
ENDBRANCH   4   6
ENDBRANCH   1   4
BRANCH   1  16
HETATM   16  C   UNL     1     -10.546  13.388  68.076  1.00  0.00    -0.243 C  
HETATM   17  O   UNL     1     -11.727  15.328  70.854  1.00  0.00    -0.287 OA 
HETATM   18  N   UNL     1     -11.056  12.216  68.343  1.00  0.00    -0.227 NA 
HETATM   19  C   UNL     1     -11.760  12.027  69.537  1.00  0.00    -0.342 A  
HETATM   20  N   UNL     1     -10.707  14.479  68.931  1.00  0.00    -0.249 N  
HETATM   21  C   UNL     1     -11.503  14.395  70.083  1.00  0.00    -0.220 C  
HETATM   22  C   UNL     1     -12.188  10.736  69.869  1.00  0.00    -0.384 A  
HETATM   23  C   UNL     1     -12.058  13.074  70.404  1.00  0.00    -0.391 A  
HETATM   24  C   UNL     1     -12.921  10.499  71.036  1.00  0.00    -0.475 A  
HETATM   25  C   UNL     1     -13.251  11.561  71.872  1.00  0.00    -0.479 A  
HETATM   26  F   UNL     1     -13.156  13.839  72.383  1.00  0.00    -0.437 F  
HETATM   27  C   UNL     1     -12.819  12.844  71.552  1.00  0.00    -0.282 A  
BRANCH  20  28
HETATM   28  C   UNL     1     -10.090  15.744  68.691  1.00  0.00    -0.211 A  
HETATM   29  C   UNL     1      -8.753  15.977  69.033  1.00  0.00    -0.245 A  
HETATM   30  C   UNL     1      -8.157  17.205  68.735  1.00  0.00    -0.252 A  
HETATM   31  C   UNL     1      -8.894  18.208  68.106  1.00  0.00    -0.289 A  
HETATM   32  C   UNL     1     -10.239  18.002  67.811  1.00  0.00    -0.385 A  
HETATM   33  C   UNL     1     -10.840  16.785  68.123  1.00  0.00    -0.353 A  
ENDBRANCH  20  28
ENDBRANCH   1  16
TORSDOF 5
ENDMDL
MODEL       30
REMARK 921   NORMALIZED FREE ENERGY PREDICTED BY IDOCK:   -7.84 KCAL/MOL
REMARK 922        TOTAL FREE ENERGY PREDICTED BY IDOCK:  -10.20 KCAL/MOL
REMARK 923 INTER-LIGAND FREE ENERGY PREDICTED BY IDOCK:   -8.39 KCAL/MOL
REMARK 924 INTRA-LIGAND FREE ENERGY PREDICTED BY IDOCK:   -1.81 KCAL/MOL
REMARK 927      BINDING AFFINITY PREDICTED BY RF-SCORE:    0.00 PKD
ROOT
HETATM    1  C   UNL     1     -10.593  12.271  65.790  1.00  0.00    -0.254 C  
ENDROOT
BRANCH   1   2
HETATM    2  C   UNL     1     -10.849  12.232  64.271  1.00  0.00    -0.392 C  
HETATM    3  C   UNL     1     -12.302  12.387  63.853  1.00  0.00    -0.602 C  
ENDBRANCH   1   2
BRANCH   1   4
HETATM    4  N   UNL     1     -11.883  12.262  66.490  1.00  0.00    -0.598 NA 
HETATM    5  H   UNL     1     -12.737  12.380  65.944  1.00  0.00     0.000 HD 
BRANCH   4   6
HETATM    6  C   UNL     1     -11.985  12.100  67.856  1.00  0.00    -0.148 A  
HETATM    7  C   UNL     1     -12.196  12.890  70.095  1.00  0.00    -0.266 A  
HETATM    8  N   UNL     1     -12.111  11.689  70.680  1.00  0.00    -0.370 NA 
HETATM    9  N   UNL     1     -12.278  14.554  68.548  1.00  0.00    -0.602 NA 
HETATM   10  C   UNL     1     -11.962  10.729  69.750  1.00  0.00    -0.325 A  
HETATM   11  C   UNL     1     -12.367  15.065  69.766  1.00  0.00    -0.240 A  
HETATM   12  H   UNL     1     -12.294  15.057  67.660  1.00  0.00     0.000 HD 
HETATM   13  N   UNL     1     -11.890  10.860  68.409  1.00  0.00    -0.525 NA 
HETATM   14  C   UNL     1     -12.157  13.188  68.743  1.00  0.00    -0.191 A  
HETATM   15  N   UNL     1     -12.329  14.095  70.728  1.00  0.00    -0.346 NA 
ENDBRANCH   4   6
ENDBRANCH   1   4
BRANCH   1  16
HETATM   16  C   UNL     1      -9.802  13.552  66.259  1.00  0.00    -0.299 C  
HETATM   17  O   UNL     1      -6.698  14.531  67.769  1.00  0.00    -0.149 OA 
HETATM   18  N   UNL     1     -10.304  14.709  65.924  1.00  0.00    -0.303 NA 
HETATM   19  C   UNL     1      -9.629  15.881  66.280  1.00  0.00    -0.316 A  
HETATM   20  N   UNL     1      -8.589  13.438  66.939  1.00  0.00    -0.154 N  
HETATM   21  C   UNL     1      -7.798  14.563  67.218  1.00  0.00    -0.173 C  
HETATM   22  C   UNL     1     -10.243  17.115  66.028  1.00  0.00    -0.332 A  
HETATM   23  C   UNL     1      -8.368  15.870  66.867  1.00  0.00    -0.281 A  
HETATM   24  C   UNL     1      -9.597  18.316  66.337  1.00  0.00    -0.307 A  
HETATM   25  C   UNL     1      -8.318  18.292  66.883  1.00  0.00    -0.256 A  
HETATM   26  F   UNL     1      -6.477  17.089  67.673  1.00  0.00    -0.131 F  
HETATM   27  C   UNL     1      -7.708  17.069  67.145  1.00  0.00    -0.176 A  
BRANCH  20  28
HETATM   28  C   UNL     1      -8.066  12.184  67.380  1.00  0.00    -0.171 A  
HETATM   29  C   UNL     1      -7.176  11.450  66.589  1.00  0.00    -0.102 A  
HETATM   30  C   UNL     1      -6.635  10.254  67.068  1.00  0.00    -0.074 A  
HETATM   31  C   UNL     1      -6.988   9.781  68.332  1.00  0.00    -0.068 A  
HETATM   32  C   UNL     1      -7.914  10.479  69.102  1.00  0.00    -0.145 A  
HETATM   33  C   UNL     1      -8.468  11.663  68.620  1.00  0.00    -0.094 A  
ENDBRANCH  20  28
ENDBRANCH   1  16
TORSDOF 5
ENDMDL
MODEL       31
REMARK 921   NORMALIZED FREE ENERGY PREDICTED BY IDOCK:   -7.82 KCAL/MOL
REMARK 922        TOTAL FREE ENERGY PREDICTED BY IDOCK:  -10.17 KCAL/MOL
REMARK 923 INTER-LIGAND FREE ENERGY PREDICTED BY IDOCK:   -8.97 KCAL/MOL
REMARK 924 INTRA-LIGAND FREE ENERGY PREDICTED BY IDOCK:   -1.19 KCAL/MOL
REMARK 927      BINDING AFFINITY PREDICTED BY RF-SCORE:    0.00 PKD
ROOT
HETATM    1  C   UNL     1     -11.689  14.007  67.467  1.00  0.00    -0.387 C  
ENDROOT
BRANCH   1   2
HETATM    2  C   UNL     1     -12.634  13.880  66.256  1.00  0.00    -0.376 C  
HETATM    3  C   UNL     1     -12.029  14.269  64.917  1.00  0.00    -0.430 C  
ENDBRANCH   1   2
BRANCH   1   4
HETATM    4  N   UNL     1     -10.351  14.376  66.988  1.00  0.00    -0.262 NA 
HETATM    5  H   UNL     1     -10.045  14.034  66.077  1.00  0.00     0.000 HD 
BRANCH   4   6
HETATM    6  C   UNL     1      -9.492  15.166  67.724  1.00  0.00    -0.194 A  
HETATM    7  C   UNL     1      -8.709  17.244  68.591  1.00  0.00    -0.268 A  
HETATM    8  N   UNL     1      -7.625  16.746  69.199  1.00  0.00    -0.221 NA 
HETATM    9  N   UNL     1     -10.635  17.441  67.399  1.00  0.00    -0.337 NA 
HETATM   10  C   UNL     1      -7.556  15.416  69.011  1.00  0.00    -0.177 A  
HETATM   11  C   UNL     1     -10.241  18.632  67.822  1.00  0.00    -0.386 A  
HETATM   12  H   UNL     1     -11.465  17.220  66.850  1.00  0.00     0.000 HD 
HETATM   13  N   UNL     1      -8.400  14.618  68.323  1.00  0.00    -0.141 NA 
HETATM   14  C   UNL     1      -9.672  16.561  67.867  1.00  0.00    -0.236 A  
HETATM   15  N   UNL     1      -9.087  18.557  68.551  1.00  0.00    -0.326 NA 
ENDBRANCH   4   6
ENDBRANCH   1   4
BRANCH   1  16
HETATM   16  C   UNL     1     -11.551  12.673  68.296  1.00  0.00    -0.332 C  
HETATM   17  O   UNL     1     -12.244  11.307  71.540  1.00  0.00    -0.176 OA 
HETATM   18  N   UNL     1     -11.180  11.608  67.640  1.00  0.00    -0.260 NA 
HETATM   19  C   UNL     1     -11.075  10.386  68.313  1.00  0.00    -0.281 A  
HETATM   20  N   UNL     1     -11.880  12.632  69.651  1.00  0.00    -0.320 N  
HETATM   21  C   UNL     1     -11.917  11.422  70.359  1.00  0.00    -0.374 C  
HETATM   22  C   UNL     1     -10.552   9.282  67.627  1.00  0.00    -0.324 A  
HETATM   23  C   UNL     1     -11.476  10.223  69.635  1.00  0.00    -0.297 A  
HETATM   24  C   UNL     1     -10.455   8.032  68.246  1.00  0.00    -0.210 A  
HETATM   25  C   UNL     1     -10.900   7.872  69.554  1.00  0.00    -0.141 A  
HETATM   26  F   UNL     1     -11.827   8.772  71.501  1.00  0.00    -0.294 F  
HETATM   27  C   UNL     1     -11.410   8.968  70.243  1.00  0.00    -0.178 A  
BRANCH  20  28
HETATM   28  C   UNL     1     -12.212  13.803  70.400  1.00  0.00    -0.363 A  
HETATM   29  C   UNL     1     -13.521  14.040  70.835  1.00  0.00    -0.096 A  
HETATM   30  C   UNL     1     -13.808  15.163  71.614  1.00  0.00    -0.597 A  
HETATM   31  C   UNL     1     -12.795  16.059  71.953  1.00  0.00    -0.331 A  
HETATM   32  C   UNL     1     -11.501  15.858  71.480  1.00  0.00    -0.484 A  
HETATM   33  C   UNL     1     -11.215  14.748  70.688  1.00  0.00    -0.173 A  
ENDBRANCH  20  28
ENDBRANCH   1  16
TORSDOF 5
ENDMDL
MODEL       32
REMARK 921   NORMALIZED FREE ENERGY PREDICTED BY IDOCK:   -7.79 KCAL/MOL
REMARK 922        TOTAL FREE ENERGY PREDICTED BY IDOCK:  -10.13 KCAL/MOL
REMARK 923 INTER-LIGAND FREE ENERGY PREDICTED BY IDOCK:   -8.87 KCAL/MOL
REMARK 924 INTRA-LIGAND FREE ENERGY PREDICTED BY IDOCK:   -1.26 KCAL/MOL
REMARK 927      BINDING AFFINITY PREDICTED BY RF-SCORE:    0.00 PKD
ROOT
HETATM    1  C   UNL     1     -11.131  13.260  68.391  1.00  0.00    -0.270 C  
ENDROOT
BRANCH   1   2
HETATM    2  C   UNL     1     -10.860  14.392  69.402  1.00  0.00    -0.227 C  
HETATM    3  C   UNL     1     -12.018  15.351  69.628  1.00  0.00    -0.366 C  
ENDBRANCH   1   2
BRANCH   1   4
HETATM    4  N   UNL     1     -12.331  13.594  67.614  1.00  0.00    -0.350 NA 
HETATM    5  H   UNL     1     -13.236  13.595  68.087  1.00  0.00     0.000 HD 
BRANCH   4   6
HETATM    6  C   UNL     1     -12.284  13.906  66.271  1.00  0.00    -0.461 A  
HETATM    7  C   UNL     1     -11.797  15.327  64.420  1.00  0.00    -0.281 A  
HETATM    8  N   UNL     1     -12.292  14.512  63.480  1.00  0.00    -0.572 NA 
HETATM    9  N   UNL     1     -11.150  16.204  66.415  1.00  0.00    -0.019 NA 
HETATM   10  C   UNL     1     -12.772  13.389  64.044  1.00  0.00     0.031 A  
HETATM   11  C   UNL     1     -10.881  17.056  65.438  1.00  0.00    -0.073 A  
HETATM   12  H   UNL     1     -10.965  16.322  67.411  1.00  0.00     0.000 HD 
HETATM   13  N   UNL     1     -12.802  13.049  65.350  1.00  0.00    -0.643 NA 
HETATM   14  C   UNL     1     -11.738  15.117  65.788  1.00  0.00    -0.016 A  
HETATM   15  N   UNL     1     -11.248  16.562  64.218  1.00  0.00    -1.010 NA 
ENDBRANCH   4   6
ENDBRANCH   1   4
BRANCH   1  16
HETATM   16  C   UNL     1     -11.373  11.859  69.069  1.00  0.00    -0.279 C  
HETATM   17  O   UNL     1     -10.131   8.493  69.068  1.00  0.00    -0.189 OA 
HETATM   18  N   UNL     1     -12.206  11.827  70.074  1.00  0.00    -0.271 NA 
HETATM   19  C   UNL     1     -12.435  10.619  70.741  1.00  0.00    -0.385 A  
HETATM   20  N   UNL     1     -10.671  10.727  68.653  1.00  0.00    -0.193 N  
HETATM   21  C   UNL     1     -10.757   9.514  69.351  1.00  0.00    -0.225 C  
HETATM   22  C   UNL     1     -13.426  10.573  71.730  1.00  0.00    -0.345 A  
HETATM   23  C   UNL     1     -11.711   9.463  70.466  1.00  0.00    -0.254 A  
HETATM   24  C   UNL     1     -13.672   9.398  72.447  1.00  0.00    -0.469 A  
HETATM   25  C   UNL     1     -12.911   8.261  72.193  1.00  0.00    -0.327 A  
HETATM   26  F   UNL     1     -11.224   7.183  70.989  1.00  0.00    -0.259 F  
HETATM   27  C   UNL     1     -11.933   8.299  71.204  1.00  0.00    -0.265 A  
BRANCH  20  28
HETATM   28  C   UNL     1      -9.817  10.728  67.508  1.00  0.00    -0.172 A  
HETATM   29  C   UNL     1      -8.442  10.959  67.629  1.00  0.00    -0.123 A  
HETATM   30  C   UNL     1      -7.619  10.898  66.500  1.00  0.00    -0.142 A  
HETATM   31  C   UNL     1      -8.166  10.618  65.249  1.00  0.00    -0.105 A  
HETATM   32  C   UNL     1      -9.540  10.440  65.113  1.00  0.00    -0.329 A  
HETATM   33  C   UNL     1     -10.365  10.518  66.233  1.00  0.00    -0.276 A  
ENDBRANCH  20  28
ENDBRANCH   1  16
TORSDOF 5
ENDMDL
MODEL       33
REMARK 921   NORMALIZED FREE ENERGY PREDICTED BY IDOCK:   -7.74 KCAL/MOL
REMARK 922        TOTAL FREE ENERGY PREDICTED BY IDOCK:  -10.07 KCAL/MOL
REMARK 923 INTER-LIGAND FREE ENERGY PREDICTED BY IDOCK:   -9.66 KCAL/MOL
REMARK 924 INTRA-LIGAND FREE ENERGY PREDICTED BY IDOCK:   -0.41 KCAL/MOL
REMARK 927      BINDING AFFINITY PREDICTED BY RF-SCORE:    0.00 PKD
ROOT
HETATM    1  C   UNL     1     -12.063  13.667  70.277  1.00  0.00    -0.357 C  
ENDROOT
BRANCH   1   2
HETATM    2  C   UNL     1     -13.357  14.480  70.481  1.00  0.00    -0.026 C  
HETATM    3  C   UNL     1     -13.958  14.404  71.875  1.00  0.00    -0.574 C  
ENDBRANCH   1   2
BRANCH   1   4
HETATM    4  N   UNL     1     -10.916  14.495  70.667  1.00  0.00    -0.475 NA 
HETATM    5  H   UNL     1     -10.549  14.409  71.615  1.00  0.00     0.000 HD 
BRANCH   4   6
HETATM    6  C   UNL     1     -10.314  15.386  69.802  1.00  0.00    -0.286 A  
HETATM    7  C   UNL     1      -8.621  16.069  68.269  1.00  0.00    -0.179 A  
HETATM    8  N   UNL     1      -9.085  17.312  68.089  1.00  0.00    -0.249 NA 
HETATM    9  N   UNL     1      -8.374  13.923  68.977  1.00  0.00    -0.344 NA 
HETATM   10  C   UNL     1     -10.195  17.505  68.823  1.00  0.00    -0.373 A  
HETATM   11  C   UNL     1      -7.385  14.245  68.158  1.00  0.00    -0.128 A  
HETATM   12  H   UNL     1      -8.529  13.028  69.442  1.00  0.00     0.000 HD 
HETATM   13  N   UNL     1     -10.818  16.641  69.652  1.00  0.00    -0.334 NA 
HETATM   14  C   UNL     1      -9.151  15.066  69.065  1.00  0.00    -0.205 A  
HETATM   15  N   UNL     1      -7.501  15.529  67.702  1.00  0.00    -0.150 NA 
ENDBRANCH   4   6
ENDBRANCH   1   4
BRANCH   1  16
HETATM   16  C   UNL     1     -11.840  13.210  68.785  1.00  0.00    -0.324 C  
HETATM   17  O   UNL     1     -11.081  10.299  66.830  1.00  0.00    -0.141 OA 
HETATM   18  N   UNL     1     -12.118  14.082  67.854  1.00  0.00    -0.339 NA 
HETATM   19  C   UNL     1     -11.975  13.724  66.510  1.00  0.00    -0.434 A  
HETATM   20  N   UNL     1     -11.431  11.910  68.485  1.00  0.00    -0.268 N  
HETATM   21  C   UNL     1     -11.385  11.445  67.162  1.00  0.00    -0.255 C  
HETATM   22  C   UNL     1     -12.152  14.707  65.528  1.00  0.00    -0.222 A  
HETATM   23  C   UNL     1     -11.671  12.426  66.110  1.00  0.00    -0.460 A  
HETATM   24  C   UNL     1     -12.049  14.393  64.169  1.00  0.00    -0.405 A  
HETATM   25  C   UNL     1     -11.789  13.083  63.781  1.00  0.00    -0.566 A  
HETATM   26  F   UNL     1     -11.351  10.856  64.337  1.00  0.00    -0.250 F  
HETATM   27  C   UNL     1     -11.602  12.105  64.752  1.00  0.00    -0.321 A  
BRANCH  20  28
HETATM   28  C   UNL     1     -11.048  10.971  69.491  1.00  0.00    -0.263 A  
HETATM   29  C   UNL     1     -11.978  10.476  70.413  1.00  0.00    -0.425 A  
HETATM   30  C   UNL     1     -11.590   9.514  71.350  1.00  0.00    -0.466 A  
HETATM   31  C   UNL     1     -10.276   9.052  71.379  1.00  0.00    -0.399 A  
HETATM   32  C   UNL     1      -9.333   9.579  70.500  1.00  0.00    -0.296 A  
HETATM   33  C   UNL     1      -9.712  10.551  69.575  1.00  0.00    -0.147 A  
ENDBRANCH  20  28
ENDBRANCH   1  16
TORSDOF 5
ENDMDL
MODEL       34
REMARK 921   NORMALIZED FREE ENERGY PREDICTED BY IDOCK:   -7.74 KCAL/MOL
REMARK 922        TOTAL FREE ENERGY PREDICTED BY IDOCK:  -10.07 KCAL/MOL
REMARK 923 INTER-LIGAND FREE ENERGY PREDICTED BY IDOCK:   -8.47 KCAL/MOL
REMARK 924 INTRA-LIGAND FREE ENERGY PREDICTED BY IDOCK:   -1.60 KCAL/MOL
REMARK 927      BINDING AFFINITY PREDICTED BY RF-SCORE:    0.00 PKD
ROOT
HETATM    1  C   UNL     1     -10.737  12.819  66.881  1.00  0.00    -0.253 C  
ENDROOT
BRANCH   1   2
HETATM    2  C   UNL     1     -11.952  12.667  65.945  1.00  0.00    -0.497 C  
HETATM    3  C   UNL     1     -12.666  13.962  65.593  1.00  0.00    -0.534 C  
ENDBRANCH   1   2
BRANCH   1   4
HETATM    4  N   UNL     1     -10.193  11.487  67.173  1.00  0.00    -0.200 NA 
HETATM    5  H   UNL     1     -10.826  10.765  67.517  1.00  0.00     0.000 HD 
BRANCH   4   6
HETATM    6  C   UNL     1      -8.860  11.176  67.001  1.00  0.00    -0.149 A  
HETATM    7  C   UNL     1      -6.561  11.190  67.629  1.00  0.00    -0.070 A  
HETATM    8  N   UNL     1      -6.110  10.563  66.535  1.00  0.00    -0.071 NA 
HETATM    9  N   UNL     1      -7.916  12.164  69.173  1.00  0.00    -0.330 NA 
HETATM   10  C   UNL     1      -7.132  10.273  65.711  1.00  0.00    -0.132 A  
HETATM   11  C   UNL     1      -6.655  12.236  69.570  1.00  0.00    -0.052 A  
HETATM   12  H   UNL     1      -8.741  12.508  69.664  1.00  0.00     0.000 HD 
HETATM   13  N   UNL     1      -8.445  10.540  65.872  1.00  0.00    -0.157 NA 
HETATM   14  C   UNL     1      -7.868  11.519  67.948  1.00  0.00    -0.123 A  
HETATM   15  N   UNL     1      -5.806  11.653  68.670  1.00  0.00    -0.046 NA 
ENDBRANCH   4   6
ENDBRANCH   1   4
BRANCH   1  16
HETATM   16  C   UNL     1     -11.087  13.506  68.255  1.00  0.00    -0.261 C  
HETATM   17  O   UNL     1     -10.803  16.644  69.972  1.00  0.00    -0.329 OA 
HETATM   18  N   UNL     1     -11.845  12.830  69.075  1.00  0.00    -0.305 NA 
HETATM   19  C   UNL     1     -12.221  13.401  70.295  1.00  0.00    -0.335 A  
HETATM   20  N   UNL     1     -10.661  14.804  68.539  1.00  0.00    -0.241 N  
HETATM   21  C   UNL     1     -11.100  15.485  69.685  1.00  0.00    -0.279 C  
HETATM   22  C   UNL     1     -12.923  12.617  71.219  1.00  0.00    -0.306 A  
HETATM   23  C   UNL     1     -11.930  14.722  70.625  1.00  0.00    -0.371 A  
HETATM   24  C   UNL     1     -13.348  13.150  72.440  1.00  0.00    -0.591 A  
HETATM   25  C   UNL     1     -13.090  14.484  72.738  1.00  0.00    -0.589 A  
HETATM   26  F   UNL     1     -12.154  16.544  72.154  1.00  0.00    -0.510 F  
HETATM   27  C   UNL     1     -12.384  15.265  71.829  1.00  0.00    -0.358 A  
BRANCH  20  28
HETATM   28  C   UNL     1      -9.770  15.527  67.688  1.00  0.00    -0.212 A  
HETATM   29  C   UNL     1     -10.249  16.447  66.749  1.00  0.00    -0.285 A  
HETATM   30  C   UNL     1      -9.353  17.182  65.968  1.00  0.00    -0.156 A  
HETATM   31  C   UNL     1      -7.980  16.995  66.113  1.00  0.00    -0.299 A  
HETATM   32  C   UNL     1      -7.497  16.044  67.008  1.00  0.00    -0.264 A  
HETATM   33  C   UNL     1      -8.388  15.296  67.775  1.00  0.00    -0.161 A  
ENDBRANCH  20  28
ENDBRANCH   1  16
TORSDOF 5
ENDMDL
MODEL       35
REMARK 921   NORMALIZED FREE ENERGY PREDICTED BY IDOCK:   -7.73 KCAL/MOL
REMARK 922        TOTAL FREE ENERGY PREDICTED BY IDOCK:  -10.06 KCAL/MOL
REMARK 923 INTER-LIGAND FREE ENERGY PREDICTED BY IDOCK:   -8.39 KCAL/MOL
REMARK 924 INTRA-LIGAND FREE ENERGY PREDICTED BY IDOCK:   -1.67 KCAL/MOL
REMARK 927      BINDING AFFINITY PREDICTED BY RF-SCORE:    0.00 PKD
ROOT
HETATM    1  C   UNL     1     -11.719  14.535  68.392  1.00  0.00    -0.333 C  
ENDROOT
BRANCH   1   2
HETATM    2  C   UNL     1     -12.159  14.431  69.866  1.00  0.00    -0.398 C  
HETATM    3  C   UNL     1     -11.957  15.690  70.694  1.00  0.00    -0.438 C  
ENDBRANCH   1   2
BRANCH   1   4
HETATM    4  N   UNL     1     -12.443  13.526  67.608  1.00  0.00    -0.190 NA 
HETATM    5  H   UNL     1     -13.124  12.933  68.083  1.00  0.00     0.000 HD 
BRANCH   4   6
HETATM    6  C   UNL     1     -12.236  13.349  66.256  1.00  0.00    -0.398 A  
HETATM    7  C   UNL     1     -11.346  12.215  64.357  1.00  0.00    -0.344 A  
HETATM    8  N   UNL     1     -11.784  13.094  63.447  1.00  0.00    -0.435 NA 
HETATM    9  N   UNL     1     -10.914  11.150  66.319  1.00  0.00    -0.215 NA 
HETATM   10  C   UNL     1     -12.456  14.091  64.050  1.00  0.00    -0.190 A  
HETATM   11  C   UNL     1     -10.365  10.486  65.314  1.00  0.00    -0.229 A  
HETATM   12  H   UNL     1     -10.893  10.907  67.309  1.00  0.00     0.000 HD 
HETATM   13  N   UNL     1     -12.697  14.269  65.365  1.00  0.00    -0.559 NA 
HETATM   14  C   UNL     1     -11.523  12.246  65.731  1.00  0.00    -0.367 A  
HETATM   15  N   UNL     1     -10.608  11.090  64.112  1.00  0.00    -0.380 NA 
ENDBRANCH   4   6
ENDBRANCH   1   4
BRANCH   1  16
HETATM   16  C   UNL     1     -10.177  14.292  68.179  1.00  0.00    -0.231 C  
HETATM   17  O   UNL     1      -7.122  16.065  67.549  1.00  0.00    -0.138 OA 
HETATM   18  N   UNL     1      -9.734  13.086  68.408  1.00  0.00    -0.219 NA 
HETATM   19  C   UNL     1      -8.368  12.816  68.272  1.00  0.00    -0.161 A  
HETATM   20  N   UNL     1      -9.325  15.341  67.833  1.00  0.00    -0.188 N  
HETATM   21  C   UNL     1      -7.932  15.173  67.799  1.00  0.00    -0.143 C  
HETATM   22  C   UNL     1      -7.928  11.492  68.392  1.00  0.00    -0.143 A  
HETATM   23  C   UNL     1      -7.429  13.814  68.029  1.00  0.00    -0.139 A  
HETATM   24  C   UNL     1      -6.569  11.175  68.295  1.00  0.00    -0.058 A  
HETATM   25  C   UNL     1      -5.636  12.187  68.096  1.00  0.00    -0.053 A  
HETATM   26  F   UNL     1      -5.139  14.447  67.773  1.00  0.00    -0.108 F  
HETATM   27  C   UNL     1      -6.069  13.502  67.965  1.00  0.00    -0.133 A  
BRANCH  20  28
HETATM   28  C   UNL     1      -9.804  16.647  67.505  1.00  0.00    -0.253 A  
HETATM   29  C   UNL     1      -9.860  17.662  68.466  1.00  0.00    -0.346 A  
HETATM   30  C   UNL     1     -10.278  18.946  68.106  1.00  0.00    -0.454 A  
HETATM   31  C   UNL     1     -10.651  19.219  66.791  1.00  0.00    -0.543 A  
HETATM   32  C   UNL     1     -10.648  18.201  65.841  1.00  0.00    -0.247 A  
HETATM   33  C   UNL     1     -10.249  16.915  66.201  1.00  0.00    -0.352 A  
ENDBRANCH  20  28
ENDBRANCH   1  16
TORSDOF 5
ENDMDL
MODEL       36
REMARK 921   NORMALIZED FREE ENERGY PREDICTED BY IDOCK:   -7.72 KCAL/MOL
REMARK 922        TOTAL FREE ENERGY PREDICTED BY IDOCK:  -10.04 KCAL/MOL
REMARK 923 INTER-LIGAND FREE ENERGY PREDICTED BY IDOCK:   -9.58 KCAL/MOL
REMARK 924 INTRA-LIGAND FREE ENERGY PREDICTED BY IDOCK:   -0.46 KCAL/MOL
REMARK 927      BINDING AFFINITY PREDICTED BY RF-SCORE:    0.00 PKD
ROOT
HETATM    1  C   UNL     1     -10.558  11.054  69.410  1.00  0.00    -0.174 C  
ENDROOT
BRANCH   1   2
HETATM    2  C   UNL     1      -9.216  10.321  69.213  1.00  0.00    -0.215 C  
HETATM    3  C   UNL     1      -8.028  11.216  68.896  1.00  0.00    -0.126 C  
ENDBRANCH   1   2
BRANCH   1   4
HETATM    4  N   UNL     1     -11.587  10.071  69.769  1.00  0.00    -0.411 NA 
HETATM    5  H   UNL     1     -12.538  10.209  69.425  1.00  0.00     0.000 HD 
BRANCH   4   6
HETATM    6  C   UNL     1     -11.319   8.968  70.553  1.00  0.00    -0.243 A  
HETATM    7  C   UNL     1     -10.921   6.646  70.917  1.00  0.00    -0.268 A  
HETATM    8  N   UNL     1     -10.844   6.721  72.251  1.00  0.00    -0.224 NA 
HETATM    9  N   UNL     1     -11.146   7.181  68.719  1.00  0.00    -0.462 NA 
HETATM   10  C   UNL     1     -11.020   7.991  72.656  1.00  0.00    -0.382 A  
HETATM   11  C   UNL     1     -10.961   5.877  68.849  1.00  0.00    -0.267 A  
HETATM   12  H   UNL     1     -11.270   7.708  67.854  1.00  0.00     0.000 HD 
HETATM   13  N   UNL     1     -11.253   9.089  71.907  1.00  0.00    -0.373 NA 
HETATM   14  C   UNL     1     -11.135   7.674  70.013  1.00  0.00    -0.191 A  
HETATM   15  N   UNL     1     -10.813   5.514  70.158  1.00  0.00    -0.284 NA 
ENDBRANCH   4   6
ENDBRANCH   1   4
BRANCH   1  16
HETATM   16  C   UNL     1     -11.050  11.816  68.122  1.00  0.00    -0.243 C  
HETATM   17  O   UNL     1     -12.265  15.019  67.053  1.00  0.00    -0.042 OA 
HETATM   18  N   UNL     1     -10.891  11.205  66.979  1.00  0.00    -0.272 NA 
HETATM   19  C   UNL     1     -11.275  11.845  65.796  1.00  0.00    -0.312 A  
HETATM   20  N   UNL     1     -11.565  13.110  68.205  1.00  0.00    -0.317 N  
HETATM   21  C   UNL     1     -11.855  13.858  67.053  1.00  0.00    -0.415 C  
HETATM   22  C   UNL     1     -11.219  11.129  64.594  1.00  0.00    -0.052 A  
HETATM   23  C   UNL     1     -11.703  13.168  65.767  1.00  0.00    -0.415 A  
HETATM   24  C   UNL     1     -11.563  11.733  63.381  1.00  0.00    -0.419 A  
HETATM   25  C   UNL     1     -11.948  13.069  63.359  1.00  0.00    -0.592 A  
HETATM   26  F   UNL     1     -12.391  15.066  64.488  1.00  0.00    -0.436 F  
HETATM   27  C   UNL     1     -12.015  13.782  64.551  1.00  0.00    -0.427 A  
BRANCH  20  28
HETATM   28  C   UNL     1     -11.817  13.761  69.451  1.00  0.00    -0.341 A  
HETATM   29  C   UNL     1     -11.125  14.921  69.817  1.00  0.00    -0.300 A  
HETATM   30  C   UNL     1     -11.431  15.570  71.016  1.00  0.00    -0.426 A  
HETATM   31  C   UNL     1     -12.419  15.061  71.857  1.00  0.00    -0.409 A  
HETATM   32  C   UNL     1     -13.075  13.879  71.525  1.00  0.00    -0.441 A  
HETATM   33  C   UNL     1     -12.760  13.219  70.339  1.00  0.00    -0.103 A  
ENDBRANCH  20  28
ENDBRANCH   1  16
TORSDOF 5
ENDMDL
MODEL       37
REMARK 921   NORMALIZED FREE ENERGY PREDICTED BY IDOCK:   -7.67 KCAL/MOL
REMARK 922        TOTAL FREE ENERGY PREDICTED BY IDOCK:   -9.98 KCAL/MOL
REMARK 923 INTER-LIGAND FREE ENERGY PREDICTED BY IDOCK:   -9.96 KCAL/MOL
REMARK 924 INTRA-LIGAND FREE ENERGY PREDICTED BY IDOCK:   -0.02 KCAL/MOL
REMARK 927      BINDING AFFINITY PREDICTED BY RF-SCORE:    0.00 PKD
ROOT
HETATM    1  C   UNL     1      -8.849  13.703  67.178  1.00  0.00    -0.230 C  
ENDROOT
BRANCH   1   2
HETATM    2  C   UNL     1      -7.381  14.002  67.540  1.00  0.00    -0.187 C  
HETATM    3  C   UNL     1      -6.629  12.856  68.197  1.00  0.00    -0.093 C  
ENDBRANCH   1   2
BRANCH   1   4
HETATM    4  N   UNL     1      -9.250  14.570  66.064  1.00  0.00    -0.514 NA 
HETATM    5  H   UNL     1      -8.705  15.413  65.878  1.00  0.00     0.000 HD 
BRANCH   4   6
HETATM    6  C   UNL     1     -10.335  14.290  65.258  1.00  0.00    -0.395 A  
HETATM    7  C   UNL     1     -11.573  12.948  63.726  1.00  0.00    -0.475 A  
HETATM    8  N   UNL     1     -12.575  13.818  63.551  1.00  0.00    -0.808 NA 
HETATM    9  N   UNL     1      -9.655  11.955  64.438  1.00  0.00    -0.453 NA 
HETATM   10  C   UNL     1     -12.366  14.923  64.289  1.00  0.00    -0.277 A  
HETATM   11  C   UNL     1     -10.273  11.172  63.568  1.00  0.00    -0.390 A  
HETATM   12  H   UNL     1      -8.780  11.770  64.928  1.00  0.00     0.000 HD 
HETATM   13  N   UNL     1     -11.330  15.206  65.106  1.00  0.00    -0.371 NA 
HETATM   14  C   UNL     1     -10.457  13.081  64.536  1.00  0.00    -0.392 A  
HETATM   15  N   UNL     1     -11.438  11.730  63.120  1.00  0.00    -0.218 NA 
ENDBRANCH   4   6
ENDBRANCH   1   4
BRANCH   1  16
HETATM   16  C   UNL     1      -9.851  13.957  68.368  1.00  0.00    -0.229 C  
HETATM   17  O   UNL     1     -11.318  16.619  70.275  1.00  0.00    -0.190 OA 
HETATM   18  N   UNL     1     -10.524  12.926  68.802  1.00  0.00    -0.205 NA 
HETATM   19  C   UNL     1     -11.455  13.095  69.831  1.00  0.00    -0.089 A  
HETATM   20  N   UNL     1     -10.052  15.241  68.877  1.00  0.00    -0.216 N  
HETATM   21  C   UNL     1     -11.055  15.505  69.821  1.00  0.00    -0.296 C  
HETATM   22  C   UNL     1     -12.073  11.961  70.374  1.00  0.00    -0.421 A  
HETATM   23  C   UNL     1     -11.798  14.347  70.333  1.00  0.00    -0.381 A  
HETATM   24  C   UNL     1     -13.033  12.079  71.383  1.00  0.00    -0.362 A  
HETATM   25  C   UNL     1     -13.399  13.339  71.845  1.00  0.00    -0.540 A  
HETATM   26  F   UNL     1     -13.160  15.663  71.790  1.00  0.00    -0.406 F  
HETATM   27  C   UNL     1     -12.781  14.468  71.317  1.00  0.00    -0.342 A  
BRANCH  20  28
HETATM   28  C   UNL     1      -9.270  16.364  68.467  1.00  0.00    -0.226 A  
HETATM   29  C   UNL     1      -9.706  17.220  67.449  1.00  0.00    -0.258 A  
HETATM   30  C   UNL     1      -8.949  18.343  67.107  1.00  0.00    -0.268 A  
HETATM   31  C   UNL     1      -7.752  18.611  67.769  1.00  0.00    -0.253 A  
HETATM   32  C   UNL     1      -7.286  17.735  68.746  1.00  0.00    -0.271 A  
HETATM   33  C   UNL     1      -8.029  16.605  69.078  1.00  0.00    -0.208 A  
ENDBRANCH  20  28
ENDBRANCH   1  16
TORSDOF 5
ENDMDL
MODEL       38
REMARK 921   NORMALIZED FREE ENERGY PREDICTED BY IDOCK:   -7.63 KCAL/MOL
REMARK 922        TOTAL FREE ENERGY PREDICTED BY IDOCK:   -9.93 KCAL/MOL
REMARK 923 INTER-LIGAND FREE ENERGY PREDICTED BY IDOCK:   -8.83 KCAL/MOL
REMARK 924 INTRA-LIGAND FREE ENERGY PREDICTED BY IDOCK:   -1.10 KCAL/MOL
REMARK 927      BINDING AFFINITY PREDICTED BY RF-SCORE:    0.00 PKD
ROOT
HETATM    1  C   UNL     1     -10.473  14.414  68.493  1.00  0.00    -0.254 C  
ENDROOT
BRANCH   1   2
HETATM    2  C   UNL     1     -10.496  13.292  67.436  1.00  0.00    -0.243 C  
HETATM    3  C   UNL     1     -11.805  13.141  66.678  1.00  0.00    -0.449 C  
ENDBRANCH   1   2
BRANCH   1   4
HETATM    4  N   UNL     1     -11.854  14.781  68.827  1.00  0.00    -0.420 NA 
HETATM    5  H   UNL     1     -12.431  15.221  68.109  1.00  0.00     0.000 HD 
BRANCH   4   6
HETATM    6  C   UNL     1     -12.403  14.553  70.072  1.00  0.00    -0.323 A  
HETATM    7  C   UNL     1     -13.189  13.165  71.843  1.00  0.00    -0.431 A  
HETATM    8  N   UNL     1     -13.618  14.163  72.627  1.00  0.00    -0.611 NA 
HETATM    9  N   UNL     1     -12.289  11.990  70.118  1.00  0.00    -0.204 NA 
HETATM   10  C   UNL     1     -13.390  15.349  72.036  1.00  0.00    -0.450 A  
HETATM   11  C   UNL     1     -12.733  11.159  71.048  1.00  0.00    -0.378 A  
HETATM   12  H   UNL     1     -11.831  11.751  69.238  1.00  0.00     0.000 HD 
HETATM   13  N   UNL     1     -12.828  15.597  70.834  1.00  0.00    -0.474 NA 
HETATM   14  C   UNL     1     -12.581  13.255  70.602  1.00  0.00    -0.231 A  
HETATM   15  N   UNL     1     -13.277  11.827  72.109  1.00  0.00    -0.414 NA 
ENDBRANCH   4   6
ENDBRANCH   1   4
BRANCH   1  16
HETATM   16  C   UNL     1      -9.734  15.718  68.006  1.00  0.00    -0.212 C  
HETATM   17  O   UNL     1      -6.463  16.947  67.191  1.00  0.00    -0.151 OA 
HETATM   18  N   UNL     1     -10.487  16.714  67.626  1.00  0.00    -0.313 NA 
HETATM   19  C   UNL     1      -9.891  17.886  67.149  1.00  0.00    -0.308 A  
HETATM   20  N   UNL     1      -8.342  15.767  67.923  1.00  0.00    -0.148 N  
HETATM   21  C   UNL     1      -7.682  16.859  67.340  1.00  0.00    -0.171 C  
HETATM   22  C   UNL     1     -10.705  18.990  66.869  1.00  0.00    -0.484 A  
HETATM   23  C   UNL     1      -8.520  17.994  66.935  1.00  0.00    -0.262 A  
HETATM   24  C   UNL     1     -10.160  20.174  66.361  1.00  0.00    -0.569 A  
HETATM   25  C   UNL     1      -8.795  20.255  66.110  1.00  0.00    -0.177 A  
HETATM   26  F   UNL     1      -6.670  19.282  66.142  1.00  0.00    -0.194 F  
HETATM   27  C   UNL     1      -7.980  19.164  66.396  1.00  0.00    -0.294 A  
BRANCH  20  28
HETATM   28  C   UNL     1      -7.503  14.717  68.406  1.00  0.00    -0.117 A  
HETATM   29  C   UNL     1      -7.047  14.703  69.729  1.00  0.00    -0.096 A  
HETATM   30  C   UNL     1      -6.274  13.635  70.193  1.00  0.00    -0.095 A  
HETATM   31  C   UNL     1      -5.946  12.584  69.338  1.00  0.00    -0.101 A  
HETATM   32  C   UNL     1      -6.352  12.617  68.006  1.00  0.00    -0.093 A  
HETATM   33  C   UNL     1      -7.107  13.689  67.536  1.00  0.00    -0.166 A  
ENDBRANCH  20  28
ENDBRANCH   1  16
TORSDOF 5
ENDMDL
MODEL       39
REMARK 921   NORMALIZED FREE ENERGY PREDICTED BY IDOCK:   -7.62 KCAL/MOL
REMARK 922        TOTAL FREE ENERGY PREDICTED BY IDOCK:   -9.92 KCAL/MOL
REMARK 923 INTER-LIGAND FREE ENERGY PREDICTED BY IDOCK:   -8.57 KCAL/MOL
REMARK 924 INTRA-LIGAND FREE ENERGY PREDICTED BY IDOCK:   -1.35 KCAL/MOL
REMARK 927      BINDING AFFINITY PREDICTED BY RF-SCORE:    0.00 PKD
ROOT
HETATM    1  C   UNL     1     -10.726  12.366  68.089  1.00  0.00    -0.221 C  
ENDROOT
BRANCH   1   2
HETATM    2  C   UNL     1     -10.997  13.731  68.753  1.00  0.00    -0.289 C  
HETATM    3  C   UNL     1      -9.826  14.701  68.744  1.00  0.00    -0.227 C  
ENDBRANCH   1   2
BRANCH   1   4
HETATM    4  N   UNL     1     -11.834  12.052  67.179  1.00  0.00    -0.604 NA 
HETATM    5  H   UNL     1     -12.636  11.538  67.543  1.00  0.00     0.000 HD 
BRANCH   4   6
HETATM    6  C   UNL     1     -11.833  12.425  65.851  1.00  0.00    -0.405 A  
HETATM    7  C   UNL     1     -11.115  12.264  63.583  1.00  0.00    -0.469 A  
HETATM    8  N   UNL     1     -11.824  13.307  63.134  1.00  0.00    -0.255 NA 
HETATM    9  N   UNL     1     -10.210  10.666  64.924  1.00  0.00    -0.331 NA 
HETATM   10  C   UNL     1     -12.525  13.861  64.140  1.00  0.00    -0.237 A  
HETATM   11  C   UNL     1      -9.746  10.537  63.691  1.00  0.00    -0.318 A  
HETATM   12  H   UNL     1      -9.988  10.088  65.734  1.00  0.00     0.000 HD 
HETATM   13  N   UNL     1     -12.566  13.495  65.438  1.00  0.00    -0.536 NA 
HETATM   14  C   UNL     1     -11.064  11.756  64.871  1.00  0.00    -0.285 A  
HETATM   15  N   UNL     1     -10.272  11.477  62.849  1.00  0.00    -0.229 NA 
ENDBRANCH   4   6
ENDBRANCH   1   4
BRANCH   1  16
HETATM   16  C   UNL     1     -10.601  11.182  69.120  1.00  0.00    -0.204 C  
HETATM   17  O   UNL     1      -8.172   8.981  70.581  1.00  0.00    -0.144 OA 
HETATM   18  N   UNL     1     -11.661  10.906  69.831  1.00  0.00    -0.307 NA 
HETATM   19  C   UNL     1     -11.603   9.889  70.790  1.00  0.00    -0.349 A  
HETATM   20  N   UNL     1      -9.390  10.514  69.306  1.00  0.00    -0.189 N  
HETATM   21  C   UNL     1      -9.224   9.571  70.331  1.00  0.00    -0.253 C  
HETATM   22  C   UNL     1     -12.780   9.518  71.451  1.00  0.00    -0.445 A  
HETATM   23  C   UNL     1     -10.418   9.237  71.117  1.00  0.00    -0.401 A  
HETATM   24  C   UNL     1     -12.768   8.528  72.439  1.00  0.00    -0.394 A  
HETATM   25  C   UNL     1     -11.569   7.915  72.788  1.00  0.00    -0.387 A  
HETATM   26  F   UNL     1      -9.266   7.657  72.491  1.00  0.00    -0.155 F  
HETATM   27  C   UNL     1     -10.399   8.272  72.127  1.00  0.00    -0.300 A  
BRANCH  20  28
HETATM   28  C   UNL     1      -8.246  10.751  68.484  1.00  0.00    -0.136 A  
HETATM   29  C   UNL     1      -7.971   9.945  67.373  1.00  0.00    -0.106 A  
HETATM   30  C   UNL     1      -6.877  10.233  66.553  1.00  0.00    -0.101 A  
HETATM   31  C   UNL     1      -6.048  11.316  66.843  1.00  0.00    -0.120 A  
HETATM   32  C   UNL     1      -6.285  12.090  67.976  1.00  0.00    -0.058 A  
HETATM   33  C   UNL     1      -7.365  11.795  68.806  1.00  0.00    -0.114 A  
ENDBRANCH  20  28
ENDBRANCH   1  16
TORSDOF 5
ENDMDL
MODEL       40
REMARK 921   NORMALIZED FREE ENERGY PREDICTED BY IDOCK:   -7.56 KCAL/MOL
REMARK 922        TOTAL FREE ENERGY PREDICTED BY IDOCK:   -9.84 KCAL/MOL
REMARK 923 INTER-LIGAND FREE ENERGY PREDICTED BY IDOCK:   -8.53 KCAL/MOL
REMARK 924 INTRA-LIGAND FREE ENERGY PREDICTED BY IDOCK:   -1.31 KCAL/MOL
REMARK 927      BINDING AFFINITY PREDICTED BY RF-SCORE:    0.00 PKD
ROOT
HETATM    1  C   UNL     1      -8.800  10.490  69.292  1.00  0.00    -0.122 C  
ENDROOT
BRANCH   1   2
HETATM    2  C   UNL     1      -7.432  11.190  69.414  1.00  0.00    -0.029 C  
HETATM    3  C   UNL     1      -6.418  10.482  70.298  1.00  0.00    -0.140 C  
ENDBRANCH   1   2
BRANCH   1   4
HETATM    4  N   UNL     1      -8.597   9.037  69.346  1.00  0.00    -0.133 NA 
HETATM    5  H   UNL     1      -7.647   8.672  69.267  1.00  0.00     0.000 HD 
BRANCH   4   6
HETATM    6  C   UNL     1      -9.640   8.147  69.500  1.00  0.00    -0.168 A  
HETATM    7  C   UNL     1     -11.299   6.992  70.763  1.00  0.00    -0.298 A  
HETATM    8  N   UNL     1     -11.740   6.228  69.756  1.00  0.00    -0.294 NA 
HETATM    9  N   UNL     1     -10.147   8.522  71.988  1.00  0.00    -0.287 NA 
HETATM   10  C   UNL     1     -11.055   6.501  68.631  1.00  0.00    -0.270 A  
HETATM   11  C   UNL     1     -11.025   7.898  72.756  1.00  0.00    -0.393 A  
HETATM   12  H   UNL     1      -9.498   9.261  72.260  1.00  0.00     0.000 HD 
HETATM   13  N   UNL     1     -10.053   7.387  68.449  1.00  0.00    -0.172 NA 
HETATM   14  C   UNL     1     -10.301   7.952  70.734  1.00  0.00    -0.203 A  
HETATM   15  N   UNL     1     -11.747   6.972  72.054  1.00  0.00    -0.285 NA 
ENDBRANCH   4   6
ENDBRANCH   1   4
BRANCH   1  16
HETATM   16  C   UNL     1      -9.554  10.818  67.947  1.00  0.00    -0.160 C  
HETATM   17  O   UNL     1     -12.411  12.594  66.699  1.00  0.00    -0.474 OA 
HETATM   18  N   UNL     1      -8.955  10.478  66.838  1.00  0.00    -0.140 NA 
HETATM   19  C   UNL     1      -9.557  10.775  65.611  1.00  0.00    -0.216 A  
HETATM   20  N   UNL     1     -10.769  11.504  67.954  1.00  0.00    -0.191 N  
HETATM   21  C   UNL     1     -11.367  11.944  66.763  1.00  0.00    -0.330 C  
HETATM   22  C   UNL     1      -8.969  10.290  64.437  1.00  0.00    -0.255 A  
HETATM   23  C   UNL     1     -10.714  11.542  65.512  1.00  0.00    -0.328 A  
HETATM   24  C   UNL     1      -9.514  10.586  63.184  1.00  0.00    -0.367 A  
HETATM   25  C   UNL     1     -10.646  11.390  63.095  1.00  0.00    -0.278 A  
HETATM   26  F   UNL     1     -12.330  12.635  64.132  1.00  0.00    -0.434 F  
HETATM   27  C   UNL     1     -11.240  11.866  64.259  1.00  0.00    -0.357 A  
BRANCH  20  28
HETATM   28  C   UNL     1     -11.473  11.815  69.157  1.00  0.00    -0.297 A  
HETATM   29  C   UNL     1     -11.505  13.119  69.663  1.00  0.00    -0.261 A  
HETATM   30  C   UNL     1     -12.248  13.407  70.811  1.00  0.00    -0.409 A  
HETATM   31  C   UNL     1     -12.951  12.395  71.463  1.00  0.00    -0.385 A  
HETATM   32  C   UNL     1     -12.881  11.086  70.996  1.00  0.00    -0.442 A  
HETATM   33  C   UNL     1     -12.126  10.792  69.862  1.00  0.00    -0.410 A  
ENDBRANCH  20  28
ENDBRANCH   1  16
TORSDOF 5
ENDMDL
MODEL       41
REMARK 921   NORMALIZED FREE ENERGY PREDICTED BY IDOCK:   -7.56 KCAL/MOL
REMARK 922        TOTAL FREE ENERGY PREDICTED BY IDOCK:   -9.84 KCAL/MOL
REMARK 923 INTER-LIGAND FREE ENERGY PREDICTED BY IDOCK:   -8.48 KCAL/MOL
REMARK 924 INTRA-LIGAND FREE ENERGY PREDICTED BY IDOCK:   -1.36 KCAL/MOL
REMARK 927      BINDING AFFINITY PREDICTED BY RF-SCORE:    0.00 PKD
ROOT
HETATM    1  C   UNL     1      -9.299  12.116  67.738  1.00  0.00    -0.193 C  
ENDROOT
BRANCH   1   2
HETATM    2  C   UNL     1      -8.007  12.564  68.450  1.00  0.00    -0.139 C  
HETATM    3  C   UNL     1      -7.085  11.438  68.891  1.00  0.00    -0.109 C  
ENDBRANCH   1   2
BRANCH   1   4
HETATM    4  N   UNL     1     -10.302  13.181  67.861  1.00  0.00    -0.226 NA 
HETATM    5  H   UNL     1     -10.735  13.343  68.770  1.00  0.00     0.000 HD 
BRANCH   4   6
HETATM    6  C   UNL     1     -10.681  13.970  66.794  1.00  0.00    -0.285 A  
HETATM    7  C   UNL     1     -11.783  14.380  64.720  1.00  0.00    -0.416 A  
HETATM    8  N   UNL     1     -11.359  15.642  64.580  1.00  0.00    -0.406 NA 
HETATM    9  N   UNL     1     -12.145  12.285  65.527  1.00  0.00    -0.553 NA 
HETATM   10  C   UNL     1     -10.584  15.990  65.622  1.00  0.00    -0.377 A  
HETATM   11  C   UNL     1     -12.756  12.432  64.362  1.00  0.00    -0.342 A  
HETATM   12  H   UNL     1     -12.137  11.458  66.124  1.00  0.00     0.000 HD 
HETATM   13  N   UNL     1     -10.224  15.247  66.690  1.00  0.00    -0.264 NA 
HETATM   14  C   UNL     1     -11.519  13.499  65.757  1.00  0.00    -0.315 A  
HETATM   15  N   UNL     1     -12.569  13.684  63.845  1.00  0.00    -0.694 NA 
ENDBRANCH   4   6
ENDBRANCH   1   4
BRANCH   1  16
HETATM   16  C   UNL     1      -9.921  10.799  68.338  1.00  0.00    -0.164 C  
HETATM   17  O   UNL     1     -10.003   7.249  67.820  1.00  0.00    -0.152 OA 
HETATM   18  N   UNL     1     -10.535  10.908  69.485  1.00  0.00    -0.185 NA 
HETATM   19  C   UNL     1     -11.077   9.767  70.087  1.00  0.00    -0.285 A  
HETATM   20  N   UNL     1      -9.754   9.569  67.700  1.00  0.00    -0.149 N  
HETATM   21  C   UNL     1     -10.162   8.370  68.304  1.00  0.00    -0.205 C  
HETATM   22  C   UNL     1     -11.844   9.919  71.249  1.00  0.00    -0.479 A  
HETATM   23  C   UNL     1     -10.877   8.487  69.580  1.00  0.00    -0.157 A  
HETATM   24  C   UNL     1     -12.382   8.807  71.905  1.00  0.00    -0.429 A  
HETATM   25  C   UNL     1     -12.137   7.529  71.414  1.00  0.00    -0.354 A  
HETATM   26  F   UNL     1     -11.174   6.127  69.812  1.00  0.00    -0.366 F  
HETATM   27  C   UNL     1     -11.385   7.374  70.254  1.00  0.00    -0.221 A  
BRANCH  20  28
HETATM   28  C   UNL     1      -9.154   9.445  66.410  1.00  0.00    -0.161 A  
HETATM   29  C   UNL     1      -9.870   9.739  65.244  1.00  0.00    -0.335 A  
HETATM   30  C   UNL     1      -9.242   9.665  63.998  1.00  0.00    -0.202 A  
HETATM   31  C   UNL     1      -7.903   9.288  63.909  1.00  0.00    -0.130 A  
HETATM   32  C   UNL     1      -7.199   8.943  65.060  1.00  0.00    -0.091 A  
HETATM   33  C   UNL     1      -7.827   8.998  66.302  1.00  0.00    -0.099 A  
ENDBRANCH  20  28
ENDBRANCH   1  16
TORSDOF 5
ENDMDL
MODEL       42
REMARK 921   NORMALIZED FREE ENERGY PREDICTED BY IDOCK:   -7.56 KCAL/MOL
REMARK 922        TOTAL FREE ENERGY PREDICTED BY IDOCK:   -9.84 KCAL/MOL
REMARK 923 INTER-LIGAND FREE ENERGY PREDICTED BY IDOCK:   -8.71 KCAL/MOL
REMARK 924 INTRA-LIGAND FREE ENERGY PREDICTED BY IDOCK:   -1.13 KCAL/MOL
REMARK 927      BINDING AFFINITY PREDICTED BY RF-SCORE:    0.00 PKD
ROOT
HETATM    1  C   UNL     1     -11.472  12.999  69.626  1.00  0.00    -0.183 C  
ENDROOT
BRANCH   1   2
HETATM    2  C   UNL     1     -11.946  13.879  70.799  1.00  0.00    -0.348 C  
HETATM    3  C   UNL     1     -11.385  15.292  70.817  1.00  0.00    -0.365 C  
ENDBRANCH   1   2
BRANCH   1   4
HETATM    4  N   UNL     1     -12.276  13.314  68.439  1.00  0.00    -0.186 NA 
HETATM    5  H   UNL     1     -13.253  13.022  68.418  1.00  0.00     0.000 HD 
BRANCH   4   6
HETATM    6  C   UNL     1     -11.762  13.991  67.352  1.00  0.00    -0.388 A  
HETATM    7  C   UNL     1     -11.289  14.268  65.032  1.00  0.00    -0.365 A  
HETATM    8  N   UNL     1     -10.601  15.410  65.162  1.00  0.00    -0.420 NA 
HETATM    9  N   UNL     1     -12.507  12.402  65.479  1.00  0.00    -0.591 NA 
HETATM   10  C   UNL     1     -10.546  15.775  66.455  1.00  0.00    -0.306 A  
HETATM   11  C   UNL     1     -12.254  12.476  64.182  1.00  0.00    -0.467 A  
HETATM   12  H   UNL     1     -13.038  11.681  65.969  1.00  0.00     0.000 HD 
HETATM   13  N   UNL     1     -11.067  15.147  67.531  1.00  0.00    -0.312 NA 
HETATM   14  C   UNL     1     -11.895  13.518  66.027  1.00  0.00    -0.379 A  
HETATM   15  N   UNL     1     -11.528  13.591  63.869  1.00  0.00    -0.315 NA 
ENDBRANCH   4   6
ENDBRANCH   1   4
BRANCH   1  16
HETATM   16  C   UNL     1     -11.614  11.454  69.905  1.00  0.00    -0.323 C  
HETATM   17  O   UNL     1      -9.796   8.375  69.611  1.00  0.00    -0.179 OA 
HETATM   18  N   UNL     1     -12.663  11.072  70.580  1.00  0.00    -0.313 NA 
HETATM   19  C   UNL     1     -12.827   9.718  70.891  1.00  0.00    -0.237 A  
HETATM   20  N   UNL     1     -10.623  10.557  69.505  1.00  0.00    -0.237 N  
HETATM   21  C   UNL     1     -10.659   9.208  69.887  1.00  0.00    -0.230 C  
HETATM   22  C   UNL     1     -14.019   9.306  71.501  1.00  0.00    -0.261 A  
HETATM   23  C   UNL     1     -11.849   8.765  70.624  1.00  0.00    -0.137 A  
HETATM   24  C   UNL     1     -14.218   7.969  71.859  1.00  0.00    -0.514 A  
HETATM   25  C   UNL     1     -13.214   7.035  71.628  1.00  0.00    -0.368 A  
HETATM   26  F   UNL     1     -11.092   6.506  70.805  1.00  0.00    -0.274 F  
HETATM   27  C   UNL     1     -12.033   7.437  71.013  1.00  0.00    -0.306 A  
BRANCH  20  28
HETATM   28  C   UNL     1      -9.509  10.947  68.699  1.00  0.00    -0.190 A  
HETATM   29  C   UNL     1      -9.633  11.097  67.313  1.00  0.00    -0.182 A  
HETATM   30  C   UNL     1      -8.544  11.535  66.556  1.00  0.00    -0.172 A  
HETATM   31  C   UNL     1      -7.326  11.814  67.175  1.00  0.00    -0.146 A  
HETATM   32  C   UNL     1      -7.180  11.616  68.545  1.00  0.00    -0.094 A  
HETATM   33  C   UNL     1      -8.259  11.162  69.301  1.00  0.00     0.075 A  
ENDBRANCH  20  28
ENDBRANCH   1  16
TORSDOF 5
ENDMDL
MODEL       43
REMARK 921   NORMALIZED FREE ENERGY PREDICTED BY IDOCK:   -7.56 KCAL/MOL
REMARK 922        TOTAL FREE ENERGY PREDICTED BY IDOCK:   -9.83 KCAL/MOL
REMARK 923 INTER-LIGAND FREE ENERGY PREDICTED BY IDOCK:   -9.17 KCAL/MOL
REMARK 924 INTRA-LIGAND FREE ENERGY PREDICTED BY IDOCK:   -0.66 KCAL/MOL
REMARK 927      BINDING AFFINITY PREDICTED BY RF-SCORE:    0.00 PKD
ROOT
HETATM    1  C   UNL     1     -11.505  14.058  66.613  1.00  0.00    -0.364 C  
ENDROOT
BRANCH   1   2
HETATM    2  C   UNL     1     -12.643  13.994  65.576  1.00  0.00    -0.543 C  
HETATM    3  C   UNL     1     -12.201  14.039  64.123  1.00  0.00    -0.433 C  
ENDBRANCH   1   2
BRANCH   1   4
HETATM    4  N   UNL     1     -10.256  14.412  65.926  1.00  0.00    -0.310 NA 
HETATM    5  H   UNL     1      -9.856  13.748  65.264  1.00  0.00     0.000 HD 
BRANCH   4   6
HETATM    6  C   UNL     1      -9.604  15.609  66.142  1.00  0.00    -0.330 A  
HETATM    7  C   UNL     1      -7.772  16.946  66.877  1.00  0.00    -0.217 A  
HETATM    8  N   UNL     1      -8.352  18.128  66.634  1.00  0.00    -0.255 NA 
HETATM    9  N   UNL     1      -7.375  14.713  67.045  1.00  0.00    -0.333 NA 
HETATM   10  C   UNL     1      -9.586  17.947  66.132  1.00  0.00    -0.178 A  
HETATM   11  C   UNL     1      -6.333  15.393  67.498  1.00  0.00    -0.118 A  
HETATM   12  H   UNL     1      -7.479  13.700  66.989  1.00  0.00     0.000 HD 
HETATM   13  N   UNL     1     -10.232  16.788  65.884  1.00  0.00    -0.463 NA 
HETATM   14  C   UNL     1      -8.291  15.679  66.662  1.00  0.00    -0.275 A  
HETATM   15  N   UNL     1      -6.529  16.743  67.408  1.00  0.00    -0.147 NA 
ENDBRANCH   4   6
ENDBRANCH   1   4
BRANCH   1  16
HETATM   16  C   UNL     1     -11.267  12.695  67.367  1.00  0.00    -0.290 C  
HETATM   17  O   UNL     1     -11.623  11.182  70.601  1.00  0.00    -0.286 OA 
HETATM   18  N   UNL     1     -10.946  11.664  66.633  1.00  0.00    -0.287 NA 
HETATM   19  C   UNL     1     -10.758  10.418  67.239  1.00  0.00    -0.273 A  
HETATM   20  N   UNL     1     -11.463  12.591  68.744  1.00  0.00    -0.286 N  
HETATM   21  C   UNL     1     -11.413  11.352  69.400  1.00  0.00    -0.310 C  
HETATM   22  C   UNL     1     -10.288   9.354  66.460  1.00  0.00    -0.268 A  
HETATM   23  C   UNL     1     -11.026  10.193  68.586  1.00  0.00    -0.273 A  
HETATM   24  C   UNL     1     -10.112   8.081  67.013  1.00  0.00    -0.350 A  
HETATM   25  C   UNL     1     -10.427   7.858  68.349  1.00  0.00    -0.207 A  
HETATM   26  F   UNL     1     -11.174   8.660  70.413  1.00  0.00    -0.249 F  
HETATM   27  C   UNL     1     -10.884   8.915  69.130  1.00  0.00    -0.070 A  
BRANCH  20  28
HETATM   28  C   UNL     1     -11.738  13.723  69.571  1.00  0.00    -0.323 A  
HETATM   29  C   UNL     1     -12.874  13.767  70.388  1.00  0.00    -0.160 A  
HETATM   30  C   UNL     1     -13.090  14.861  71.230  1.00  0.00    -0.448 A  
HETATM   31  C   UNL     1     -12.181  15.919  71.252  1.00  0.00    -0.473 A  
HETATM   32  C   UNL     1     -11.077  15.906  70.404  1.00  0.00    -0.382 A  
HETATM   33  C   UNL     1     -10.869  14.825  69.551  1.00  0.00    -0.268 A  
ENDBRANCH  20  28
ENDBRANCH   1  16
TORSDOF 5
ENDMDL
MODEL       44
REMARK 921   NORMALIZED FREE ENERGY PREDICTED BY IDOCK:   -7.55 KCAL/MOL
REMARK 922        TOTAL FREE ENERGY PREDICTED BY IDOCK:   -9.83 KCAL/MOL
REMARK 923 INTER-LIGAND FREE ENERGY PREDICTED BY IDOCK:   -8.33 KCAL/MOL
REMARK 924 INTRA-LIGAND FREE ENERGY PREDICTED BY IDOCK:   -1.49 KCAL/MOL
REMARK 927      BINDING AFFINITY PREDICTED BY RF-SCORE:    0.00 PKD
ROOT
HETATM    1  C   UNL     1     -10.972  11.954  65.998  1.00  0.00    -0.309 C  
ENDROOT
BRANCH   1   2
HETATM    2  C   UNL     1     -11.997  12.506  64.987  1.00  0.00    -0.478 C  
HETATM    3  C   UNL     1     -11.470  12.715  63.577  1.00  0.00    -0.557 C  
ENDBRANCH   1   2
BRANCH   1   4
HETATM    4  N   UNL     1     -10.902  10.495  65.855  1.00  0.00     0.008 NA 
HETATM    5  H   UNL     1     -11.713  10.000  65.484  1.00  0.00     0.000 HD 
BRANCH   4   6
HETATM    6  C   UNL     1      -9.782   9.768  66.204  1.00  0.00    -0.246 A  
HETATM    7  C   UNL     1      -8.569   8.222  67.552  1.00  0.00    -0.129 A  
HETATM    8  N   UNL     1      -7.401   8.359  66.912  1.00  0.00    -0.083 NA 
HETATM    9  N   UNL     1     -10.745   8.434  68.173  1.00  0.00    -0.438 NA 
HETATM   10  C   UNL     1      -7.523   9.243  65.906  1.00  0.00    -0.095 A  
HETATM   11  C   UNL     1     -10.125   7.589  68.981  1.00  0.00    -0.192 A  
HETATM   12  H   UNL     1     -11.724   8.719  68.204  1.00  0.00     0.000 HD 
HETATM   13  N   UNL     1      -8.614   9.943  65.527  1.00  0.00    -0.138 NA 
HETATM   14  C   UNL     1      -9.773   8.849  67.277  1.00  0.00    -0.181 A  
HETATM   15  N   UNL     1      -8.812   7.426  68.636  1.00  0.00    -0.127 NA 
ENDBRANCH   4   6
ENDBRANCH   1   4
BRANCH   1  16
HETATM   16  C   UNL     1     -11.338  12.272  67.497  1.00  0.00    -0.325 C  
HETATM   17  O   UNL     1     -11.428  14.984  69.845  1.00  0.00    -0.256 OA 
HETATM   18  N   UNL     1     -11.932  11.326  68.172  1.00  0.00    -0.641 NA 
HETATM   19  C   UNL     1     -12.315  11.560  69.497  1.00  0.00    -0.124 A  
HETATM   20  N   UNL     1     -11.097  13.533  68.044  1.00  0.00    -0.250 N  
HETATM   21  C   UNL     1     -11.563  13.878  69.322  1.00  0.00    -0.309 C  
HETATM   22  C   UNL     1     -12.833  10.497  70.246  1.00  0.00    -0.192 A  
HETATM   23  C   UNL     1     -12.209  12.811  70.096  1.00  0.00    -0.320 A  
HETATM   24  C   UNL     1     -13.258  10.687  71.565  1.00  0.00    -0.460 A  
HETATM   25  C   UNL     1     -13.187  11.952  72.139  1.00  0.00    -0.366 A  
HETATM   26  F   UNL     1     -12.612  14.212  71.990  1.00  0.00    -0.377 F  
HETATM   27  C   UNL     1     -12.665  13.010  71.401  1.00  0.00    -0.281 A  
BRANCH  20  28
HETATM   28  C   UNL     1     -10.379  14.552  67.346  1.00  0.00    -0.252 A  
HETATM   29  C   UNL     1      -8.980  14.590  67.355  1.00  0.00    -0.207 A  
HETATM   30  C   UNL     1      -8.302  15.564  66.617  1.00  0.00    -0.286 A  
HETATM   31  C   UNL     1      -9.014  16.507  65.878  1.00  0.00    -0.165 A  
HETATM   32  C   UNL     1     -10.406  16.508  65.907  1.00  0.00    -0.365 A  
HETATM   33  C   UNL     1     -11.086  15.550  66.656  1.00  0.00    -0.193 A  
ENDBRANCH  20  28
ENDBRANCH   1  16
TORSDOF 5
ENDMDL
MODEL       45
REMARK 921   NORMALIZED FREE ENERGY PREDICTED BY IDOCK:   -7.53 KCAL/MOL
REMARK 922        TOTAL FREE ENERGY PREDICTED BY IDOCK:   -9.80 KCAL/MOL
REMARK 923 INTER-LIGAND FREE ENERGY PREDICTED BY IDOCK:   -8.31 KCAL/MOL
REMARK 924 INTRA-LIGAND FREE ENERGY PREDICTED BY IDOCK:   -1.49 KCAL/MOL
REMARK 927      BINDING AFFINITY PREDICTED BY RF-SCORE:    0.00 PKD
ROOT
HETATM    1  C   UNL     1     -11.347  10.124  69.252  1.00  0.00    -0.156 C  
ENDROOT
BRANCH   1   2
HETATM    2  C   UNL     1     -12.527  10.635  70.102  1.00  0.00    -0.342 C  
HETATM    3  C   UNL     1     -12.828   9.821  71.350  1.00  0.00    -0.489 C  
ENDBRANCH   1   2
BRANCH   1   4
HETATM    4  N   UNL     1     -10.094  10.395  69.967  1.00  0.00    -0.436 NA 
HETATM    5  H   UNL     1      -9.843  11.364  70.165  1.00  0.00     0.000 HD 
BRANCH   4   6
HETATM    6  C   UNL     1      -9.243   9.391  70.380  1.00  0.00    -0.257 A  
HETATM    7  C   UNL     1      -7.105   8.480  70.910  1.00  0.00    -0.063 A  
HETATM    8  N   UNL     1      -7.537   7.239  71.165  1.00  0.00    -0.079 NA 
HETATM    9  N   UNL     1      -7.028  10.687  70.367  1.00  0.00    -0.471 NA 
HETATM   10  C   UNL     1      -8.870   7.167  70.999  1.00  0.00    -0.145 A  
HETATM   11  C   UNL     1      -5.807  10.240  70.617  1.00  0.00    -0.102 A  
HETATM   12  H   UNL     1      -7.302  11.634  70.107  1.00  0.00     0.000 HD 
HETATM   13  N   UNL     1      -9.725   8.142  70.626  1.00  0.00    -0.170 NA 
HETATM   14  C   UNL     1      -7.852   9.585  70.537  1.00  0.00    -0.157 A  
HETATM   15  N   UNL     1      -5.810   8.916  70.955  1.00  0.00    -0.038 NA 
ENDBRANCH   4   6
ENDBRANCH   1   4
BRANCH   1  16
HETATM   16  C   UNL     1     -11.250  10.812  67.837  1.00  0.00    -0.318 C  
HETATM   17  O   UNL     1     -10.139  10.180  64.484  1.00  0.00    -0.304 OA 
HETATM   18  N   UNL     1     -11.860  11.957  67.696  1.00  0.00    -0.583 NA 
HETATM   19  C   UNL     1     -11.842  12.599  66.454  1.00  0.00    -0.402 A  
HETATM   20  N   UNL     1     -10.601  10.182  66.775  1.00  0.00    -0.202 N  
HETATM   21  C   UNL     1     -10.647  10.706  65.474  1.00  0.00    -0.110 C  
HETATM   22  C   UNL     1     -12.387  13.885  66.352  1.00  0.00    -0.468 A  
HETATM   23  C   UNL     1     -11.308  12.007  65.313  1.00  0.00    -0.366 A  
HETATM   24  C   UNL     1     -12.420  14.557  65.126  1.00  0.00    -0.286 A  
HETATM   25  C   UNL     1     -11.924  13.936  63.984  1.00  0.00    -0.425 A  
HETATM   26  F   UNL     1     -10.903  12.101  62.960  1.00  0.00    -0.411 F  
HETATM   27  C   UNL     1     -11.372  12.663  64.082  1.00  0.00    -0.383 A  
BRANCH  20  28
HETATM   28  C   UNL     1      -9.864   8.968  66.932  1.00  0.00    -0.224 A  
HETATM   29  C   UNL     1      -8.467   8.972  67.010  1.00  0.00    -0.120 A  
HETATM   30  C   UNL     1      -7.774   7.777  67.221  1.00  0.00    -0.113 A  
HETATM   31  C   UNL     1      -8.469   6.575  67.344  1.00  0.00    -0.119 A  
HETATM   32  C   UNL     1      -9.855   6.557  67.213  1.00  0.00    -0.175 A  
HETATM   33  C   UNL     1     -10.548   7.744  66.985  1.00  0.00    -0.396 A  
ENDBRANCH  20  28
ENDBRANCH   1  16
TORSDOF 5
ENDMDL
MODEL       46
REMARK 921   NORMALIZED FREE ENERGY PREDICTED BY IDOCK:   -7.52 KCAL/MOL
REMARK 922        TOTAL FREE ENERGY PREDICTED BY IDOCK:   -9.78 KCAL/MOL
REMARK 923 INTER-LIGAND FREE ENERGY PREDICTED BY IDOCK:   -8.78 KCAL/MOL
REMARK 924 INTRA-LIGAND FREE ENERGY PREDICTED BY IDOCK:   -1.00 KCAL/MOL
REMARK 927      BINDING AFFINITY PREDICTED BY RF-SCORE:    0.00 PKD
ROOT
HETATM    1  C   UNL     1      -8.804  10.516  69.329  1.00  0.00    -0.122 C  
ENDROOT
BRANCH   1   2
HETATM    2  C   UNL     1      -7.322  10.939  69.322  1.00  0.00    -0.125 C  
HETATM    3  C   UNL     1      -6.324   9.802  69.180  1.00  0.00    -0.040 C  
ENDBRANCH   1   2
BRANCH   1   4
HETATM    4  N   UNL     1      -8.884   9.069  69.559  1.00  0.00    -0.141 NA 
HETATM    5  H   UNL     1      -8.642   8.438  68.795  1.00  0.00     0.000 HD 
BRANCH   4   6
HETATM    6  C   UNL     1      -9.275   8.529  70.767  1.00  0.00    -0.172 A  
HETATM    7  C   UNL     1     -10.760   7.329  72.195  1.00  0.00    -0.219 A  
HETATM    8  N   UNL     1     -10.055   7.511  73.319  1.00  0.00    -0.302 NA 
HETATM    9  N   UNL     1     -11.445   7.375  70.027  1.00  0.00    -0.477 NA 
HETATM   10  C   UNL     1      -8.948   8.230  73.062  1.00  0.00    -0.241 A  
HETATM   11  C   UNL     1     -12.329   6.723  70.767  1.00  0.00    -0.232 A  
HETATM   12  H   UNL     1     -11.482   7.547  69.023  1.00  0.00     0.000 HD 
HETATM   13  N   UNL     1      -8.530   8.742  71.886  1.00  0.00    -0.351 NA 
HETATM   14  C   UNL     1     -10.459   7.771  70.917  1.00  0.00    -0.206 A  
HETATM   15  N   UNL     1     -11.949   6.667  72.079  1.00  0.00    -0.323 NA 
ENDBRANCH   4   6
ENDBRANCH   1   4
BRANCH   1  16
HETATM   16  C   UNL     1      -9.552  10.830  67.978  1.00  0.00    -0.163 C  
HETATM   17  O   UNL     1     -12.401  12.595  66.695  1.00  0.00    -0.474 OA 
HETATM   18  N   UNL     1      -8.949  10.475  66.876  1.00  0.00    -0.140 NA 
HETATM   19  C   UNL     1      -9.545  10.759  65.642  1.00  0.00    -0.216 A  
HETATM   20  N   UNL     1     -10.766  11.518  67.971  1.00  0.00    -0.192 N  
HETATM   21  C   UNL     1     -11.359  11.944  66.772  1.00  0.00    -0.330 C  
HETATM   22  C   UNL     1      -8.952  10.258  64.477  1.00  0.00    -0.247 A  
HETATM   23  C   UNL     1     -10.701  11.526  65.529  1.00  0.00    -0.328 A  
HETATM   24  C   UNL     1      -9.492  10.540  63.218  1.00  0.00    -0.360 A  
HETATM   25  C   UNL     1     -10.622  11.344  63.114  1.00  0.00    -0.278 A  
HETATM   26  F   UNL     1     -12.308  12.605  64.128  1.00  0.00    -0.434 F  
HETATM   27  C   UNL     1     -11.221  11.835  64.270  1.00  0.00    -0.344 A  
BRANCH  20  28
HETATM   28  C   UNL     1     -11.474  11.844  69.167  1.00  0.00    -0.296 A  
HETATM   29  C   UNL     1     -12.072  10.850  69.951  1.00  0.00    -0.428 A  
HETATM   30  C   UNL     1     -12.710  11.190  71.146  1.00  0.00    -0.510 A  
HETATM   31  C   UNL     1     -12.764  12.520  71.559  1.00  0.00    -0.325 A  
HETATM   32  C   UNL     1     -12.218  13.520  70.759  1.00  0.00    -0.417 A  
HETATM   33  C   UNL     1     -11.597  13.186  69.557  1.00  0.00    -0.347 A  
ENDBRANCH  20  28
ENDBRANCH   1  16
TORSDOF 5
ENDMDL
MODEL       47
REMARK 921   NORMALIZED FREE ENERGY PREDICTED BY IDOCK:   -7.51 KCAL/MOL
REMARK 922        TOTAL FREE ENERGY PREDICTED BY IDOCK:   -9.78 KCAL/MOL
REMARK 923 INTER-LIGAND FREE ENERGY PREDICTED BY IDOCK:   -8.71 KCAL/MOL
REMARK 924 INTRA-LIGAND FREE ENERGY PREDICTED BY IDOCK:   -1.07 KCAL/MOL
REMARK 927      BINDING AFFINITY PREDICTED BY RF-SCORE:    0.00 PKD
ROOT
HETATM    1  C   UNL     1     -11.605  13.357  68.044  1.00  0.00    -0.334 C  
ENDROOT
BRANCH   1   2
HETATM    2  C   UNL     1     -12.032  12.978  66.613  1.00  0.00    -0.453 C  
HETATM    3  C   UNL     1     -12.701  14.089  65.819  1.00  0.00    -0.487 C  
ENDBRANCH   1   2
BRANCH   1   4
HETATM    4  N   UNL     1     -10.246  13.911  68.004  1.00  0.00    -0.240 NA 
HETATM    5  H   UNL     1      -9.462  13.275  67.866  1.00  0.00     0.000 HD 
BRANCH   4   6
HETATM    6  C   UNL     1      -9.990  15.260  68.148  1.00  0.00    -0.221 A  
HETATM    7  C   UNL     1      -8.586  17.137  68.579  1.00  0.00    -0.258 A  
HETATM    8  N   UNL     1      -9.555  18.059  68.509  1.00  0.00    -0.323 NA 
HETATM    9  N   UNL     1      -7.459  15.163  68.562  1.00  0.00    -0.116 NA 
HETATM   10  C   UNL     1     -10.736  17.473  68.246  1.00  0.00    -0.309 A  
HETATM   11  C   UNL     1      -6.628  16.155  68.838  1.00  0.00    -0.138 A  
HETATM   12  H   UNL     1      -7.237  14.171  68.479  1.00  0.00     0.000 HD 
HETATM   13  N   UNL     1     -11.006  16.162  68.072  1.00  0.00    -0.342 NA 
HETATM   14  C   UNL     1      -8.696  15.767  68.409  1.00  0.00    -0.177 A  
HETATM   15  N   UNL     1      -7.266  17.364  68.851  1.00  0.00    -0.252 NA 
ENDBRANCH   4   6
ENDBRANCH   1   4
BRANCH   1  16
HETATM   16  C   UNL     1     -11.596  12.135  69.039  1.00  0.00    -0.319 C  
HETATM   17  O   UNL     1     -12.799  11.143  72.271  1.00  0.00    -0.193 OA 
HETATM   18  N   UNL     1     -11.117  11.009  68.584  1.00  0.00    -0.218 NA 
HETATM   19  C   UNL     1     -11.115   9.878  69.407  1.00  0.00    -0.199 A  
HETATM   20  N   UNL     1     -12.141  12.246  70.319  1.00  0.00    -0.336 N  
HETATM   21  C   UNL     1     -12.285  11.126  71.152  1.00  0.00    -0.282 C  
HETATM   22  C   UNL     1     -10.482   8.715  68.952  1.00  0.00    -0.211 A  
HETATM   23  C   UNL     1     -11.725   9.862  70.658  1.00  0.00    -0.404 A  
HETATM   24  C   UNL     1     -10.479   7.549  69.725  1.00  0.00    -0.232 A  
HETATM   25  C   UNL     1     -11.130   7.533  70.954  1.00  0.00    -0.279 A  
HETATM   26  F   UNL     1     -12.366   8.633  72.604  1.00  0.00    -0.446 F  
HETATM   27  C   UNL     1     -11.752   8.689  71.415  1.00  0.00    -0.297 A  
BRANCH  20  28
HETATM   28  C   UNL     1     -12.596  13.487  70.858  1.00  0.00    -0.337 A  
HETATM   29  C   UNL     1     -13.962  13.760  70.999  1.00  0.00     0.364 A  
HETATM   30  C   UNL     1     -14.380  14.959  71.583  1.00  0.00    -0.660 A  
HETATM   31  C   UNL     1     -13.441  15.893  72.017  1.00  0.00    -0.307 A  
HETATM   32  C   UNL     1     -12.082  15.652  71.832  1.00  0.00    -0.513 A  
HETATM   33  C   UNL     1     -11.662  14.465  71.234  1.00  0.00    -0.189 A  
ENDBRANCH  20  28
ENDBRANCH   1  16
TORSDOF 5
ENDMDL
MODEL       48
REMARK 921   NORMALIZED FREE ENERGY PREDICTED BY IDOCK:   -7.50 KCAL/MOL
REMARK 922        TOTAL FREE ENERGY PREDICTED BY IDOCK:   -9.76 KCAL/MOL
REMARK 923 INTER-LIGAND FREE ENERGY PREDICTED BY IDOCK:   -9.48 KCAL/MOL
REMARK 924 INTRA-LIGAND FREE ENERGY PREDICTED BY IDOCK:   -0.28 KCAL/MOL
REMARK 927      BINDING AFFINITY PREDICTED BY RF-SCORE:    0.00 PKD
ROOT
HETATM    1  C   UNL     1     -10.937  16.501  68.981  1.00  0.00    -0.306 C  
ENDROOT
BRANCH   1   2
HETATM    2  C   UNL     1     -10.098  17.770  68.739  1.00  0.00    -0.381 C  
HETATM    3  C   UNL     1     -10.478  18.575  67.507  1.00  0.00    -0.453 C  
ENDBRANCH   1   2
BRANCH   1   4
HETATM    4  N   UNL     1     -10.583  15.939  70.290  1.00  0.00    -0.296 NA 
HETATM    5  H   UNL     1      -9.598  15.885  70.550  1.00  0.00     0.000 HD 
BRANCH   4   6
HETATM    6  C   UNL     1     -11.531  15.482  71.183  1.00  0.00    -0.390 A  
HETATM    7  C   UNL     1     -13.002  13.839  72.087  1.00  0.00    -0.343 A  
HETATM    8  N   UNL     1     -13.551  14.633  73.015  1.00  0.00    -0.568 NA 
HETATM    9  N   UNL     1     -11.721  13.051  70.382  1.00  0.00    -0.540 NA 
HETATM   10  C   UNL     1     -13.013  15.864  72.950  1.00  0.00    -0.499 A  
HETATM   11  C   UNL     1     -12.534  12.100  70.813  1.00  0.00    -0.271 A  
HETATM   12  H   UNL     1     -11.030  12.986  69.635  1.00  0.00     0.000 HD 
HETATM   13  N   UNL     1     -12.065  16.326  72.108  1.00  0.00    -0.496 NA 
HETATM   14  C   UNL     1     -12.015  14.154  71.168  1.00  0.00    -0.239 A  
HETATM   15  N   UNL     1     -13.319  12.531  71.846  1.00  0.00    -0.443 NA 
ENDBRANCH   4   6
ENDBRANCH   1   4
BRANCH   1  16
HETATM   16  C   UNL     1     -10.703  15.379  67.899  1.00  0.00    -0.286 C  
HETATM   17  O   UNL     1      -8.184  13.119  66.707  1.00  0.00    -0.036 OA 
HETATM   18  N   UNL     1     -11.751  14.972  67.237  1.00  0.00    -0.289 NA 
HETATM   19  C   UNL     1     -11.614  13.953  66.289  1.00  0.00    -0.365 A  
HETATM   20  N   UNL     1      -9.443  14.807  67.718  1.00  0.00    -0.202 N  
HETATM   21  C   UNL     1      -9.255  13.701  66.876  1.00  0.00    -0.250 C  
HETATM   22  C   UNL     1     -12.718  13.617  65.495  1.00  0.00    -0.514 A  
HETATM   23  C   UNL     1     -10.424  13.254  66.108  1.00  0.00    -0.296 A  
HETATM   24  C   UNL     1     -12.640  12.585  64.555  1.00  0.00    -0.503 A  
HETATM   25  C   UNL     1     -11.458  11.865  64.415  1.00  0.00    -0.393 A  
HETATM   26  F   UNL     1      -9.236  11.485  65.027  1.00  0.00    -0.211 F  
HETATM   27  C   UNL     1     -10.356  12.201  65.193  1.00  0.00    -0.279 A  
BRANCH  20  28
HETATM   28  C   UNL     1      -8.273  15.294  68.378  1.00  0.00    -0.146 A  
HETATM   29  C   UNL     1      -7.528  16.354  67.847  1.00  0.00    -0.151 A  
HETATM   30  C   UNL     1      -6.421  16.848  68.542  1.00  0.00    -0.161 A  
HETATM   31  C   UNL     1      -6.047  16.282  69.760  1.00  0.00    -0.198 A  
HETATM   32  C   UNL     1      -6.751  15.194  70.267  1.00  0.00    -0.000 A  
HETATM   33  C   UNL     1      -7.845  14.687  69.569  1.00  0.00     0.028 A  
ENDBRANCH  20  28
ENDBRANCH   1  16
TORSDOF 5
ENDMDL
MODEL       49
REMARK 921   NORMALIZED FREE ENERGY PREDICTED BY IDOCK:   -7.48 KCAL/MOL
REMARK 922        TOTAL FREE ENERGY PREDICTED BY IDOCK:   -9.74 KCAL/MOL
REMARK 923 INTER-LIGAND FREE ENERGY PREDICTED BY IDOCK:   -8.24 KCAL/MOL
REMARK 924 INTRA-LIGAND FREE ENERGY PREDICTED BY IDOCK:   -1.50 KCAL/MOL
REMARK 927      BINDING AFFINITY PREDICTED BY RF-SCORE:    0.00 PKD
ROOT
HETATM    1  C   UNL     1     -10.253  12.080  67.821  1.00  0.00    -0.202 C  
ENDROOT
BRANCH   1   2
HETATM    2  C   UNL     1      -8.953  12.770  68.278  1.00  0.00    -0.175 C  
HETATM    3  C   UNL     1      -7.870  12.882  67.217  1.00  0.00    -0.134 C  
ENDBRANCH   1   2
BRANCH   1   4
HETATM    4  N   UNL     1     -11.337  13.070  67.809  1.00  0.00    -0.275 NA 
HETATM    5  H   UNL     1     -12.259  12.783  67.480  1.00  0.00     0.000 HD 
BRANCH   4   6
HETATM    6  C   UNL     1     -11.157  14.374  68.223  1.00  0.00    -0.259 A  
HETATM    7  C   UNL     1     -11.171  16.128  69.837  1.00  0.00    -0.349 A  
HETATM    8  N   UNL     1     -10.839  17.107  68.987  1.00  0.00    -0.218 NA 
HETATM    9  N   UNL     1     -11.682  14.096  70.720  1.00  0.00    -0.500 NA 
HETATM   10  C   UNL     1     -10.681  16.612  67.746  1.00  0.00    -0.327 A  
HETATM   11  C   UNL     1     -11.740  15.025  71.661  1.00  0.00    -0.377 A  
HETATM   12  H   UNL     1     -11.853  13.096  70.823  1.00  0.00     0.000 HD 
HETATM   13  N   UNL     1     -10.822  15.339  67.324  1.00  0.00    -0.313 NA 
HETATM   14  C   UNL     1     -11.337  14.780  69.565  1.00  0.00    -0.283 A  
HETATM   15  N   UNL     1     -11.432  16.264  71.172  1.00  0.00    -0.390 NA 
ENDBRANCH   4   6
ENDBRANCH   1   4
BRANCH   1  16
HETATM   16  C   UNL     1     -10.697  10.895  68.761  1.00  0.00    -0.207 C  
HETATM   17  O   UNL     1      -9.873   7.497  69.564  1.00  0.00    -0.167 OA 
HETATM   18  N   UNL     1     -11.575  11.174  69.685  1.00  0.00    -0.295 NA 
HETATM   19  C   UNL     1     -11.982  10.174  70.574  1.00  0.00    -0.311 A  
HETATM   20  N   UNL     1     -10.118   9.631  68.646  1.00  0.00    -0.172 N  
HETATM   21  C   UNL     1     -10.384   8.616  69.578  1.00  0.00    -0.214 C  
HETATM   22  C   UNL     1     -13.018  10.452  71.474  1.00  0.00    -0.562 A  
HETATM   23  C   UNL     1     -11.391   8.914  70.604  1.00  0.00    -0.299 A  
HETATM   24  C   UNL     1     -13.439   9.495  72.403  1.00  0.00    -0.475 A  
HETATM   25  C   UNL     1     -12.811   8.255  72.452  1.00  0.00    -0.261 A  
HETATM   26  F   UNL     1     -11.210   6.764  71.631  1.00  0.00    -0.254 F  
HETATM   27  C   UNL     1     -11.789   7.970  71.553  1.00  0.00    -0.292 A  
BRANCH  20  28
HETATM   28  C   UNL     1      -9.214   9.290  67.594  1.00  0.00    -0.124 A  
HETATM   29  C   UNL     1      -9.680   8.964  66.315  1.00  0.00    -0.345 A  
HETATM   30  C   UNL     1      -8.773   8.690  65.288  1.00  0.00    -0.200 A  
HETATM   31  C   UNL     1      -7.401   8.728  65.535  1.00  0.00    -0.085 A  
HETATM   32  C   UNL     1      -6.932   8.999  66.817  1.00  0.00    -0.081 A  
HETATM   33  C   UNL     1      -7.834   9.256  67.847  1.00  0.00    -0.092 A  
ENDBRANCH  20  28
ENDBRANCH   1  16
TORSDOF 5
ENDMDL
MODEL       50
REMARK 921   NORMALIZED FREE ENERGY PREDICTED BY IDOCK:   -7.42 KCAL/MOL
REMARK 922        TOTAL FREE ENERGY PREDICTED BY IDOCK:   -9.66 KCAL/MOL
REMARK 923 INTER-LIGAND FREE ENERGY PREDICTED BY IDOCK:   -8.16 KCAL/MOL
REMARK 924 INTRA-LIGAND FREE ENERGY PREDICTED BY IDOCK:   -1.50 KCAL/MOL
REMARK 927      BINDING AFFINITY PREDICTED BY RF-SCORE:    0.00 PKD
ROOT
HETATM    1  C   UNL     1     -10.766  10.368  69.490  1.00  0.00    -0.251 C  
ENDROOT
BRANCH   1   2
HETATM    2  C   UNL     1     -11.200   9.739  70.829  1.00  0.00    -0.419 C  
HETATM    3  C   UNL     1     -12.608  10.087  71.284  1.00  0.00    -0.495 C  
ENDBRANCH   1   2
BRANCH   1   4
HETATM    4  N   UNL     1     -11.949  10.923  68.822  1.00  0.00    -0.681 NA 
HETATM    5  H   UNL     1     -12.837  10.427  68.904  1.00  0.00     0.000 HD 
BRANCH   4   6
HETATM    6  C   UNL     1     -11.907  12.090  68.086  1.00  0.00    -0.286 A  
HETATM    7  C   UNL     1     -11.794  14.457  67.832  1.00  0.00    -0.349 A  
HETATM    8  N   UNL     1     -11.905  14.464  66.498  1.00  0.00    -0.396 NA 
HETATM    9  N   UNL     1     -11.645  13.782  69.998  1.00  0.00    -0.450 NA 
HETATM   10  C   UNL     1     -12.012  13.206  66.035  1.00  0.00    -0.433 A  
HETATM   11  C   UNL     1     -11.609  15.103  69.934  1.00  0.00    -0.300 A  
HETATM   12  H   UNL     1     -11.590  13.199  70.833  1.00  0.00     0.000 HD 
HETATM   13  N   UNL     1     -12.026  12.050  66.731  1.00  0.00    -0.610 NA 
HETATM   14  C   UNL     1     -11.774  13.364  68.683  1.00  0.00    -0.349 A  
HETATM   15  N   UNL     1     -11.689  15.552  68.645  1.00  0.00    -0.363 NA 
ENDBRANCH   4   6
ENDBRANCH   1   4
BRANCH   1  16
HETATM   16  C   UNL     1     -10.096   9.339  68.503  1.00  0.00    -0.190 C  
HETATM   17  O   UNL     1      -7.045   8.758  66.708  1.00  0.00    -0.079 OA 
HETATM   18  N   UNL     1     -10.736   8.220  68.295  1.00  0.00    -0.088 NA 
HETATM   19  C   UNL     1     -10.175   7.251  67.457  1.00  0.00    -0.221 A  
HETATM   20  N   UNL     1      -8.845   9.593  67.940  1.00  0.00    -0.119 N  
HETATM   21  C   UNL     1      -8.168   8.618  67.191  1.00  0.00    -0.107 C  
HETATM   22  C   UNL     1     -10.930   6.115  67.141  1.00  0.00    -0.420 A  
HETATM   23  C   UNL     1      -8.892   7.368  66.931  1.00  0.00    -0.140 A  
HETATM   24  C   UNL     1     -10.403   5.103  66.333  1.00  0.00    -0.332 A  
HETATM   25  C   UNL     1      -9.103   5.211  65.850  1.00  0.00    -0.154 A  
HETATM   26  F   UNL     1      -7.106   6.410  65.666  1.00  0.00    -0.058 F  
HETATM   27  C   UNL     1      -8.352   6.343  66.152  1.00  0.00    -0.128 A  
BRANCH  20  28
HETATM   28  C   UNL     1      -8.169  10.841  68.095  1.00  0.00    -0.119 A  
HETATM   29  C   UNL     1      -8.414  11.912  67.227  1.00  0.00    -0.172 A  
HETATM   30  C   UNL     1      -7.782  13.141  67.435  1.00  0.00    -0.151 A  
HETATM   31  C   UNL     1      -6.897  13.303  68.501  1.00  0.00    -0.099 A  
HETATM   32  C   UNL     1      -6.609  12.227  69.336  1.00  0.00    -0.081 A  
HETATM   33  C   UNL     1      -7.224  10.996  69.121  1.00  0.00    -0.121 A  
ENDBRANCH  20  28
ENDBRANCH   1  16
TORSDOF 5
ENDMDL
MODEL       51
REMARK 921   NORMALIZED FREE ENERGY PREDICTED BY IDOCK:   -7.42 KCAL/MOL
REMARK 922        TOTAL FREE ENERGY PREDICTED BY IDOCK:   -9.66 KCAL/MOL
REMARK 923 INTER-LIGAND FREE ENERGY PREDICTED BY IDOCK:   -7.88 KCAL/MOL
REMARK 924 INTRA-LIGAND FREE ENERGY PREDICTED BY IDOCK:   -1.78 KCAL/MOL
REMARK 927      BINDING AFFINITY PREDICTED BY RF-SCORE:    0.00 PKD
ROOT
HETATM    1  C   UNL     1     -10.836  12.942  69.512  1.00  0.00     0.215 C  
ENDROOT
BRANCH   1   2
HETATM    2  C   UNL     1     -12.147  12.476  70.175  1.00  0.00    -0.368 C  
HETATM    3  C   UNL     1     -12.233  10.987  70.466  1.00  0.00    -0.472 C  
ENDBRANCH   1   2
BRANCH   1   4
HETATM    4  N   UNL     1     -10.818  14.410  69.475  1.00  0.00    -0.384 NA 
HETATM    5  H   UNL     1     -11.602  14.920  69.882  1.00  0.00     0.000 HD 
BRANCH   4   6
HETATM    6  C   UNL     1      -9.781  15.125  68.912  1.00  0.00    -0.224 A  
HETATM    7  C   UNL     1      -8.723  16.331  67.149  1.00  0.00    -0.191 A  
HETATM    8  N   UNL     1      -7.563  16.528  67.786  1.00  0.00    -0.145 NA 
HETATM    9  N   UNL     1     -10.845  15.688  66.645  1.00  0.00    -0.299 NA 
HETATM   10  C   UNL     1      -7.606  15.976  69.012  1.00  0.00    -0.209 A  
HETATM   11  C   UNL     1     -10.308  16.321  65.614  1.00  0.00    -0.363 A  
HETATM   12  H   UNL     1     -11.784  15.295  66.712  1.00  0.00     0.000 HD 
HETATM   13  N   UNL     1      -8.617  15.299  69.595  1.00  0.00    -0.190 NA 
HETATM   14  C   UNL     1      -9.853  15.677  67.612  1.00  0.00    -0.227 A  
HETATM   15  N   UNL     1      -9.031  16.732  65.879  1.00  0.00    -0.517 NA 
ENDBRANCH   4   6
ENDBRANCH   1   4
BRANCH   1  16
HETATM   16  C   UNL     1     -10.664  12.424  68.033  1.00  0.00    -0.223 C  
HETATM   17  O   UNL     1      -8.637  10.221  66.055  1.00  0.00    -0.137 OA 
HETATM   18  N   UNL     1     -11.597  12.752  67.182  1.00  0.00    -0.344 NA 
HETATM   19  C   UNL     1     -11.520  12.291  65.864  1.00  0.00    -0.376 A  
HETATM   20  N   UNL     1      -9.597  11.596  67.682  1.00  0.00    -0.178 N  
HETATM   21  C   UNL     1      -9.522  10.998  66.415  1.00  0.00    -0.193 C  
HETATM   22  C   UNL     1     -12.456  12.757  64.931  1.00  0.00    -0.563 A  
HETATM   23  C   UNL     1     -10.553  11.383  65.444  1.00  0.00    -0.333 A  
HETATM   24  C   UNL     1     -12.439  12.303  63.609  1.00  0.00    -0.647 A  
HETATM   25  C   UNL     1     -11.495  11.361  63.212  1.00  0.00    -0.037 A  
HETATM   26  F   UNL     1      -9.664   9.999  63.711  1.00  0.00    -0.336 F  
HETATM   27  C   UNL     1     -10.557  10.904  64.132  1.00  0.00    -0.257 A  
BRANCH  20  28
HETATM   28  C   UNL     1      -8.529  11.292  68.580  1.00  0.00    -0.156 A  
HETATM   29  C   UNL     1      -8.601  10.199  69.451  1.00  0.00    -0.183 A  
HETATM   30  C   UNL     1      -7.518   9.890  70.278  1.00  0.00    -0.173 A  
HETATM   31  C   UNL     1      -6.366  10.674  70.248  1.00  0.00    -0.141 A  
HETATM   32  C   UNL     1      -6.307  11.793  69.422  1.00  0.00    -0.114 A  
HETATM   33  C   UNL     1      -7.392  12.115  68.609  1.00  0.00    -0.109 A  
ENDBRANCH  20  28
ENDBRANCH   1  16
TORSDOF 5
ENDMDL
MODEL       52
REMARK 921   NORMALIZED FREE ENERGY PREDICTED BY IDOCK:   -7.34 KCAL/MOL
REMARK 922        TOTAL FREE ENERGY PREDICTED BY IDOCK:   -9.55 KCAL/MOL
REMARK 923 INTER-LIGAND FREE ENERGY PREDICTED BY IDOCK:   -8.35 KCAL/MOL
REMARK 924 INTRA-LIGAND FREE ENERGY PREDICTED BY IDOCK:   -1.21 KCAL/MOL
REMARK 927      BINDING AFFINITY PREDICTED BY RF-SCORE:    0.00 PKD
ROOT
HETATM    1  C   UNL     1      -9.651  13.151  67.565  1.00  0.00    -0.208 C  
ENDROOT
BRANCH   1   2
HETATM    2  C   UNL     1      -8.352  13.654  68.225  1.00  0.00    -0.165 C  
HETATM    3  C   UNL     1      -7.424  14.441  67.313  1.00  0.00    -0.103 C  
ENDBRANCH   1   2
BRANCH   1   4
HETATM    4  N   UNL     1     -10.660  14.215  67.631  1.00  0.00    -0.251 NA 
HETATM    5  H   UNL     1     -11.252  14.279  68.460  1.00  0.00     0.000 HD 
BRANCH   4   6
HETATM    6  C   UNL     1     -10.840  15.132  66.615  1.00  0.00    -0.318 A  
HETATM    7  C   UNL     1     -10.861  17.331  65.695  1.00  0.00    -0.029 A  
HETATM    8  N   UNL     1     -11.310  16.975  64.485  1.00  0.00    -0.986 NA 
HETATM    9  N   UNL     1     -10.143  17.270  67.852  1.00  0.00    -0.302 NA 
HETATM   10  C   UNL     1     -11.499  15.645  64.431  1.00  0.00    -0.262 A  
HETATM   11  C   UNL     1     -10.161  18.520  67.417  1.00  0.00    -0.373 A  
HETATM   12  H   UNL     1      -9.860  16.937  68.773  1.00  0.00     0.000 HD 
HETATM   13  N   UNL     1     -11.301  14.727  65.400  1.00  0.00    -0.348 NA 
HETATM   14  C   UNL     1     -10.593  16.514  66.782  1.00  0.00    -0.224 A  
HETATM   15  N   UNL     1     -10.581  18.600  66.118  1.00  0.00    -0.418 NA 
ENDBRANCH   4   6
ENDBRANCH   1   4
BRANCH   1  16
HETATM   16  C   UNL     1     -10.254  11.874  68.264  1.00  0.00    -0.204 C  
HETATM   17  O   UNL     1     -10.072   8.291  68.194  1.00  0.00    -0.185 OA 
HETATM   18  N   UNL     1     -10.992  12.075  69.323  1.00  0.00    -0.179 NA 
HETATM   19  C   UNL     1     -11.525  10.980  70.009  1.00  0.00    -0.314 A  
HETATM   20  N   UNL     1      -9.949  10.592  67.806  1.00  0.00    -0.164 N  
HETATM   21  C   UNL     1     -10.347   9.448  68.514  1.00  0.00    -0.209 C  
HETATM   22  C   UNL     1     -12.418  11.214  71.062  1.00  0.00    -0.506 A  
HETATM   23  C   UNL     1     -11.198   9.665  69.690  1.00  0.00    -0.176 A  
HETATM   24  C   UNL     1     -12.956  10.154  71.798  1.00  0.00    -0.567 A  
HETATM   25  C   UNL     1     -12.586   8.847  71.499  1.00  0.00    -0.385 A  
HETATM   26  F   UNL     1     -11.378   7.335  70.189  1.00  0.00    -0.280 F  
HETATM   27  C   UNL     1     -11.708   8.608  70.447  1.00  0.00    -0.007 A  
BRANCH  20  28
HETATM   28  C   UNL     1      -9.210  10.358  66.607  1.00  0.00    -0.156 A  
HETATM   29  C   UNL     1      -7.825  10.152  66.636  1.00  0.00    -0.110 A  
HETATM   30  C   UNL     1      -7.134   9.868  65.455  1.00  0.00    -0.118 A  
HETATM   31  C   UNL     1      -7.817   9.799  64.242  1.00  0.00    -0.134 A  
HETATM   32  C   UNL     1      -9.185  10.054  64.198  1.00  0.00    -0.319 A  
HETATM   33  C   UNL     1      -9.874  10.356  65.371  1.00  0.00    -0.347 A  
ENDBRANCH  20  28
ENDBRANCH   1  16
TORSDOF 5
ENDMDL
MODEL       53
REMARK 921   NORMALIZED FREE ENERGY PREDICTED BY IDOCK:   -7.33 KCAL/MOL
REMARK 922        TOTAL FREE ENERGY PREDICTED BY IDOCK:   -9.54 KCAL/MOL
REMARK 923 INTER-LIGAND FREE ENERGY PREDICTED BY IDOCK:   -9.55 KCAL/MOL
REMARK 924 INTRA-LIGAND FREE ENERGY PREDICTED BY IDOCK:    0.01 KCAL/MOL
REMARK 927      BINDING AFFINITY PREDICTED BY RF-SCORE:    0.00 PKD
ROOT
HETATM    1  C   UNL     1     -10.424  10.184  68.765  1.00  0.00    -0.204 C  
ENDROOT
BRANCH   1   2
HETATM    2  C   UNL     1      -9.024  10.724  68.412  1.00  0.00    -0.153 C  
HETATM    3  C   UNL     1      -7.962   9.665  68.170  1.00  0.00    -0.100 C  
ENDBRANCH   1   2
BRANCH   1   4
HETATM    4  N   UNL     1     -11.155   9.909  67.522  1.00  0.00    -0.401 NA 
HETATM    5  H   UNL     1     -11.682   9.039  67.446  1.00  0.00     0.000 HD 
BRANCH   4   6
HETATM    6  C   UNL     1     -11.155  10.781  66.453  1.00  0.00     0.057 A  
HETATM    7  C   UNL     1     -10.439  11.541  64.310  1.00  0.00    -0.338 A  
HETATM    8  N   UNL     1     -11.151  12.675  64.315  1.00  0.00    -0.337 NA 
HETATM    9  N   UNL     1      -9.529   9.543  64.901  1.00  0.00    -0.431 NA 
HETATM   10  C   UNL     1     -11.853  12.778  65.457  1.00  0.00    -0.422 A  
HETATM   11  C   UNL     1      -9.065   9.919  63.720  1.00  0.00    -0.256 A  
HETATM   12  H   UNL     1      -9.305   8.690  65.414  1.00  0.00     0.000 HD 
HETATM   13  N   UNL     1     -11.892  11.925  66.502  1.00  0.00    -0.570 NA 
HETATM   14  C   UNL     1     -10.385  10.561  65.288  1.00  0.00    -0.229 A  
HETATM   15  N   UNL     1      -9.595  11.115  63.323  1.00  0.00    -0.315 NA 
ENDBRANCH   4   6
ENDBRANCH   1   4
BRANCH   1  16
HETATM   16  C   UNL     1     -11.288  11.191  69.617  1.00  0.00    -0.294 C  
HETATM   17  O   UNL     1     -13.305  11.341  72.580  1.00  0.00    -0.078 OA 
HETATM   18  N   UNL     1     -11.216  12.452  69.287  1.00  0.00    -0.229 NA 
HETATM   19  C   UNL     1     -11.931  13.399  70.028  1.00  0.00    -0.337 A  
HETATM   20  N   UNL     1     -12.033  10.751  70.711  1.00  0.00    -0.348 N  
HETATM   21  C   UNL     1     -12.673  11.656  71.572  1.00  0.00    -0.318 C  
HETATM   22  C   UNL     1     -11.949  14.727  69.585  1.00  0.00    -0.360 A  
HETATM   23  C   UNL     1     -12.620  13.073  71.193  1.00  0.00    -0.388 A  
HETATM   24  C   UNL     1     -12.624  15.717  70.307  1.00  0.00    -0.319 A  
HETATM   25  C   UNL     1     -13.271  15.387  71.493  1.00  0.00    -0.572 A  
HETATM   26  F   UNL     1     -13.901  13.790  73.078  1.00  0.00    -0.497 F  
HETATM   27  C   UNL     1     -13.265  14.067  71.932  1.00  0.00    -0.395 A  
BRANCH  20  28
HETATM   28  C   UNL     1     -12.182   9.369  71.037  1.00  0.00    -0.279 A  
HETATM   29  C   UNL     1     -13.445   8.768  71.088  1.00  0.00    -0.081 A  
HETATM   30  C   UNL     1     -13.560   7.400  71.353  1.00  0.00    -0.410 A  
HETATM   31  C   UNL     1     -12.420   6.631  71.578  1.00  0.00    -0.326 A  
HETATM   32  C   UNL     1     -11.164   7.233  71.581  1.00  0.00    -0.275 A  
HETATM   33  C   UNL     1     -11.047   8.599  71.335  1.00  0.00    -0.343 A  
ENDBRANCH  20  28
ENDBRANCH   1  16
TORSDOF 5
ENDMDL
MODEL       54
REMARK 921   NORMALIZED FREE ENERGY PREDICTED BY IDOCK:   -7.32 KCAL/MOL
REMARK 922        TOTAL FREE ENERGY PREDICTED BY IDOCK:   -9.53 KCAL/MOL
REMARK 923 INTER-LIGAND FREE ENERGY PREDICTED BY IDOCK:   -8.39 KCAL/MOL
REMARK 924 INTRA-LIGAND FREE ENERGY PREDICTED BY IDOCK:   -1.13 KCAL/MOL
REMARK 927      BINDING AFFINITY PREDICTED BY RF-SCORE:    0.00 PKD
ROOT
HETATM    1  C   UNL     1      -9.575  10.228  68.129  1.00  0.00    -0.140 C  
ENDROOT
BRANCH   1   2
HETATM    2  C   UNL     1     -10.722   9.290  67.706  1.00  0.00    -0.270 C  
HETATM    3  C   UNL     1     -10.307   8.097  66.861  1.00  0.00    -0.401 C  
ENDBRANCH   1   2
BRANCH   1   4
HETATM    4  N   UNL     1      -9.423  10.165  69.588  1.00  0.00    -0.313 NA 
HETATM    5  H   UNL     1      -8.619  10.623  70.017  1.00  0.00     0.000 HD 
BRANCH   4   6
HETATM    6  C   UNL     1     -10.326   9.510  70.400  1.00  0.00    -0.276 A  
HETATM    7  C   UNL     1     -12.272   9.383  71.771  1.00  0.00    -0.390 A  
HETATM    8  N   UNL     1     -12.106   8.106  72.138  1.00  0.00    -0.337 NA 
HETATM    9  N   UNL     1     -11.990  11.421  70.805  1.00  0.00    -0.395 NA 
HETATM   10  C   UNL     1     -10.996   7.600  71.571  1.00  0.00    -0.233 A  
HETATM   11  C   UNL     1     -13.067  11.432  71.575  1.00  0.00    -0.335 A  
HETATM   12  H   UNL     1     -11.621  12.188  70.242  1.00  0.00     0.000 HD 
HETATM   13  N   UNL     1     -10.116   8.211  70.750  1.00  0.00    -0.188 NA 
HETATM   14  C   UNL     1     -11.474  10.141  70.930  1.00  0.00    -0.360 A  
HETATM   15  N   UNL     1     -13.277  10.219  72.170  1.00  0.00    -0.422 NA 
ENDBRANCH   4   6
ENDBRANCH   1   4
BRANCH   1  16
HETATM   16  C   UNL     1      -9.821  11.734  67.737  1.00  0.00    -0.181 C  
HETATM   17  O   UNL     1     -10.057  13.882  64.872  1.00  0.00    -0.369 OA 
HETATM   18  N   UNL     1     -10.193  12.539  68.695  1.00  0.00    -0.196 NA 
HETATM   19  C   UNL     1     -10.462  13.880  68.403  1.00  0.00    -0.247 A  
HETATM   20  N   UNL     1      -9.711  12.160  66.413  1.00  0.00    -0.226 N  
HETATM   21  C   UNL     1     -10.083  13.456  66.027  1.00  0.00    -0.304 C  
HETATM   22  C   UNL     1     -10.733  14.758  69.460  1.00  0.00    -0.229 A  
HETATM   23  C   UNL     1     -10.477  14.374  67.102  1.00  0.00    -0.263 A  
HETATM   24  C   UNL     1     -11.038  16.102  69.218  1.00  0.00    -0.327 A  
HETATM   25  C   UNL     1     -11.094  16.573  67.910  1.00  0.00    -0.229 A  
HETATM   26  F   UNL     1     -10.878  16.200  65.614  1.00  0.00    -0.330 F  
HETATM   27  C   UNL     1     -10.815  15.707  66.858  1.00  0.00    -0.282 A  
BRANCH  20  28
HETATM   28  C   UNL     1      -9.230  11.312  65.368  1.00  0.00    -0.183 A  
HETATM   29  C   UNL     1     -10.056  10.933  64.304  1.00  0.00    -0.413 A  
HETATM   30  C   UNL     1      -9.545  10.150  63.265  1.00  0.00    -0.231 A  
HETATM   31  C   UNL     1      -8.214   9.734  63.290  1.00  0.00    -0.155 A  
HETATM   32  C   UNL     1      -7.402  10.063  64.372  1.00  0.00    -0.138 A  
HETATM   33  C   UNL     1      -7.913  10.829  65.417  1.00  0.00    -0.027 A  
ENDBRANCH  20  28
ENDBRANCH   1  16
TORSDOF 5
ENDMDL
MODEL       55
REMARK 921   NORMALIZED FREE ENERGY PREDICTED BY IDOCK:   -7.30 KCAL/MOL
REMARK 922        TOTAL FREE ENERGY PREDICTED BY IDOCK:   -9.50 KCAL/MOL
REMARK 923 INTER-LIGAND FREE ENERGY PREDICTED BY IDOCK:   -7.66 KCAL/MOL
REMARK 924 INTRA-LIGAND FREE ENERGY PREDICTED BY IDOCK:   -1.84 KCAL/MOL
REMARK 927      BINDING AFFINITY PREDICTED BY RF-SCORE:    0.00 PKD
ROOT
HETATM    1  C   UNL     1      -9.784  12.290  66.971  1.00  0.00    -0.205 C  
ENDROOT
BRANCH   1   2
HETATM    2  C   UNL     1     -10.535  11.742  65.740  1.00  0.00    -0.302 C  
HETATM    3  C   UNL     1     -11.777  12.521  65.339  1.00  0.00    -0.444 C  
ENDBRANCH   1   2
BRANCH   1   4
HETATM    4  N   UNL     1      -8.512  11.570  67.110  1.00  0.00    -0.152 NA 
HETATM    5  H   UNL     1      -8.291  10.833  66.440  1.00  0.00     0.000 HD 
BRANCH   4   6
HETATM    6  C   UNL     1      -7.606  11.852  68.111  1.00  0.00    -0.121 A  
HETATM    7  C   UNL     1      -6.467  11.403  70.156  1.00  0.00    -0.038 A  
HETATM    8  N   UNL     1      -5.769  12.544  70.185  1.00  0.00    -0.141 NA 
HETATM    9  N   UNL     1      -7.879   9.733  69.533  1.00  0.00    -0.113 NA 
HETATM   10  C   UNL     1      -6.060  13.295  69.108  1.00  0.00    -0.094 A  
HETATM   11  C   UNL     1      -7.308   9.433  70.689  1.00  0.00    -0.131 A  
HETATM   12  H   UNL     1      -8.549   9.172  69.007  1.00  0.00     0.000 HD 
HETATM   13  N   UNL     1      -6.919  13.027  68.102  1.00  0.00    -0.092 NA 
HETATM   14  C   UNL     1      -7.368  10.975  69.194  1.00  0.00    -0.121 A  
HETATM   15  N   UNL     1      -6.443  10.411  71.097  1.00  0.00    -0.301 NA 
ENDBRANCH   4   6
ENDBRANCH   1   4
BRANCH   1  16
HETATM   16  C   UNL     1     -10.582  12.118  68.319  1.00  0.00    -0.217 C  
HETATM   17  O   UNL     1     -12.413  14.016  70.752  1.00  0.00    -0.329 OA 
HETATM   18  N   UNL     1     -10.821  10.896  68.710  1.00  0.00    -0.192 NA 
HETATM   19  C   UNL     1     -11.557  10.678  69.880  1.00  0.00    -0.316 A  
HETATM   20  N   UNL     1     -11.066  13.227  69.014  1.00  0.00    -0.258 N  
HETATM   21  C   UNL     1     -11.913  13.083  70.123  1.00  0.00    -0.303 C  
HETATM   22  C   UNL     1     -11.693   9.369  70.356  1.00  0.00    -0.195 A  
HETATM   23  C   UNL     1     -12.164  11.713  70.585  1.00  0.00    -0.461 A  
HETATM   24  C   UNL     1     -12.444   9.095  71.504  1.00  0.00    -0.418 A  
HETATM   25  C   UNL     1     -13.083  10.133  72.174  1.00  0.00    -0.463 A  
HETATM   26  F   UNL     1     -13.572  12.408  72.386  1.00  0.00    -0.615 F  
HETATM   27  C   UNL     1     -12.942  11.437  71.711  1.00  0.00    -0.414 A  
BRANCH  20  28
HETATM   28  C   UNL     1     -10.748  14.569  68.642  1.00  0.00    -0.253 A  
HETATM   29  C   UNL     1     -11.546  15.280  67.738  1.00  0.00    -0.277 A  
HETATM   30  C   UNL     1     -11.245  16.611  67.435  1.00  0.00     0.116 A  
HETATM   31  C   UNL     1     -10.144  17.232  68.022  1.00  0.00    -0.324 A  
HETATM   32  C   UNL     1      -9.316  16.515  68.881  1.00  0.00    -0.256 A  
HETATM   33  C   UNL     1      -9.603  15.183  69.172  1.00  0.00    -0.232 A  
ENDBRANCH  20  28
ENDBRANCH   1  16
TORSDOF 5
ENDMDL
MODEL       56
REMARK 921   NORMALIZED FREE ENERGY PREDICTED BY IDOCK:   -7.27 KCAL/MOL
REMARK 922        TOTAL FREE ENERGY PREDICTED BY IDOCK:   -9.47 KCAL/MOL
REMARK 923 INTER-LIGAND FREE ENERGY PREDICTED BY IDOCK:   -9.04 KCAL/MOL
REMARK 924 INTRA-LIGAND FREE ENERGY PREDICTED BY IDOCK:   -0.43 KCAL/MOL
REMARK 927      BINDING AFFINITY PREDICTED BY RF-SCORE:    0.00 PKD
ROOT
HETATM    1  C   UNL     1     -10.953  13.222  67.813  1.00  0.00    -0.258 C  
ENDROOT
BRANCH   1   2
HETATM    2  C   UNL     1      -9.698  13.958  68.323  1.00  0.00    -0.223 C  
HETATM    3  C   UNL     1      -8.593  14.145  67.295  1.00  0.00    -0.231 C  
ENDBRANCH   1   2
BRANCH   1   4
HETATM    4  N   UNL     1     -12.143  13.848  68.403  1.00  0.00    -0.478 NA 
HETATM    5  H   UNL     1     -13.031  13.776  67.907  1.00  0.00     0.000 HD 
BRANCH   4   6
HETATM    6  C   UNL     1     -12.105  14.530  69.602  1.00  0.00    -0.323 A  
HETATM    7  C   UNL     1     -12.602  14.821  71.915  1.00  0.00    -0.334 A  
HETATM    8  N   UNL     1     -12.056  16.038  72.027  1.00  0.00    -0.492 NA 
HETATM    9  N   UNL     1     -13.315  12.825  71.091  1.00  0.00     0.054 NA 
HETATM   10  C   UNL     1     -11.544  16.428  70.846  1.00  0.00    -0.152 A  
HETATM   11  C   UNL     1     -13.652  12.933  72.366  1.00  0.00    -0.478 A  
HETATM   12  H   UNL     1     -13.495  12.040  70.465  1.00  0.00     0.000 HD 
HETATM   13  N   UNL     1     -11.542  15.767  69.669  1.00  0.00    -0.342 NA 
HETATM   14  C   UNL     1     -12.665  14.012  70.792  1.00  0.00    -0.326 A  
HETATM   15  N   UNL     1     -13.234  14.119  72.903  1.00  0.00    -0.582 NA 
ENDBRANCH   4   6
ENDBRANCH   1   4
BRANCH   1  16
HETATM   16  C   UNL     1     -10.979  11.692  68.190  1.00  0.00    -0.226 C  
HETATM   17  O   UNL     1     -10.335   8.451  66.792  1.00  0.00    -0.305 OA 
HETATM   18  N   UNL     1     -11.171  11.399  69.447  1.00  0.00    -0.259 NA 
HETATM   19  C   UNL     1     -11.168  10.060  69.850  1.00  0.00    -0.275 A  
HETATM   20  N   UNL     1     -10.736  10.711  67.228  1.00  0.00    -0.270 N  
HETATM   21  C   UNL     1     -10.596   9.360  67.580  1.00  0.00    -0.271 C  
HETATM   22  C   UNL     1     -11.504   9.754  71.175  1.00  0.00    -0.472 A  
HETATM   23  C   UNL     1     -10.837   9.019  68.988  1.00  0.00    -0.092 A  
HETATM   24  C   UNL     1     -11.486   8.434  71.635  1.00  0.00    -0.349 A  
HETATM   25  C   UNL     1     -11.110   7.407  70.775  1.00  0.00    -0.285 A  
HETATM   26  F   UNL     1     -10.431   6.688  68.658  1.00  0.00    -0.161 F  
HETATM   27  C   UNL     1     -10.786   7.704  69.455  1.00  0.00    -0.184 A  
BRANCH  20  28
HETATM   28  C   UNL     1     -10.602  11.010  65.838  1.00  0.00    -0.206 A  
HETATM   29  C   UNL     1     -11.642  11.613  65.121  1.00  0.00    -0.122 A  
HETATM   30  C   UNL     1     -11.464  11.947  63.776  1.00  0.00    -0.542 A  
HETATM   31  C   UNL     1     -10.254  11.672  63.139  1.00  0.00    -0.396 A  
HETATM   32  C   UNL     1      -9.234  11.025  63.831  1.00  0.00    -0.181 A  
HETATM   33  C   UNL     1      -9.415  10.674  65.167  1.00  0.00    -0.276 A  
ENDBRANCH  20  28
ENDBRANCH   1  16
TORSDOF 5
ENDMDL
MODEL       57
REMARK 921   NORMALIZED FREE ENERGY PREDICTED BY IDOCK:   -7.23 KCAL/MOL
REMARK 922        TOTAL FREE ENERGY PREDICTED BY IDOCK:   -9.41 KCAL/MOL
REMARK 923 INTER-LIGAND FREE ENERGY PREDICTED BY IDOCK:   -8.12 KCAL/MOL
REMARK 924 INTRA-LIGAND FREE ENERGY PREDICTED BY IDOCK:   -1.29 KCAL/MOL
REMARK 927      BINDING AFFINITY PREDICTED BY RF-SCORE:    0.00 PKD
ROOT
HETATM    1  C   UNL     1     -10.553  11.545  66.130  1.00  0.00    -0.266 C  
ENDROOT
BRANCH   1   2
HETATM    2  C   UNL     1     -11.549  11.914  65.012  1.00  0.00    -0.277 C  
HETATM    3  C   UNL     1     -10.930  12.537  63.772  1.00  0.00    -0.496 C  
ENDBRANCH   1   2
BRANCH   1   4
HETATM    4  N   UNL     1     -10.308  10.098  66.089  1.00  0.00    -0.204 NA 
HETATM    5  H   UNL     1     -11.099   9.471  65.936  1.00  0.00     0.000 HD 
BRANCH   4   6
HETATM    6  C   UNL     1      -9.051   9.553  66.249  1.00  0.00    -0.163 A  
HETATM    7  C   UNL     1      -7.127   8.355  65.510  1.00  0.00    -0.074 A  
HETATM    8  N   UNL     1      -6.482   8.382  66.683  1.00  0.00    -0.055 NA 
HETATM    9  N   UNL     1      -8.677   8.656  63.874  1.00  0.00    -0.422 NA 
HETATM   10  C   UNL     1      -7.216   9.033  67.602  1.00  0.00    -0.083 A  
HETATM   11  C   UNL     1      -7.655   7.958  63.405  1.00  0.00    -0.130 A  
HETATM   12  H   UNL     1      -9.513   8.948  63.369  1.00  0.00     0.000 HD 
HETATM   13  N   UNL     1      -8.433   9.600  67.461  1.00  0.00    -0.125 NA 
HETATM   14  C   UNL     1      -8.362   8.901  65.201  1.00  0.00    -0.161 A  
HETATM   15  N   UNL     1      -6.694   7.761  64.358  1.00  0.00    -0.055 NA 
ENDBRANCH   4   6
ENDBRANCH   1   4
BRANCH   1  16
HETATM   16  C   UNL     1     -11.072  11.903  67.574  1.00  0.00    -0.273 C  
HETATM   17  O   UNL     1     -11.653  14.715  69.725  1.00  0.00    -0.265 OA 
HETATM   18  N   UNL     1     -11.609  10.933  68.264  1.00  0.00    -0.470 NA 
HETATM   19  C   UNL     1     -12.121  11.197  69.538  1.00  0.00    -0.326 A  
HETATM   20  N   UNL     1     -11.018  13.212  68.053  1.00  0.00    -0.239 N  
HETATM   21  C   UNL     1     -11.621  13.573  69.267  1.00  0.00    -0.316 C  
HETATM   22  C   UNL     1     -12.575  10.125  70.317  1.00  0.00    -0.139 A  
HETATM   23  C   UNL     1     -12.204  12.484  70.061  1.00  0.00    -0.262 A  
HETATM   24  C   UNL     1     -13.124  10.338  71.585  1.00  0.00    -0.553 A  
HETATM   25  C   UNL     1     -13.242  11.634  72.078  1.00  0.00    -0.443 A  
HETATM   26  F   UNL     1     -12.912  13.933  71.823  1.00  0.00    -0.371 F  
HETATM   27  C   UNL     1     -12.782  12.701  71.313  1.00  0.00    -0.257 A  
BRANCH  20  28
HETATM   28  C   UNL     1     -10.364  14.266  67.344  1.00  0.00    -0.259 A  
HETATM   29  C   UNL     1      -8.994  14.504  67.498  1.00  0.00    -0.191 A  
HETATM   30  C   UNL     1      -8.368  15.504  66.749  1.00  0.00    -0.301 A  
HETATM   31  C   UNL     1      -9.107  16.277  65.855  1.00  0.00    -0.246 A  
HETATM   32  C   UNL     1     -10.481  16.082  65.736  1.00  0.00    -0.391 A  
HETATM   33  C   UNL     1     -11.111  15.097  66.494  1.00  0.00    -0.305 A  
ENDBRANCH  20  28
ENDBRANCH   1  16
TORSDOF 5
ENDMDL
MODEL       58
REMARK 921   NORMALIZED FREE ENERGY PREDICTED BY IDOCK:   -7.22 KCAL/MOL
REMARK 922        TOTAL FREE ENERGY PREDICTED BY IDOCK:   -9.39 KCAL/MOL
REMARK 923 INTER-LIGAND FREE ENERGY PREDICTED BY IDOCK:   -8.14 KCAL/MOL
REMARK 924 INTRA-LIGAND FREE ENERGY PREDICTED BY IDOCK:   -1.25 KCAL/MOL
REMARK 927      BINDING AFFINITY PREDICTED BY RF-SCORE:    0.00 PKD
ROOT
HETATM    1  C   UNL     1      -9.004  10.535  67.687  1.00  0.00    -0.138 C  
ENDROOT
BRANCH   1   2
HETATM    2  C   UNL     1      -7.628  10.875  68.292  1.00  0.00    -0.100 C  
HETATM    3  C   UNL     1      -6.882  12.011  67.611  1.00  0.00    -0.115 C  
ENDBRANCH   1   2
BRANCH   1   4
HETATM    4  N   UNL     1      -9.615  11.768  67.176  1.00  0.00    -0.179 NA 
HETATM    5  H   UNL     1      -9.512  12.627  67.716  1.00  0.00     0.000 HD 
BRANCH   4   6
HETATM    6  C   UNL     1     -10.325  11.810  65.993  1.00  0.00    -0.239 A  
HETATM    7  C   UNL     1     -10.596  11.482  63.647  1.00  0.00    -0.429 A  
HETATM    8  N   UNL     1     -11.827  12.002  63.571  1.00  0.00    -0.488 NA 
HETATM    9  N   UNL     1      -8.589  10.750  64.427  1.00  0.00    -0.346 NA 
HETATM   10  C   UNL     1     -12.235  12.409  64.786  1.00  0.00    -0.423 A  
HETATM   11  C   UNL     1      -8.659  10.567  63.118  1.00  0.00    -0.186 A  
HETATM   12  H   UNL     1      -7.816  10.511  65.047  1.00  0.00     0.000 HD 
HETATM   13  N   UNL     1     -11.573  12.351  65.961  1.00  0.00    -0.383 NA 
HETATM   14  C   UNL     1      -9.797  11.336  64.770  1.00  0.00    -0.266 A  
HETATM   15  N   UNL     1      -9.856  10.989  62.609  1.00  0.00    -0.198 NA 
ENDBRANCH   4   6
ENDBRANCH   1   4
BRANCH   1  16
HETATM   16  C   UNL     1     -10.005   9.899  68.725  1.00  0.00    -0.173 C  
HETATM   17  O   UNL     1     -10.876   6.751  70.210  1.00  0.00    -0.240 OA 
HETATM   18  N   UNL     1     -10.725  10.727  69.432  1.00  0.00    -0.227 NA 
HETATM   19  C   UNL     1     -11.605  10.225  70.396  1.00  0.00    -0.328 A  
HETATM   20  N   UNL     1     -10.057   8.519  68.920  1.00  0.00    -0.198 N  
HETATM   21  C   UNL     1     -10.822   7.953  69.951  1.00  0.00    -0.221 C  
HETATM   22  C   UNL     1     -12.464  11.114  71.053  1.00  0.00    -0.506 A  
HETATM   23  C   UNL     1     -11.655   8.875  70.733  1.00  0.00    -0.301 A  
HETATM   24  C   UNL     1     -13.341  10.666  72.046  1.00  0.00    -0.409 A  
HETATM   25  C   UNL     1     -13.350   9.322  72.405  1.00  0.00    -0.521 A  
HETATM   26  F   UNL     1     -12.546   7.146  72.121  1.00  0.00    -0.315 F  
HETATM   27  C   UNL     1     -12.506   8.433  71.748  1.00  0.00    -0.335 A  
BRANCH  20  28
HETATM   28  C   UNL     1      -9.333   7.597  68.104  1.00  0.00    -0.144 A  
HETATM   29  C   UNL     1      -9.895   7.065  66.937  1.00  0.00    -0.259 A  
HETATM   30  C   UNL     1      -9.145   6.210  66.126  1.00  0.00    -0.158 A  
HETATM   31  C   UNL     1      -7.839   5.873  66.479  1.00  0.00    -0.101 A  
HETATM   32  C   UNL     1      -7.292   6.357  67.665  1.00  0.00    -0.088 A  
HETATM   33  C   UNL     1      -8.044   7.195  68.485  1.00  0.00    -0.125 A  
ENDBRANCH  20  28
ENDBRANCH   1  16
TORSDOF 5
ENDMDL
MODEL       59
REMARK 921   NORMALIZED FREE ENERGY PREDICTED BY IDOCK:   -7.21 KCAL/MOL
REMARK 922        TOTAL FREE ENERGY PREDICTED BY IDOCK:   -9.38 KCAL/MOL
REMARK 923 INTER-LIGAND FREE ENERGY PREDICTED BY IDOCK:   -8.09 KCAL/MOL
REMARK 924 INTRA-LIGAND FREE ENERGY PREDICTED BY IDOCK:   -1.29 KCAL/MOL
REMARK 927      BINDING AFFINITY PREDICTED BY RF-SCORE:    0.00 PKD
ROOT
HETATM    1  C   UNL     1     -11.910   8.245  71.209  1.00  0.00    -0.288 C  
ENDROOT
BRANCH   1   2
HETATM    2  C   UNL     1     -13.160   7.489  70.717  1.00  0.00     0.103 C  
HETATM    3  C   UNL     1     -14.361   7.546  71.646  1.00  0.00    -0.621 C  
ENDBRANCH   1   2
BRANCH   1   4
HETATM    4  N   UNL     1     -11.765   8.033  72.654  1.00  0.00    -0.517 NA 
HETATM    5  H   UNL     1     -12.360   8.565  73.290  1.00  0.00     0.000 HD 
BRANCH   4   6
HETATM    6  C   UNL     1     -10.855   7.142  73.186  1.00  0.00    -0.335 A  
HETATM    7  C   UNL     1      -8.716   6.516  74.032  1.00  0.00    -0.137 A  
HETATM    8  N   UNL     1      -9.005   5.221  74.207  1.00  0.00    -0.118 NA 
HETATM    9  N   UNL     1      -8.866   8.728  73.526  1.00  0.00    -0.091 NA 
HETATM   10  C   UNL     1     -10.274   4.973  73.837  1.00  0.00    -0.224 A  
HETATM   11  C   UNL     1      -7.647   8.445  73.957  1.00  0.00    -0.143 A  
HETATM   12  H   UNL     1      -9.227   9.636  73.235  1.00  0.00     0.000 HD 
HETATM   13  N   UNL     1     -11.190   5.832  73.344  1.00  0.00    -0.155 NA 
HETATM   14  C   UNL     1      -9.545   7.520  73.557  1.00  0.00    -0.285 A  
HETATM   15  N   UNL     1      -7.517   7.123  74.281  1.00  0.00    -0.106 NA 
ENDBRANCH   4   6
ENDBRANCH   1   4
BRANCH   1  16
HETATM   16  C   UNL     1     -11.980   9.799  70.958  1.00  0.00    -0.352 C  
HETATM   17  O   UNL     1     -11.019  12.297  68.567  1.00  0.00    -0.216 OA 
HETATM   18  N   UNL     1     -12.720  10.496  71.776  1.00  0.00    -0.428 NA 
HETATM   19  C   UNL     1     -12.851  11.875  71.583  1.00  0.00    -0.312 A  
HETATM   20  N   UNL     1     -11.333  10.380  69.866  1.00  0.00    -0.281 N  
HETATM   21  C   UNL     1     -11.519  11.732  69.540  1.00  0.00    -0.295 C  
HETATM   22  C   UNL     1     -13.541  12.627  72.542  1.00  0.00    -0.280 A  
HETATM   23  C   UNL     1     -12.329  12.528  70.471  1.00  0.00    -0.345 A  
HETATM   24  C   UNL     1     -13.725  14.004  72.380  1.00  0.00    -0.669 A  
HETATM   25  C   UNL     1     -13.237  14.637  71.242  1.00  0.00    -0.432 A  
HETATM   26  F   UNL     1     -12.086  14.543  69.210  1.00  0.00    -0.330 F  
HETATM   27  C   UNL     1     -12.542  13.896  70.291  1.00  0.00    -0.264 A  
BRANCH  20  28
HETATM   28  C   UNL     1     -10.458   9.647  69.008  1.00  0.00    -0.213 A  
HETATM   29  C   UNL     1     -10.940   8.992  67.869  1.00  0.00    -0.001 A  
HETATM   30  C   UNL     1     -10.054   8.329  67.015  1.00  0.00    -0.353 A  
HETATM   31  C   UNL     1      -8.689   8.307  67.299  1.00  0.00    -0.126 A  
HETATM   32  C   UNL     1      -8.210   8.911  68.459  1.00  0.00    -0.116 A  
HETATM   33  C   UNL     1      -9.093   9.558  69.321  1.00  0.00    -0.161 A  
ENDBRANCH  20  28
ENDBRANCH   1  16
TORSDOF 5
ENDMDL
MODEL       60
REMARK 921   NORMALIZED FREE ENERGY PREDICTED BY IDOCK:   -7.20 KCAL/MOL
REMARK 922        TOTAL FREE ENERGY PREDICTED BY IDOCK:   -9.38 KCAL/MOL
REMARK 923 INTER-LIGAND FREE ENERGY PREDICTED BY IDOCK:   -8.35 KCAL/MOL
REMARK 924 INTRA-LIGAND FREE ENERGY PREDICTED BY IDOCK:   -1.03 KCAL/MOL
REMARK 927      BINDING AFFINITY PREDICTED BY RF-SCORE:    0.00 PKD
ROOT
HETATM    1  C   UNL     1      -9.257  10.818  69.298  1.00  0.00    -0.049 C  
ENDROOT
BRANCH   1   2
HETATM    2  C   UNL     1      -7.748  11.132  69.296  1.00  0.00    -0.027 C  
HETATM    3  C   UNL     1      -6.833   9.920  69.223  1.00  0.00    -0.057 C  
ENDBRANCH   1   2
BRANCH   1   4
HETATM    4  N   UNL     1      -9.441   9.370  69.455  1.00  0.00    -0.165 NA 
HETATM    5  H   UNL     1      -9.016   8.745  68.769  1.00  0.00     0.000 HD 
BRANCH   4   6
HETATM    6  C   UNL     1     -10.165   8.822  70.493  1.00  0.00    -0.202 A  
HETATM    7  C   UNL     1     -10.414   7.899  72.677  1.00  0.00    -0.320 A  
HETATM    8  N   UNL     1     -11.718   7.618  72.566  1.00  0.00    -0.320 NA 
HETATM    9  N   UNL     1      -8.298   8.607  72.240  1.00  0.00    -0.368 NA 
HETATM   10  C   UNL     1     -12.171   7.984  71.355  1.00  0.00    -0.309 A  
HETATM   11  C   UNL     1      -8.356   8.078  73.452  1.00  0.00    -0.220 A  
HETATM   12  H   UNL     1      -7.484   9.012  71.778  1.00  0.00     0.000 HD 
HETATM   13  N   UNL     1     -11.489   8.549  70.336  1.00  0.00    -0.188 NA 
HETATM   14  C   UNL     1      -9.583   8.489  71.738  1.00  0.00    -0.267 A  
HETATM   15  N   UNL     1      -9.616   7.646  73.758  1.00  0.00    -0.276 NA 
ENDBRANCH   4   6
ENDBRANCH   1   4
BRANCH   1  16
HETATM   16  C   UNL     1      -9.989  11.253  67.972  1.00  0.00    -0.179 C  
HETATM   17  O   UNL     1     -12.527  13.490  66.777  1.00  0.00    -0.310 OA 
HETATM   18  N   UNL     1      -9.501  10.792  66.852  1.00  0.00    -0.167 NA 
HETATM   19  C   UNL     1     -10.085  11.171  65.639  1.00  0.00    -0.253 A  
HETATM   20  N   UNL     1     -11.061  12.145  68.002  1.00  0.00    -0.227 N  
HETATM   21  C   UNL     1     -11.614  12.665  66.822  1.00  0.00    -0.374 C  
HETATM   22  C   UNL     1      -9.636  10.569  64.458  1.00  0.00    -0.359 A  
HETATM   23  C   UNL     1     -11.089  12.131  65.560  1.00  0.00    -0.361 A  
HETATM   24  C   UNL     1     -10.165  10.936  63.216  1.00  0.00    -0.317 A  
HETATM   25  C   UNL     1     -11.138  11.928  63.146  1.00  0.00    -0.267 A  
HETATM   26  F   UNL     1     -12.533  13.472  64.208  1.00  0.00    -0.417 F  
HETATM   27  C   UNL     1     -11.595  12.522  64.318  1.00  0.00    -0.371 A  
BRANCH  20  28
HETATM   28  C   UNL     1     -11.654  12.597  69.221  1.00  0.00    -0.318 A  
HETATM   29  C   UNL     1     -12.385  11.728  70.038  1.00  0.00    -0.233 A  
HETATM   30  C   UNL     1     -12.906  12.181  71.253  1.00  0.00    -0.349 A  
HETATM   31  C   UNL     1     -12.710  13.503  71.651  1.00  0.00    -0.380 A  
HETATM   32  C   UNL     1     -12.029  14.387  70.819  1.00  0.00    -0.391 A  
HETATM   33  C   UNL     1     -11.523  13.943  69.599  1.00  0.00    -0.310 A  
ENDBRANCH  20  28
ENDBRANCH   1  16
TORSDOF 5
ENDMDL
MODEL       61
REMARK 921   NORMALIZED FREE ENERGY PREDICTED BY IDOCK:   -7.18 KCAL/MOL
REMARK 922        TOTAL FREE ENERGY PREDICTED BY IDOCK:   -9.34 KCAL/MOL
REMARK 923 INTER-LIGAND FREE ENERGY PREDICTED BY IDOCK:   -8.42 KCAL/MOL
REMARK 924 INTRA-LIGAND FREE ENERGY PREDICTED BY IDOCK:   -0.92 KCAL/MOL
REMARK 927      BINDING AFFINITY PREDICTED BY RF-SCORE:    0.00 PKD
ROOT
HETATM    1  C   UNL     1     -10.398  12.377  68.187  1.00  0.00    -0.226 C  
ENDROOT
BRANCH   1   2
HETATM    2  C   UNL     1     -11.514  12.381  69.250  1.00  0.00    -0.349 C  
HETATM    3  C   UNL     1     -12.283  13.686  69.379  1.00  0.00    -0.307 C  
ENDBRANCH   1   2
BRANCH   1   4
HETATM    4  N   UNL     1      -9.218  11.700  68.739  1.00  0.00    -0.380 NA 
HETATM    5  H   UNL     1      -8.382  12.252  68.933  1.00  0.00     0.000 HD 
BRANCH   4   6
HETATM    6  C   UNL     1      -9.196  10.347  69.005  1.00  0.00    -0.187 A  
HETATM    7  C   UNL     1      -8.310   8.379  70.018  1.00  0.00    -0.123 A  
HETATM    8  N   UNL     1      -9.166   7.525  69.444  1.00  0.00    -0.149 NA 
HETATM    9  N   UNL     1      -7.220  10.274  70.641  1.00  0.00    -0.438 NA 
HETATM   10  C   UNL     1     -10.023   8.189  68.648  1.00  0.00    -0.190 A  
HETATM   11  C   UNL     1      -6.657   9.221  71.213  1.00  0.00    -0.056 A  
HETATM   12  H   UNL     1      -6.950  11.253  70.741  1.00  0.00     0.000 HD 
HETATM   13  N   UNL     1     -10.083   9.514  68.396  1.00  0.00    -0.169 NA 
HETATM   14  C   UNL     1      -8.253   9.756  69.877  1.00  0.00    -0.183 A  
HETATM   15  N   UNL     1      -7.290   8.058  70.869  1.00  0.00    -0.056 NA 
ENDBRANCH   4   6
ENDBRANCH   1   4
BRANCH   1  16
HETATM   16  C   UNL     1      -9.956  13.822  67.738  1.00  0.00    -0.242 C  
HETATM   17  O   UNL     1     -10.422  16.200  65.092  1.00  0.00    -0.560 OA 
HETATM   18  N   UNL     1      -9.289  14.530  68.609  1.00  0.00    -0.202 NA 
HETATM   19  C   UNL     1      -8.900  15.834  68.283  1.00  0.00    -0.180 A  
HETATM   20  N   UNL     1     -10.327  14.334  66.495  1.00  0.00    -0.274 N  
HETATM   21  C   UNL     1     -10.080  15.671  66.150  1.00  0.00    -0.313 C  
HETATM   22  C   UNL     1      -8.076  16.533  69.173  1.00  0.00    -0.170 A  
HETATM   23  C   UNL     1      -9.307  16.466  67.112  1.00  0.00    -0.228 A  
HETATM   24  C   UNL     1      -7.684  17.849  68.908  1.00  0.00    -0.206 A  
HETATM   25  C   UNL     1      -8.134  18.485  67.756  1.00  0.00    -0.264 A  
HETATM   26  F   UNL     1      -9.356  18.438  65.764  1.00  0.00    -0.156 F  
HETATM   27  C   UNL     1      -8.945  17.791  66.863  1.00  0.00    -0.255 A  
BRANCH  20  28
HETATM   28  C   UNL     1     -10.988  13.546  65.503  1.00  0.00    -0.288 A  
HETATM   29  C   UNL     1     -12.383  13.424  65.484  1.00  0.00    -0.528 A  
HETATM   30  C   UNL     1     -13.008  12.695  64.469  1.00  0.00    -0.236 A  
HETATM   31  C   UNL     1     -12.247  12.076  63.479  1.00  0.00    -0.653 A  
HETATM   32  C   UNL     1     -10.857  12.149  63.521  1.00  0.00    -0.518 A  
HETATM   33  C   UNL     1     -10.230  12.861  64.542  1.00  0.00    -0.334 A  
ENDBRANCH  20  28
ENDBRANCH   1  16
TORSDOF 5
ENDMDL
MODEL       62
REMARK 921   NORMALIZED FREE ENERGY PREDICTED BY IDOCK:   -7.12 KCAL/MOL
REMARK 922        TOTAL FREE ENERGY PREDICTED BY IDOCK:   -9.27 KCAL/MOL
REMARK 923 INTER-LIGAND FREE ENERGY PREDICTED BY IDOCK:   -8.43 KCAL/MOL
REMARK 924 INTRA-LIGAND FREE ENERGY PREDICTED BY IDOCK:   -0.84 KCAL/MOL
REMARK 927      BINDING AFFINITY PREDICTED BY RF-SCORE:    0.00 PKD
ROOT
HETATM    1  C   UNL     1     -10.337  14.249  66.202  1.00  0.00    -0.299 C  
ENDROOT
BRANCH   1   2
HETATM    2  C   UNL     1     -11.239  13.637  65.111  1.00  0.00    -0.318 C  
HETATM    3  C   UNL     1     -12.339  14.548  64.592  1.00  0.00    -0.419 C  
ENDBRANCH   1   2
BRANCH   1   4
HETATM    4  N   UNL     1      -9.001  13.650  66.104  1.00  0.00    -0.443 NA 
HETATM    5  H   UNL     1      -8.386  13.943  65.345  1.00  0.00     0.000 HD 
BRANCH   4   6
HETATM    6  C   UNL     1      -8.544  12.705  67.000  1.00  0.00    -0.181 A  
HETATM    7  C   UNL     1      -8.405  10.503  67.904  1.00  0.00    -0.115 A  
HETATM    8  N   UNL     1      -7.620  10.823  68.940  1.00  0.00    -0.112 NA 
HETATM    9  N   UNL     1      -9.671  10.619  66.019  1.00  0.00    -0.199 NA 
HETATM   10  C   UNL     1      -7.340  12.139  68.922  1.00  0.00    -0.054 A  
HETATM   11  C   UNL     1      -9.664   9.379  66.483  1.00  0.00    -0.236 A  
HETATM   12  H   UNL     1     -10.146  10.967  65.186  1.00  0.00     0.000 HD 
HETATM   13  N   UNL     1      -7.749  13.075  68.041  1.00  0.00    -0.130 NA 
HETATM   14  C   UNL     1      -8.892  11.338  66.911  1.00  0.00    -0.165 A  
HETATM   15  N   UNL     1      -8.906   9.265  67.615  1.00  0.00    -0.120 NA 
ENDBRANCH   4   6
ENDBRANCH   1   4
BRANCH   1  16
HETATM   16  C   UNL     1     -10.868  14.002  67.665  1.00  0.00    -0.262 C  
HETATM   17  O   UNL     1     -11.590  15.747  70.715  1.00  0.00    -0.330 OA 
HETATM   18  N   UNL     1     -11.350  12.817  67.924  1.00  0.00    -0.273 NA 
HETATM   19  C   UNL     1     -11.870  12.547  69.194  1.00  0.00    -0.296 A  
HETATM   20  N   UNL     1     -10.882  15.031  68.607  1.00  0.00    -0.241 N  
HETATM   21  C   UNL     1     -11.499  14.870  69.857  1.00  0.00    -0.284 C  
HETATM   22  C   UNL     1     -12.263  11.238  69.497  1.00  0.00    -0.325 A  
HETATM   23  C   UNL     1     -12.019  13.532  70.166  1.00  0.00    -0.399 A  
HETATM   24  C   UNL     1     -12.817  10.924  70.742  1.00  0.00    -0.378 A  
HETATM   25  C   UNL     1     -13.001  11.925  71.689  1.00  0.00    -0.447 A  
HETATM   26  F   UNL     1     -12.796  14.161  72.336  1.00  0.00    -0.393 F  
HETATM   27  C   UNL     1     -12.603  13.226  71.397  1.00  0.00    -0.271 A  
BRANCH  20  28
HETATM   28  C   UNL     1     -10.289  16.307  68.365  1.00  0.00    -0.271 A  
HETATM   29  C   UNL     1     -10.995  17.323  67.710  1.00  0.00    -0.163 A  
HETATM   30  C   UNL     1     -10.412  18.581  67.535  1.00  0.00    -0.453 A  
HETATM   31  C   UNL     1      -9.122  18.827  68.003  1.00  0.00    -0.328 A  
HETATM   32  C   UNL     1      -8.394  17.806  68.608  1.00  0.00    -0.274 A  
HETATM   33  C   UNL     1      -8.966  16.546  68.767  1.00  0.00    -0.250 A  
ENDBRANCH  20  28
ENDBRANCH   1  16
TORSDOF 5
ENDMDL
MODEL       63
REMARK 921   NORMALIZED FREE ENERGY PREDICTED BY IDOCK:   -7.08 KCAL/MOL
REMARK 922        TOTAL FREE ENERGY PREDICTED BY IDOCK:   -9.22 KCAL/MOL
REMARK 923 INTER-LIGAND FREE ENERGY PREDICTED BY IDOCK:   -7.60 KCAL/MOL
REMARK 924 INTRA-LIGAND FREE ENERGY PREDICTED BY IDOCK:   -1.63 KCAL/MOL
REMARK 927      BINDING AFFINITY PREDICTED BY RF-SCORE:    0.00 PKD
ROOT
HETATM    1  C   UNL     1      -9.780  12.281  66.977  1.00  0.00    -0.205 C  
ENDROOT
BRANCH   1   2
HETATM    2  C   UNL     1     -10.571  11.793  65.747  1.00  0.00    -0.312 C  
HETATM    3  C   UNL     1     -11.807  12.609  65.405  1.00  0.00    -0.473 C  
ENDBRANCH   1   2
BRANCH   1   4
HETATM    4  N   UNL     1      -8.523  11.528  67.062  1.00  0.00    -0.157 NA 
HETATM    5  H   UNL     1      -8.363  10.765  66.403  1.00  0.00     0.000 HD 
BRANCH   4   6
HETATM    6  C   UNL     1      -7.550  11.810  67.999  1.00  0.00    -0.116 A  
HETATM    7  C   UNL     1      -5.824  13.147  68.955  1.00  0.00    -0.079 A  
HETATM    8  N   UNL     1      -5.499  12.288  69.929  1.00  0.00    -0.089 NA 
HETATM    9  N   UNL     1      -6.823  14.125  67.162  1.00  0.00    -0.388 NA 
HETATM   10  C   UNL     1      -6.275  11.191  69.858  1.00  0.00    -0.133 A  
HETATM   11  C   UNL     1      -5.856  14.904  67.620  1.00  0.00    -0.028 A  
HETATM   12  H   UNL     1      -7.445  14.305  66.374  1.00  0.00     0.000 HD 
HETATM   13  N   UNL     1      -7.251  10.906  68.971  1.00  0.00    -0.091 NA 
HETATM   14  C   UNL     1      -6.804  13.011  67.986  1.00  0.00    -0.113 A  
HETATM   15  N   UNL     1      -5.233  14.355  68.707  1.00  0.00    -0.085 NA 
ENDBRANCH   4   6
ENDBRANCH   1   4
BRANCH   1  16
HETATM   16  C   UNL     1     -10.551  12.083  68.336  1.00  0.00    -0.217 C  
HETATM   17  O   UNL     1     -12.332  13.931  70.843  1.00  0.00    -0.341 OA 
HETATM   18  N   UNL     1     -10.784  10.853  68.707  1.00  0.00    -0.193 NA 
HETATM   19  C   UNL     1     -11.496  10.612  69.887  1.00  0.00    -0.317 A  
HETATM   20  N   UNL     1     -11.020  13.177  69.063  1.00  0.00    -0.228 N  
HETATM   21  C   UNL     1     -11.845  13.012  70.186  1.00  0.00    -0.252 C  
HETATM   22  C   UNL     1     -11.625   9.293  70.338  1.00  0.00    -0.215 A  
HETATM   23  C   UNL     1     -12.089  11.632  70.624  1.00  0.00    -0.432 A  
HETATM   24  C   UNL     1     -12.353   8.997  71.495  1.00  0.00    -0.397 A  
HETATM   25  C   UNL     1     -12.978  10.021  72.199  1.00  0.00    -0.460 A  
HETATM   26  F   UNL     1     -13.460  12.292  72.467  1.00  0.00    -0.602 F  
HETATM   27  C   UNL     1     -12.845  11.334  71.760  1.00  0.00    -0.360 A  
BRANCH  20  28
HETATM   28  C   UNL     1     -10.708  14.526  68.713  1.00  0.00    -0.253 A  
HETATM   29  C   UNL     1     -11.494  15.240  67.800  1.00  0.00    -0.312 A  
HETATM   30  C   UNL     1     -11.200  16.576  67.517  1.00  0.00     0.021 A  
HETATM   31  C   UNL     1     -10.118  17.202  68.134  1.00  0.00    -0.311 A  
HETATM   32  C   UNL     1      -9.301  16.484  69.003  1.00  0.00    -0.239 A  
HETATM   33  C   UNL     1      -9.580  15.146  69.273  1.00  0.00    -0.218 A  
ENDBRANCH  20  28
ENDBRANCH   1  16
TORSDOF 5
ENDMDL
MODEL       64
REMARK 921   NORMALIZED FREE ENERGY PREDICTED BY IDOCK:   -7.08 KCAL/MOL
REMARK 922        TOTAL FREE ENERGY PREDICTED BY IDOCK:   -9.22 KCAL/MOL
REMARK 923 INTER-LIGAND FREE ENERGY PREDICTED BY IDOCK:   -7.81 KCAL/MOL
REMARK 924 INTRA-LIGAND FREE ENERGY PREDICTED BY IDOCK:   -1.41 KCAL/MOL
REMARK 927      BINDING AFFINITY PREDICTED BY RF-SCORE:    0.00 PKD
ROOT
HETATM    1  C   UNL     1      -9.118   9.284  68.102  1.00  0.00    -0.128 C  
ENDROOT
BRANCH   1   2
HETATM    2  C   UNL     1      -9.878   7.944  68.162  1.00  0.00    -0.193 C  
HETATM    3  C   UNL     1      -9.009   6.700  68.083  1.00  0.00    -0.121 C  
ENDBRANCH   1   2
BRANCH   1   4
HETATM    4  N   UNL     1      -9.219   9.946  69.408  1.00  0.00    -0.200 NA 
HETATM    5  H   UNL     1      -8.829  10.883  69.514  1.00  0.00     0.000 HD 
BRANCH   4   6
HETATM    6  C   UNL     1      -9.819   9.350  70.498  1.00  0.00    -0.270 A  
HETATM    7  C   UNL     1     -11.659   8.890  71.943  1.00  0.00    -0.371 A  
HETATM    8  N   UNL     1     -10.971   8.146  72.818  1.00  0.00    -0.372 NA 
HETATM    9  N   UNL     1     -12.223  10.182  70.159  1.00  0.00    -0.484 NA 
HETATM   10  C   UNL     1      -9.683   8.055  72.440  1.00  0.00    -0.240 A  
HETATM   11  C   UNL     1     -13.280   9.995  70.934  1.00  0.00    -0.268 A  
HETATM   12  H   UNL     1     -12.177  10.712  69.289  1.00  0.00     0.000 HD 
HETATM   13  N   UNL     1      -9.081   8.603  71.364  1.00  0.00    -0.207 NA 
HETATM   14  C   UNL     1     -11.194   9.502  70.791  1.00  0.00    -0.317 A  
HETATM   15  N   UNL     1     -12.984   9.214  72.017  1.00  0.00    -0.390 NA 
ENDBRANCH   4   6
ENDBRANCH   1   4
BRANCH   1  16
HETATM   16  C   UNL     1      -9.682  10.277  67.016  1.00  0.00    -0.176 C  
HETATM   17  O   UNL     1      -9.600  10.909  63.485  1.00  0.00    -0.256 OA 
HETATM   18  N   UNL     1     -10.595  11.123  67.410  1.00  0.00    -0.220 NA 
HETATM   19  C   UNL     1     -11.161  12.005  66.484  1.00  0.00    -0.334 A  
HETATM   20  N   UNL     1      -9.269  10.197  65.686  1.00  0.00    -0.175 N  
HETATM   21  C   UNL     1      -9.881  10.964  64.682  1.00  0.00    -0.294 C  
HETATM   22  C   UNL     1     -12.041  12.992  66.946  1.00  0.00    -0.349 A  
HETATM   23  C   UNL     1     -10.889  11.936  65.121  1.00  0.00    -0.350 A  
HETATM   24  C   UNL     1     -12.657  13.879  66.057  1.00  0.00    -0.467 A  
HETATM   25  C   UNL     1     -12.411  13.771  64.692  1.00  0.00    -0.356 A  
HETATM   26  F   UNL     1     -11.318  12.729  62.908  1.00  0.00    -0.414 F  
HETATM   27  C   UNL     1     -11.530  12.800  64.230  1.00  0.00    -0.373 A  
BRANCH  20  28
HETATM   28  C   UNL     1      -8.218   9.331  65.255  1.00  0.00    -0.134 A  
HETATM   29  C   UNL     1      -8.489   8.051  64.759  1.00  0.00    -0.037 A  
HETATM   30  C   UNL     1      -7.448   7.246  64.291  1.00  0.00    -0.101 A  
HETATM   31  C   UNL     1      -6.133   7.709  64.326  1.00  0.00    -0.048 A  
HETATM   32  C   UNL     1      -5.850   8.960  64.867  1.00  0.00    -0.063 A  
HETATM   33  C   UNL     1      -6.885   9.759  65.350  1.00  0.00    -0.101 A  
ENDBRANCH  20  28
ENDBRANCH   1  16
TORSDOF 5
ENDMDL
MODEL       65
REMARK 921   NORMALIZED FREE ENERGY PREDICTED BY IDOCK:   -7.08 KCAL/MOL
REMARK 922        TOTAL FREE ENERGY PREDICTED BY IDOCK:   -9.22 KCAL/MOL
REMARK 923 INTER-LIGAND FREE ENERGY PREDICTED BY IDOCK:   -7.91 KCAL/MOL
REMARK 924 INTRA-LIGAND FREE ENERGY PREDICTED BY IDOCK:   -1.31 KCAL/MOL
REMARK 927      BINDING AFFINITY PREDICTED BY RF-SCORE:    0.00 PKD
ROOT
HETATM    1  C   UNL     1     -10.568  11.663  68.574  1.00  0.00    -0.215 C  
ENDROOT
BRANCH   1   2
HETATM    2  C   UNL     1     -11.462  12.692  69.295  1.00  0.00    -0.354 C  
HETATM    3  C   UNL     1     -10.928  14.115  69.312  1.00  0.00    -0.252 C  
ENDBRANCH   1   2
BRANCH   1   4
HETATM    4  N   UNL     1     -11.336  11.047  67.486  1.00  0.00    -0.452 NA 
HETATM    5  H   UNL     1     -12.043  10.349  67.718  1.00  0.00     0.000 HD 
BRANCH   4   6
HETATM    6  C   UNL     1     -11.139  11.375  66.160  1.00  0.00    -0.198 A  
HETATM    7  C   UNL     1     -11.513  12.676  64.198  1.00  0.00    -0.387 A  
HETATM    8  N   UNL     1     -10.739  11.942  63.389  1.00  0.00    -0.415 NA 
HETATM    9  N   UNL     1     -12.618  13.467  66.021  1.00  0.00    -0.395 NA 
HETATM   10  C   UNL     1     -10.191  10.920  64.071  1.00  0.00    -0.357 A  
HETATM   11  C   UNL     1     -12.896  14.215  64.965  1.00  0.00    -0.221 A  
HETATM   12  H   UNL     1     -12.961  13.587  66.974  1.00  0.00     0.000 HD 
HETATM   13  N   UNL     1     -10.345  10.598  65.373  1.00  0.00    -0.260 NA 
HETATM   14  C   UNL     1     -11.759  12.488  65.549  1.00  0.00    -0.409 A  
HETATM   15  N   UNL     1     -12.244  13.776  63.846  1.00  0.00    -0.638 NA 
ENDBRANCH   4   6
ENDBRANCH   1   4
BRANCH   1  16
HETATM   16  C   UNL     1     -10.061  10.507  69.517  1.00  0.00    -0.178 C  
HETATM   17  O   UNL     1      -7.083   8.701  70.382  1.00  0.00    -0.039 OA 
HETATM   18  N   UNL     1     -10.900  10.067  70.415  1.00  0.00    -0.303 NA 
HETATM   19  C   UNL     1     -10.496   9.067  71.305  1.00  0.00    -0.311 A  
HETATM   20  N   UNL     1      -8.751  10.034  69.432  1.00  0.00    -0.174 N  
HETATM   21  C   UNL     1      -8.239   9.122  70.369  1.00  0.00    -0.171 C  
HETATM   22  C   UNL     1     -11.445   8.515  72.174  1.00  0.00    -0.446 A  
HETATM   23  C   UNL     1      -9.185   8.604  71.365  1.00  0.00    -0.303 A  
HETATM   24  C   UNL     1     -11.084   7.534  73.104  1.00  0.00    -0.378 A  
HETATM   25  C   UNL     1      -9.761   7.112  73.184  1.00  0.00    -0.232 A  
HETATM   26  F   UNL     1      -7.554   7.214  72.423  1.00  0.00    -0.085 F  
HETATM   27  C   UNL     1      -8.817   7.649  72.315  1.00  0.00    -0.131 A  
BRANCH  20  28
HETATM   28  C   UNL     1      -7.846  10.448  68.408  1.00  0.00    -0.104 A  
HETATM   29  C   UNL     1      -7.643   9.672  67.261  1.00  0.00    -0.091 A  
HETATM   30  C   UNL     1      -6.796  10.128  66.247  1.00  0.00    -0.104 A  
HETATM   31  C   UNL     1      -6.141  11.351  66.378  1.00  0.00    -0.085 A  
HETATM   32  C   UNL     1      -6.296  12.103  67.539  1.00  0.00    -0.129 A  
HETATM   33  C   UNL     1      -7.126  11.643  68.559  1.00  0.00    -0.089 A  
ENDBRANCH  20  28
ENDBRANCH   1  16
TORSDOF 5
ENDMDL
MODEL       66
REMARK 921   NORMALIZED FREE ENERGY PREDICTED BY IDOCK:   -7.08 KCAL/MOL
REMARK 922        TOTAL FREE ENERGY PREDICTED BY IDOCK:   -9.21 KCAL/MOL
REMARK 923 INTER-LIGAND FREE ENERGY PREDICTED BY IDOCK:   -7.92 KCAL/MOL
REMARK 924 INTRA-LIGAND FREE ENERGY PREDICTED BY IDOCK:   -1.29 KCAL/MOL
REMARK 927      BINDING AFFINITY PREDICTED BY RF-SCORE:    0.00 PKD
ROOT
HETATM    1  C   UNL     1      -9.233   8.693  66.618  1.00  0.00    -0.181 C  
ENDROOT
BRANCH   1   2
HETATM    2  C   UNL     1      -8.222   9.836  66.835  1.00  0.00    -0.117 C  
HETATM    3  C   UNL     1      -6.997   9.470  67.657  1.00  0.00    -0.080 C  
ENDBRANCH   1   2
BRANCH   1   4
HETATM    4  N   UNL     1     -10.268   9.145  65.679  1.00  0.00    -0.221 NA 
HETATM    5  H   UNL     1     -11.026   8.506  65.440  1.00  0.00     0.000 HD 
BRANCH   4   6
HETATM    6  C   UNL     1     -10.253  10.401  65.109  1.00  0.00    -0.256 A  
HETATM    7  C   UNL     1     -10.851  12.706  64.991  1.00  0.00    -0.290 A  
HETATM    8  N   UNL     1     -10.243  12.952  63.824  1.00  0.00    -0.330 NA 
HETATM    9  N   UNL     1     -11.631  11.673  66.861  1.00  0.00    -0.542 NA 
HETATM   10  C   UNL     1      -9.650  11.836  63.364  1.00  0.00    -0.244 A  
HETATM   11  C   UNL     1     -12.026  12.937  66.844  1.00  0.00    -0.335 A  
HETATM   12  H   UNL     1     -11.823  10.972  67.576  1.00  0.00     0.000 HD 
HETATM   13  N   UNL     1      -9.625  10.606  63.919  1.00  0.00    -0.279 NA 
HETATM   14  C   UNL     1     -10.901  11.513  65.694  1.00  0.00    -0.252 A  
HETATM   15  N   UNL     1     -11.570  13.597  65.738  1.00  0.00    -0.324 NA 
ENDBRANCH   4   6
ENDBRANCH   1   4
BRANCH   1  16
HETATM   16  C   UNL     1      -9.955   8.234  67.942  1.00  0.00    -0.183 C  
HETATM   17  O   UNL     1     -10.632   5.299  69.892  1.00  0.00    -0.306 OA 
HETATM   18  N   UNL     1     -10.382   9.177  68.737  1.00  0.00    -0.211 NA 
HETATM   19  C   UNL     1     -10.997   8.834  69.945  1.00  0.00    -0.179 A  
HETATM   20  N   UNL     1     -10.062   6.882  68.271  1.00  0.00    -0.160 N  
HETATM   21  C   UNL     1     -10.555   6.469  69.518  1.00  0.00    -0.246 C  
HETATM   22  C   UNL     1     -11.566   9.850  70.724  1.00  0.00    -0.430 A  
HETATM   23  C   UNL     1     -11.061   7.523  70.406  1.00  0.00    -0.277 A  
HETATM   24  C   UNL     1     -12.166   9.562  71.954  1.00  0.00    -0.432 A  
HETATM   25  C   UNL     1     -12.184   8.253  72.424  1.00  0.00    -0.412 A  
HETATM   26  F   UNL     1     -11.669   5.992  72.137  1.00  0.00    -0.326 F  
HETATM   27  C   UNL     1     -11.630   7.239  71.649  1.00  0.00    -0.274 A  
BRANCH  20  28
HETATM   28  C   UNL     1      -9.670   5.838  67.378  1.00  0.00    -0.123 A  
HETATM   29  C   UNL     1     -10.574   5.289  66.462  1.00  0.00    -0.348 A  
HETATM   30  C   UNL     1     -10.150   4.309  65.561  1.00  0.00    -0.235 A  
HETATM   31  C   UNL     1      -8.829   3.865  65.578  1.00  0.00    -0.124 A  
HETATM   32  C   UNL     1      -7.938   4.368  66.522  1.00  0.00    -0.099 A  
HETATM   33  C   UNL     1      -8.362   5.333  67.433  1.00  0.00    -0.106 A  
ENDBRANCH  20  28
ENDBRANCH   1  16
TORSDOF 5
ENDMDL
MODEL       67
REMARK 921   NORMALIZED FREE ENERGY PREDICTED BY IDOCK:   -7.07 KCAL/MOL
REMARK 922        TOTAL FREE ENERGY PREDICTED BY IDOCK:   -9.21 KCAL/MOL
REMARK 923 INTER-LIGAND FREE ENERGY PREDICTED BY IDOCK:   -7.99 KCAL/MOL
REMARK 924 INTRA-LIGAND FREE ENERGY PREDICTED BY IDOCK:   -1.22 KCAL/MOL
REMARK 927      BINDING AFFINITY PREDICTED BY RF-SCORE:    0.00 PKD
ROOT
HETATM    1  C   UNL     1      -8.171  11.817  67.804  1.00  0.00    -0.144 C  
ENDROOT
BRANCH   1   2
HETATM    2  C   UNL     1      -6.648  11.611  67.912  1.00  0.00    -0.065 C  
HETATM    3  C   UNL     1      -5.798  12.742  67.356  1.00  0.00    -0.094 C  
ENDBRANCH   1   2
BRANCH   1   4
HETATM    4  N   UNL     1      -8.566  12.915  68.695  1.00  0.00    -0.365 NA 
HETATM    5  H   UNL     1      -8.086  13.016  69.589  1.00  0.00     0.000 HD 
BRANCH   4   6
HETATM    6  C   UNL     1      -9.561  13.814  68.369  1.00  0.00    -0.206 A  
HETATM    7  C   UNL     1     -10.424  15.747  67.272  1.00  0.00    -0.308 A  
HETATM    8  N   UNL     1     -11.649  15.680  67.807  1.00  0.00    -0.213 NA 
HETATM    9  N   UNL     1      -8.259  15.305  66.736  1.00  0.00    -0.313 NA 
HETATM   10  C   UNL     1     -11.740  14.619  68.629  1.00  0.00    -0.329 A  
HETATM   11  C   UNL     1      -8.661  16.405  66.119  1.00  0.00    -0.312 A  
HETATM   12  H   UNL     1      -7.342  14.862  66.679  1.00  0.00     0.000 HD 
HETATM   13  N   UNL     1     -10.792  13.710  68.939  1.00  0.00    -0.248 NA 
HETATM   14  C   UNL     1      -9.355  14.889  67.474  1.00  0.00    -0.193 A  
HETATM   15  N   UNL     1      -9.964  16.703  66.410  1.00  0.00    -0.287 NA 
ENDBRANCH   4   6
ENDBRANCH   1   4
BRANCH   1  16
HETATM   16  C   UNL     1      -9.007  10.545  68.211  1.00  0.00    -0.139 C  
HETATM   17  O   UNL     1     -10.746   7.755  66.773  1.00  0.00    -0.311 OA 
HETATM   18  N   UNL     1      -9.036  10.242  69.481  1.00  0.00    -0.197 NA 
HETATM   19  C   UNL     1      -9.731   9.103  69.901  1.00  0.00    -0.191 A  
HETATM   20  N   UNL     1      -9.621   9.748  67.245  1.00  0.00    -0.153 N  
HETATM   21  C   UNL     1     -10.229   8.528  67.579  1.00  0.00    -0.242 C  
HETATM   22  C   UNL     1      -9.863   8.863  71.275  1.00  0.00    -0.361 A  
HETATM   23  C   UNL     1     -10.289   8.194  69.007  1.00  0.00    -0.229 A  
HETATM   24  C   UNL     1     -10.521   7.723  71.745  1.00  0.00    -0.259 A  
HETATM   25  C   UNL     1     -11.037   6.800  70.841  1.00  0.00    -0.322 A  
HETATM   26  F   UNL     1     -11.428   6.126  68.638  1.00  0.00    -0.425 F  
HETATM   27  C   UNL     1     -10.917   7.038  69.476  1.00  0.00    -0.220 A  
BRANCH  20  28
HETATM   28  C   UNL     1      -9.664  10.107  65.863  1.00  0.00    -0.232 A  
HETATM   29  C   UNL     1     -10.518  11.115  65.400  1.00  0.00    -0.321 A  
HETATM   30  C   UNL     1     -10.499  11.486  64.053  1.00  0.00    -0.424 A  
HETATM   31  C   UNL     1      -9.637  10.848  63.162  1.00  0.00    -0.384 A  
HETATM   32  C   UNL     1      -8.823   9.809  63.604  1.00  0.00    -0.258 A  
HETATM   33  C   UNL     1      -8.852   9.425  64.943  1.00  0.00    -0.240 A  
ENDBRANCH  20  28
ENDBRANCH   1  16
TORSDOF 5
ENDMDL
MODEL       68
REMARK 921   NORMALIZED FREE ENERGY PREDICTED BY IDOCK:   -7.04 KCAL/MOL
REMARK 922        TOTAL FREE ENERGY PREDICTED BY IDOCK:   -9.16 KCAL/MOL
REMARK 923 INTER-LIGAND FREE ENERGY PREDICTED BY IDOCK:   -7.73 KCAL/MOL
REMARK 924 INTRA-LIGAND FREE ENERGY PREDICTED BY IDOCK:   -1.44 KCAL/MOL
REMARK 927      BINDING AFFINITY PREDICTED BY RF-SCORE:    0.00 PKD
ROOT
HETATM    1  C   UNL     1     -10.938  10.322  69.297  1.00  0.00    -0.241 C  
ENDROOT
BRANCH   1   2
HETATM    2  C   UNL     1     -11.645   9.622  70.475  1.00  0.00    -0.341 C  
HETATM    3  C   UNL     1     -12.496  10.526  71.351  1.00  0.00    -0.516 C  
ENDBRANCH   1   2
BRANCH   1   4
HETATM    4  N   UNL     1     -11.936  11.067  68.520  1.00  0.00    -0.712 NA 
HETATM    5  H   UNL     1     -12.752  10.569  68.164  1.00  0.00     0.000 HD 
BRANCH   4   6
HETATM    6  C   UNL     1     -11.812  12.415  68.252  1.00  0.00    -0.309 A  
HETATM    7  C   UNL     1     -11.738  14.313  66.811  1.00  0.00    -0.405 A  
HETATM    8  N   UNL     1     -11.466  15.208  67.768  1.00  0.00    -0.331 NA 
HETATM    9  N   UNL     1     -12.194  12.374  65.714  1.00  0.00    -0.638 NA 
HETATM   10  C   UNL     1     -11.385  14.600  68.965  1.00  0.00    -0.277 A  
HETATM   11  C   UNL     1     -12.136  13.377  64.853  1.00  0.00    -0.392 A  
HETATM   12  H   UNL     1     -12.388  11.393  65.513  1.00  0.00     0.000 HD 
HETATM   13  N   UNL     1     -11.532  13.290  69.255  1.00  0.00    -0.283 NA 
HETATM   14  C   UNL     1     -11.934  12.948  66.948  1.00  0.00    -0.335 A  
HETATM   15  N   UNL     1     -11.870  14.566  65.474  1.00  0.00    -0.348 NA 
ENDBRANCH   4   6
ENDBRANCH   1   4
BRANCH   1  16
HETATM   16  C   UNL     1     -10.216   9.322  68.316  1.00  0.00    -0.201 C  
HETATM   17  O   UNL     1      -7.073   8.792  66.668  1.00  0.00    -0.078 OA 
HETATM   18  N   UNL     1     -10.843   8.210  68.042  1.00  0.00    -0.026 NA 
HETATM   19  C   UNL     1     -10.238   7.266  67.207  1.00  0.00    -0.253 A  
HETATM   20  N   UNL     1      -8.937   9.591  67.828  1.00  0.00    -0.123 N  
HETATM   21  C   UNL     1      -8.220   8.639  67.087  1.00  0.00    -0.107 C  
HETATM   22  C   UNL     1     -10.974   6.140  66.818  1.00  0.00    -0.322 A  
HETATM   23  C   UNL     1      -8.929   7.398  66.753  1.00  0.00    -0.159 A  
HETATM   24  C   UNL     1     -10.403   5.152  66.009  1.00  0.00    -0.231 A  
HETATM   25  C   UNL     1      -9.080   5.274  65.598  1.00  0.00    -0.158 A  
HETATM   26  F   UNL     1      -7.077   6.477  65.556  1.00  0.00    -0.058 F  
HETATM   27  C   UNL     1      -8.348   6.396  65.973  1.00  0.00    -0.132 A  
BRANCH  20  28
HETATM   28  C   UNL     1      -8.272  10.835  68.055  1.00  0.00    -0.115 A  
HETATM   29  C   UNL     1      -7.413  11.010  69.147  1.00  0.00    -0.121 A  
HETATM   30  C   UNL     1      -6.730  12.217  69.314  1.00  0.00    -0.075 A  
HETATM   31  C   UNL     1      -6.908  13.256  68.402  1.00  0.00    -0.098 A  
HETATM   32  C   UNL     1      -7.800  13.108  67.343  1.00  0.00    -0.169 A  
HETATM   33  C   UNL     1      -8.497  11.912  67.184  1.00  0.00    -0.173 A  
ENDBRANCH  20  28
ENDBRANCH   1  16
TORSDOF 5
ENDMDL
MODEL       69
REMARK 921   NORMALIZED FREE ENERGY PREDICTED BY IDOCK:   -6.96 KCAL/MOL
REMARK 922        TOTAL FREE ENERGY PREDICTED BY IDOCK:   -9.07 KCAL/MOL
REMARK 923 INTER-LIGAND FREE ENERGY PREDICTED BY IDOCK:   -7.49 KCAL/MOL
REMARK 924 INTRA-LIGAND FREE ENERGY PREDICTED BY IDOCK:   -1.57 KCAL/MOL
REMARK 927      BINDING AFFINITY PREDICTED BY RF-SCORE:    0.00 PKD
ROOT
HETATM    1  C   UNL     1     -11.385   8.613  71.128  1.00  0.00    -0.275 C  
ENDROOT
BRANCH   1   2
HETATM    2  C   UNL     1     -12.733   8.668  71.874  1.00  0.00    -0.413 C  
HETATM    3  C   UNL     1     -13.669   7.499  71.611  1.00  0.00    -0.465 C  
ENDBRANCH   1   2
BRANCH   1   4
HETATM    4  N   UNL     1     -10.299   8.816  72.094  1.00  0.00    -0.332 NA 
HETATM    5  H   UNL     1     -10.397   9.550  72.795  1.00  0.00     0.000 HD 
BRANCH   4   6
HETATM    6  C   UNL     1      -9.150   8.052  72.089  1.00  0.00    -0.168 A  
HETATM    7  C   UNL     1      -7.941   6.005  71.911  1.00  0.00    -0.107 A  
HETATM    8  N   UNL     1      -6.736   6.527  72.174  1.00  0.00    -0.062 NA 
HETATM    9  N   UNL     1     -10.171   5.762  71.540  1.00  0.00    -0.196 NA 
HETATM   10  C   UNL     1      -6.839   7.851  72.386  1.00  0.00    -0.073 A  
HETATM   11  C   UNL     1      -9.569   4.586  71.458  1.00  0.00    -0.163 A  
HETATM   12  H   UNL     1     -11.163   5.962  71.413  1.00  0.00     0.000 HD 
HETATM   13  N   UNL     1      -7.946   8.623  72.366  1.00  0.00    -0.361 NA 
HETATM   14  C   UNL     1      -9.159   6.661  71.837  1.00  0.00    -0.143 A  
HETATM   15  N   UNL     1      -8.222   4.690  71.668  1.00  0.00    -0.102 NA 
ENDBRANCH   4   6
ENDBRANCH   1   4
BRANCH   1  16
HETATM   16  C   UNL     1     -11.244   9.714  70.009  1.00  0.00    -0.231 C  
HETATM   17  O   UNL     1     -10.347  10.102  66.557  1.00  0.00    -0.231 OA 
HETATM   18  N   UNL     1     -11.695  10.905  70.295  1.00  0.00    -0.322 NA 
HETATM   19  C   UNL     1     -11.632  11.916  69.330  1.00  0.00    -0.325 A  
HETATM   20  N   UNL     1     -10.724   9.400  68.753  1.00  0.00    -0.204 N  
HETATM   21  C   UNL     1     -10.743  10.327  67.700  1.00  0.00    -0.288 C  
HETATM   22  C   UNL     1     -11.998  13.218  69.693  1.00  0.00    -0.376 A  
HETATM   23  C   UNL     1     -11.224  11.676  68.021  1.00  0.00    -0.327 A  
HETATM   24  C   UNL     1     -11.981  14.257  68.757  1.00  0.00    -0.346 A  
HETATM   25  C   UNL     1     -11.615  13.995  67.441  1.00  0.00    -0.397 A  
HETATM   26  F   UNL     1     -10.892  12.496  65.802  1.00  0.00    -0.280 F  
HETATM   27  C   UNL     1     -11.239  12.706  67.078  1.00  0.00    -0.300 A  
BRANCH  20  28
HETATM   28  C   UNL     1     -10.156   8.125  68.451  1.00  0.00    -0.200 A  
HETATM   29  C   UNL     1      -8.771   7.926  68.461  1.00  0.00    -0.131 A  
HETATM   30  C   UNL     1      -8.243   6.655  68.217  1.00  0.00    -0.114 A  
HETATM   31  C   UNL     1      -9.093   5.582  67.953  1.00  0.00    -0.109 A  
HETATM   32  C   UNL     1     -10.469   5.783  67.889  1.00  0.00    -0.290 A  
HETATM   33  C   UNL     1     -10.997   7.053  68.114  1.00  0.00    -0.165 A  
ENDBRANCH  20  28
ENDBRANCH   1  16
TORSDOF 5
ENDMDL
MODEL       70
REMARK 921   NORMALIZED FREE ENERGY PREDICTED BY IDOCK:   -6.95 KCAL/MOL
REMARK 922        TOTAL FREE ENERGY PREDICTED BY IDOCK:   -9.05 KCAL/MOL
REMARK 923 INTER-LIGAND FREE ENERGY PREDICTED BY IDOCK:   -8.78 KCAL/MOL
REMARK 924 INTRA-LIGAND FREE ENERGY PREDICTED BY IDOCK:   -0.27 KCAL/MOL
REMARK 927      BINDING AFFINITY PREDICTED BY RF-SCORE:    0.00 PKD
ROOT
HETATM    1  C   UNL     1     -11.891  13.207  67.832  1.00  0.00    -0.348 C  
ENDROOT
BRANCH   1   2
HETATM    2  C   UNL     1     -12.143  14.309  66.784  1.00  0.00    -0.446 C  
HETATM    3  C   UNL     1     -12.605  13.816  65.422  1.00  0.00    -0.534 C  
ENDBRANCH   1   2
BRANCH   1   4
HETATM    4  N   UNL     1     -11.528  13.838  69.107  1.00  0.00    -0.279 NA 
HETATM    5  H   UNL     1     -10.697  14.428  69.143  1.00  0.00     0.000 HD 
BRANCH   4   6
HETATM    6  C   UNL     1     -12.269  13.664  70.258  1.00  0.00    -0.353 A  
HETATM    7  C   UNL     1     -13.288  12.355  71.970  1.00  0.00    -0.407 A  
HETATM    8  N   UNL     1     -13.880  13.378  72.599  1.00  0.00    -0.745 NA 
HETATM    9  N   UNL     1     -12.066  11.118  70.506  1.00  0.00    -0.356 NA 
HETATM   10  C   UNL     1     -13.602  14.534  71.971  1.00  0.00    -0.416 A  
HETATM   11  C   UNL     1     -12.628  10.327  71.406  1.00  0.00    -0.434 A  
HETATM   12  H   UNL     1     -11.458  10.846  69.733  1.00  0.00     0.000 HD 
HETATM   13  N   UNL     1     -12.856  14.733  70.863  1.00  0.00    -0.344 NA 
HETATM   14  C   UNL     1     -12.484  12.395  70.842  1.00  0.00    -0.274 A  
HETATM   15  N   UNL     1     -13.367  11.035  72.313  1.00  0.00    -0.235 NA 
ENDBRANCH   4   6
ENDBRANCH   1   4
BRANCH   1  16
HETATM   16  C   UNL     1     -10.726  12.222  67.436  1.00  0.00    -0.230 C  
HETATM   17  O   UNL     1      -7.164  12.119  67.021  1.00  0.00    -0.134 OA 
HETATM   18  N   UNL     1     -11.038  10.960  67.315  1.00  0.00    -0.303 NA 
HETATM   19  C   UNL     1     -10.040  10.031  67.001  1.00  0.00    -0.219 A  
HETATM   20  N   UNL     1      -9.415  12.679  67.296  1.00  0.00    -0.193 N  
HETATM   21  C   UNL     1      -8.347  11.789  67.104  1.00  0.00    -0.168 C  
HETATM   22  C   UNL     1     -10.411   8.705  66.747  1.00  0.00    -0.336 A  
HETATM   23  C   UNL     1      -8.693  10.372  66.940  1.00  0.00    -0.130 A  
HETATM   24  C   UNL     1      -9.448   7.732  66.459  1.00  0.00    -0.262 A  
HETATM   25  C   UNL     1      -8.101   8.077  66.444  1.00  0.00    -0.107 A  
HETATM   26  F   UNL     1      -6.421   9.686  66.662  1.00  0.00    -0.063 F  
HETATM   27  C   UNL     1      -7.728   9.395  66.686  1.00  0.00    -0.097 A  
BRANCH  20  28
HETATM   28  C   UNL     1      -9.071  14.064  67.349  1.00  0.00    -0.209 A  
HETATM   29  C   UNL     1      -9.037  14.849  66.191  1.00  0.00    -0.202 A  
HETATM   30  C   UNL     1      -8.753  16.214  66.278  1.00  0.00    -0.373 A  
HETATM   31  C   UNL     1      -8.493  16.799  67.516  1.00  0.00    -0.203 A  
HETATM   32  C   UNL     1      -8.473  16.015  68.666  1.00  0.00    -0.208 A  
HETATM   33  C   UNL     1      -8.738  14.649  68.580  1.00  0.00    -0.174 A  
ENDBRANCH  20  28
ENDBRANCH   1  16
TORSDOF 5
ENDMDL
MODEL       71
REMARK 921   NORMALIZED FREE ENERGY PREDICTED BY IDOCK:   -6.93 KCAL/MOL
REMARK 922        TOTAL FREE ENERGY PREDICTED BY IDOCK:   -9.02 KCAL/MOL
REMARK 923 INTER-LIGAND FREE ENERGY PREDICTED BY IDOCK:   -7.68 KCAL/MOL
REMARK 924 INTRA-LIGAND FREE ENERGY PREDICTED BY IDOCK:   -1.34 KCAL/MOL
REMARK 927      BINDING AFFINITY PREDICTED BY RF-SCORE:    0.00 PKD
ROOT
HETATM    1  C   UNL     1     -10.603  11.774  67.945  1.00  0.00    -0.201 C  
ENDROOT
BRANCH   1   2
HETATM    2  C   UNL     1      -9.476  12.652  68.523  1.00  0.00    -0.094 C  
HETATM    3  C   UNL     1      -8.569  13.305  67.493  1.00  0.00    -0.200 C  
ENDBRANCH   1   2
BRANCH   1   4
HETATM    4  N   UNL     1     -11.894  12.415  68.223  1.00  0.00    -0.335 NA 
HETATM    5  H   UNL     1     -12.731  12.049  67.768  1.00  0.00     0.000 HD 
BRANCH   4   6
HETATM    6  C   UNL     1     -12.020  13.493  69.074  1.00  0.00    -0.335 A  
HETATM    7  C   UNL     1     -12.632  14.539  71.127  1.00  0.00    -0.335 A  
HETATM    8  N   UNL     1     -12.322  15.786  70.750  1.00  0.00    -0.417 NA 
HETATM    9  N   UNL     1     -12.939  12.286  71.145  1.00  0.00    -0.213 NA 
HETATM   10  C   UNL     1     -11.856  15.788  69.489  1.00  0.00    -0.347 A  
HETATM   11  C   UNL     1     -13.328  12.804  72.299  1.00  0.00    -0.458 A  
HETATM   12  H   UNL     1     -12.952  11.304  70.869  1.00  0.00     0.000 HD 
HETATM   13  N   UNL     1     -11.696  14.744  68.648  1.00  0.00    -0.323 NA 
HETATM   14  C   UNL     1     -12.510  13.369  70.395  1.00  0.00    -0.252 A  
HETATM   15  N   UNL     1     -13.153  14.160  72.333  1.00  0.00    -0.413 NA 
ENDBRANCH   4   6
ENDBRANCH   1   4
BRANCH   1  16
HETATM   16  C   UNL     1     -10.645  10.324  68.560  1.00  0.00    -0.213 C  
HETATM   17  O   UNL     1      -9.042   7.124  68.305  1.00  0.00    -0.135 OA 
HETATM   18  N   UNL     1     -11.403  10.151  69.609  1.00  0.00    -0.248 NA 
HETATM   19  C   UNL     1     -11.455   8.895  70.222  1.00  0.00    -0.105 A  
HETATM   20  N   UNL     1      -9.851   9.300  68.042  1.00  0.00    -0.157 N  
HETATM   21  C   UNL     1      -9.758   8.053  68.679  1.00  0.00    -0.159 C  
HETATM   22  C   UNL     1     -12.368   8.691  71.264  1.00  0.00    -0.298 A  
HETATM   23  C   UNL     1     -10.627   7.842  69.843  1.00  0.00    -0.242 A  
HETATM   24  C   UNL     1     -12.437   7.463  71.929  1.00  0.00    -0.334 A  
HETATM   25  C   UNL     1     -11.574   6.433  71.570  1.00  0.00    -0.364 A  
HETATM   26  F   UNL     1      -9.859   5.610  70.213  1.00  0.00    -0.195 F  
HETATM   27  C   UNL     1     -10.672   6.627  70.529  1.00  0.00    -0.247 A  
BRANCH  20  28
HETATM   28  C   UNL     1      -9.078   9.451  66.851  1.00  0.00    -0.135 A  
HETATM   29  C   UNL     1      -9.651   9.278  65.586  1.00  0.00    -0.324 A  
HETATM   30  C   UNL     1      -8.886   9.489  64.436  1.00  0.00    -0.251 A  
HETATM   31  C   UNL     1      -7.547   9.861  64.542  1.00  0.00    -0.139 A  
HETATM   32  C   UNL     1      -6.956   9.983  65.797  1.00  0.00    -0.112 A  
HETATM   33  C   UNL     1      -7.711   9.757  66.946  1.00  0.00    -0.098 A  
ENDBRANCH  20  28
ENDBRANCH   1  16
TORSDOF 5
ENDMDL
MODEL       72
REMARK 921   NORMALIZED FREE ENERGY PREDICTED BY IDOCK:   -6.89 KCAL/MOL
REMARK 922        TOTAL FREE ENERGY PREDICTED BY IDOCK:   -8.97 KCAL/MOL
REMARK 923 INTER-LIGAND FREE ENERGY PREDICTED BY IDOCK:   -7.58 KCAL/MOL
REMARK 924 INTRA-LIGAND FREE ENERGY PREDICTED BY IDOCK:   -1.39 KCAL/MOL
REMARK 927      BINDING AFFINITY PREDICTED BY RF-SCORE:    0.00 PKD
ROOT
HETATM    1  C   UNL     1      -9.340   9.414  68.037  1.00  0.00    -0.129 C  
ENDROOT
BRANCH   1   2
HETATM    2  C   UNL     1      -8.051  10.173  67.665  1.00  0.00    -0.109 C  
HETATM    3  C   UNL     1      -6.758   9.528  68.137  1.00  0.00    -0.062 C  
ENDBRANCH   1   2
BRANCH   1   4
HETATM    4  N   UNL     1     -10.022   9.004  66.803  1.00  0.00    -0.238 NA 
HETATM    5  H   UNL     1     -10.750   8.291  66.860  1.00  0.00     0.000 HD 
BRANCH   4   6
HETATM    6  C   UNL     1      -9.717   9.545  65.571  1.00  0.00    -0.273 A  
HETATM    7  C   UNL     1      -9.995  11.105  63.790  1.00  0.00    -0.350 A  
HETATM    8  N   UNL     1      -9.082  10.558  62.977  1.00  0.00    -0.241 NA 
HETATM    9  N   UNL     1     -11.344  11.530  65.570  1.00  0.00    -0.156 NA 
HETATM   10  C   UNL     1      -8.524   9.483  63.561  1.00  0.00    -0.197 A  
HETATM   11  C   UNL     1     -11.573  12.411  64.610  1.00  0.00    -0.343 A  
HETATM   12  H   UNL     1     -11.792  11.477  66.485  1.00  0.00     0.000 HD 
HETATM   13  N   UNL     1      -8.784   8.954  64.775  1.00  0.00    -0.163 NA 
HETATM   14  C   UNL     1     -10.361  10.695  65.062  1.00  0.00    -0.271 A  
HETATM   15  N   UNL     1     -10.774  12.195  63.521  1.00  0.00    -0.446 NA 
ENDBRANCH   4   6
ENDBRANCH   1   4
BRANCH   1  16
HETATM   16  C   UNL     1     -10.353  10.276  68.882  1.00  0.00    -0.204 C  
HETATM   17  O   UNL     1     -12.208  10.208  71.952  1.00  0.00    -0.332 OA 
HETATM   18  N   UNL     1     -10.565  11.499  68.478  1.00  0.00    -0.201 NA 
HETATM   19  C   UNL     1     -11.425  12.326  69.207  1.00  0.00    -0.292 A  
HETATM   20  N   UNL     1     -10.934   9.768  70.044  1.00  0.00    -0.260 N  
HETATM   21  C   UNL     1     -11.707  10.577  70.890  1.00  0.00    -0.335 C  
HETATM   22  C   UNL     1     -11.744  13.588  68.691  1.00  0.00    -0.389 A  
HETATM   23  C   UNL     1     -11.972  11.945  70.429  1.00  0.00    -0.400 A  
HETATM   24  C   UNL     1     -12.576  14.464  69.397  1.00  0.00     0.031 A  
HETATM   25  C   UNL     1     -13.080  14.089  70.638  1.00  0.00    -0.178 A  
HETATM   26  F   UNL     1     -13.281  12.509  72.347  1.00  0.00    -0.575 F  
HETATM   27  C   UNL     1     -12.775  12.832  71.149  1.00  0.00    -0.263 A  
BRANCH  20  28
HETATM   28  C   UNL     1     -10.773   8.410  70.456  1.00  0.00    -0.227 A  
HETATM   29  C   UNL     1      -9.664   8.006  71.209  1.00  0.00    -0.199 A  
HETATM   30  C   UNL     1      -9.560   6.683  71.648  1.00  0.00    -0.167 A  
HETATM   31  C   UNL     1     -10.553   5.758  71.330  1.00  0.00    -0.319 A  
HETATM   32  C   UNL     1     -11.632   6.140  70.537  1.00  0.00    -0.261 A  
HETATM   33  C   UNL     1     -11.730   7.453  70.082  1.00  0.00    -0.028 A  
ENDBRANCH  20  28
ENDBRANCH   1  16
TORSDOF 5
ENDMDL
MODEL       73
REMARK 921   NORMALIZED FREE ENERGY PREDICTED BY IDOCK:   -6.87 KCAL/MOL
REMARK 922        TOTAL FREE ENERGY PREDICTED BY IDOCK:   -8.95 KCAL/MOL
REMARK 923 INTER-LIGAND FREE ENERGY PREDICTED BY IDOCK:   -7.66 KCAL/MOL
REMARK 924 INTRA-LIGAND FREE ENERGY PREDICTED BY IDOCK:   -1.29 KCAL/MOL
REMARK 927      BINDING AFFINITY PREDICTED BY RF-SCORE:    0.00 PKD
ROOT
HETATM    1  C   UNL     1     -10.100  10.693  68.520  1.00  0.00    -0.172 C  
ENDROOT
BRANCH   1   2
HETATM    2  C   UNL     1     -11.632  10.769  68.673  1.00  0.00    -0.342 C  
HETATM    3  C   UNL     1     -12.126  11.167  70.054  1.00  0.00    -0.437 C  
ENDBRANCH   1   2
BRANCH   1   4
HETATM    4  N   UNL     1      -9.657  11.773  67.630  1.00  0.00    -0.180 NA 
HETATM    5  H   UNL     1      -8.660  11.974  67.562  1.00  0.00     0.000 HD 
BRANCH   4   6
HETATM    6  C   UNL     1     -10.539  12.527  66.883  1.00  0.00    -0.236 A  
HETATM    7  C   UNL     1     -11.673  13.128  64.874  1.00  0.00    -0.340 A  
HETATM    8  N   UNL     1     -12.320  14.183  65.385  1.00  0.00    -0.450 NA 
HETATM    9  N   UNL     1     -10.345  11.298  64.639  1.00  0.00    -0.293 NA 
HETATM   10  C   UNL     1     -12.007  14.336  66.684  1.00  0.00    -0.430 A  
HETATM   11  C   UNL     1     -10.916  11.593  63.482  1.00  0.00    -0.407 A  
HETATM   12  H   UNL     1      -9.707  10.527  64.837  1.00  0.00     0.000 HD 
HETATM   13  N   UNL     1     -11.173  13.594  67.442  1.00  0.00    -0.292 NA 
HETATM   14  C   UNL     1     -10.804  12.264  65.519  1.00  0.00    -0.282 A  
HETATM   15  N   UNL     1     -11.731  12.686  63.582  1.00  0.00    -0.482 NA 
ENDBRANCH   4   6
ENDBRANCH   1   4
BRANCH   1  16
HETATM   16  C   UNL     1      -9.599   9.331  67.906  1.00  0.00    -0.142 C  
HETATM   17  O   UNL     1      -9.383   5.829  68.658  1.00  0.00    -0.120 OA 
HETATM   18  N   UNL     1      -9.227   9.350  66.655  1.00  0.00    -0.147 NA 
HETATM   19  C   UNL     1      -8.807   8.165  66.042  1.00  0.00    -0.172 A  
HETATM   20  N   UNL     1      -9.623   8.153  68.654  1.00  0.00    -0.148 N  
HETATM   21  C   UNL     1      -9.334   6.910  68.071  1.00  0.00    -0.123 C  
HETATM   22  C   UNL     1      -8.290   8.225  64.742  1.00  0.00    -0.129 A  
HETATM   23  C   UNL     1      -8.890   6.927  66.672  1.00  0.00    -0.140 A  
HETATM   24  C   UNL     1      -7.884   7.064  64.075  1.00  0.00    -0.109 A  
HETATM   25  C   UNL     1      -8.014   5.828  64.699  1.00  0.00    -0.122 A  
HETATM   26  F   UNL     1      -8.625   4.555  66.561  1.00  0.00    -0.112 F  
HETATM   27  C   UNL     1      -8.518   5.764  65.994  1.00  0.00    -0.135 A  
BRANCH  20  28
HETATM   28  C   UNL     1      -9.952   8.129  70.043  1.00  0.00    -0.192 A  
HETATM   29  C   UNL     1      -9.034   8.546  71.014  1.00  0.00    -0.219 A  
HETATM   30  C   UNL     1      -9.402   8.566  72.362  1.00  0.00    -0.349 A  
HETATM   31  C   UNL     1     -10.679   8.162  72.748  1.00  0.00    -0.391 A  
HETATM   32  C   UNL     1     -11.579   7.696  71.793  1.00  0.00    -0.307 A  
HETATM   33  C   UNL     1     -11.210   7.657  70.450  1.00  0.00    -0.258 A  
ENDBRANCH  20  28
ENDBRANCH   1  16
TORSDOF 5
ENDMDL
MODEL       74
REMARK 921   NORMALIZED FREE ENERGY PREDICTED BY IDOCK:   -6.87 KCAL/MOL
REMARK 922        TOTAL FREE ENERGY PREDICTED BY IDOCK:   -8.94 KCAL/MOL
REMARK 923 INTER-LIGAND FREE ENERGY PREDICTED BY IDOCK:   -7.91 KCAL/MOL
REMARK 924 INTRA-LIGAND FREE ENERGY PREDICTED BY IDOCK:   -1.04 KCAL/MOL
REMARK 927      BINDING AFFINITY PREDICTED BY RF-SCORE:    0.00 PKD
ROOT
HETATM    1  C   UNL     1      -9.372   8.153  68.049  1.00  0.00    -0.135 C  
ENDROOT
BRANCH   1   2
HETATM    2  C   UNL     1      -7.986   8.270  67.385  1.00  0.00    -0.106 C  
HETATM    3  C   UNL     1      -6.993   9.165  68.110  1.00  0.00    -0.076 C  
ENDBRANCH   1   2
BRANCH   1   4
HETATM    4  N   UNL     1     -10.158   7.143  67.330  1.00  0.00    -0.182 NA 
HETATM    5  H   UNL     1     -10.926   7.452  66.733  1.00  0.00     0.000 HD 
BRANCH   4   6
HETATM    6  C   UNL     1      -9.900   5.791  67.432  1.00  0.00    -0.138 A  
HETATM    7  C   UNL     1      -9.481   3.619  66.542  1.00  0.00    -0.170 A  
HETATM    8  N   UNL     1      -9.449   2.986  67.721  1.00  0.00    -0.197 NA 
HETATM    9  N   UNL     1      -9.643   5.226  64.941  1.00  0.00    -0.341 NA 
HETATM   10  C   UNL     1      -9.656   3.858  68.724  1.00  0.00    -0.116 A  
HETATM   11  C   UNL     1      -9.443   4.045  64.378  1.00  0.00    -0.164 A  
HETATM   12  H   UNL     1      -9.746   6.127  64.475  1.00  0.00     0.000 HD 
HETATM   13  N   UNL     1      -9.880   5.187  68.651  1.00  0.00    -0.151 NA 
HETATM   14  C   UNL     1      -9.681   4.969  66.302  1.00  0.00    -0.183 A  
HETATM   15  N   UNL     1      -9.333   3.050  65.309  1.00  0.00    -0.145 NA 
ENDBRANCH   4   6
ENDBRANCH   1   4
BRANCH   1  16
HETATM   16  C   UNL     1     -10.191   9.499  68.031  1.00  0.00    -0.201 C  
HETATM   17  O   UNL     1     -11.752  11.858  70.239  1.00  0.00    -0.303 OA 
HETATM   18  N   UNL     1     -10.288  10.114  66.884  1.00  0.00    -0.235 NA 
HETATM   19  C   UNL     1     -10.971  11.333  66.811  1.00  0.00    -0.281 A  
HETATM   20  N   UNL     1     -10.721  10.034  69.206  1.00  0.00    -0.213 N  
HETATM   21  C   UNL     1     -11.309  11.307  69.231  1.00  0.00    -0.287 C  
HETATM   22  C   UNL     1     -11.179  11.914  65.555  1.00  0.00    -0.353 A  
HETATM   23  C   UNL     1     -11.446  11.993  67.940  1.00  0.00    -0.396 A  
HETATM   24  C   UNL     1     -11.830  13.146  65.431  1.00  0.00    -0.410 A  
HETATM   25  C   UNL     1     -12.260  13.818  66.571  1.00  0.00    -0.475 A  
HETATM   26  F   UNL     1     -12.496  13.916  68.894  1.00  0.00    -0.375 F  
HETATM   27  C   UNL     1     -12.065  13.239  67.821  1.00  0.00    -0.237 A  
BRANCH  20  28
HETATM   28  C   UNL     1     -10.690   9.337  70.453  1.00  0.00    -0.251 A  
HETATM   29  C   UNL     1     -11.843   8.746  70.983  1.00  0.00    -0.315 A  
HETATM   30  C   UNL     1     -11.773   8.021  72.175  1.00  0.00    -0.399 A  
HETATM   31  C   UNL     1     -10.559   7.892  72.848  1.00  0.00    -0.434 A  
HETATM   32  C   UNL     1      -9.420   8.521  72.355  1.00  0.00    -0.350 A  
HETATM   33  C   UNL     1      -9.489   9.260  71.175  1.00  0.00    -0.287 A  
ENDBRANCH  20  28
ENDBRANCH   1  16
TORSDOF 5
ENDMDL
MODEL       75
REMARK 921   NORMALIZED FREE ENERGY PREDICTED BY IDOCK:   -6.84 KCAL/MOL
REMARK 922        TOTAL FREE ENERGY PREDICTED BY IDOCK:   -8.90 KCAL/MOL
REMARK 923 INTER-LIGAND FREE ENERGY PREDICTED BY IDOCK:   -7.92 KCAL/MOL
REMARK 924 INTRA-LIGAND FREE ENERGY PREDICTED BY IDOCK:   -0.98 KCAL/MOL
REMARK 927      BINDING AFFINITY PREDICTED BY RF-SCORE:    0.00 PKD
ROOT
HETATM    1  C   UNL     1     -10.377  11.854  67.690  1.00  0.00    -0.200 C  
ENDROOT
BRANCH   1   2
HETATM    2  C   UNL     1      -9.118  12.608  68.162  1.00  0.00    -0.204 C  
HETATM    3  C   UNL     1      -7.994  12.696  67.142  1.00  0.00    -0.123 C  
ENDBRANCH   1   2
BRANCH   1   4
HETATM    4  N   UNL     1     -11.496  12.801  67.611  1.00  0.00    -0.313 NA 
HETATM    5  H   UNL     1     -12.349  12.511  67.133  1.00  0.00     0.000 HD 
BRANCH   4   6
HETATM    6  C   UNL     1     -11.438  14.066  68.158  1.00  0.00    -0.309 A  
HETATM    7  C   UNL     1     -10.937  16.396  68.112  1.00  0.00    -0.339 A  
HETATM    8  N   UNL     1     -11.273  16.640  69.385  1.00  0.00    -0.180 NA 
HETATM    9  N   UNL     1     -10.558  15.361  66.124  1.00  0.00    -0.306 NA 
HETATM   10  C   UNL     1     -11.691  15.509  69.980  1.00  0.00    -0.346 A  
HETATM   11  C   UNL     1     -10.229  16.640  66.037  1.00  0.00    -0.351 A  
HETATM   12  H   UNL     1     -10.502  14.654  65.391  1.00  0.00     0.000 HD 
HETATM   13  N   UNL     1     -11.786  14.268  69.458  1.00  0.00    -0.295 NA 
HETATM   14  C   UNL     1     -10.993  15.193  67.428  1.00  0.00    -0.314 A  
HETATM   15  N   UNL     1     -10.450  17.302  67.212  1.00  0.00    -0.335 NA 
ENDBRANCH   4   6
ENDBRANCH   1   4
BRANCH   1  16
HETATM   16  C   UNL     1     -10.805  10.685  68.656  1.00  0.00    -0.227 C  
HETATM   17  O   UNL     1      -9.916   7.328  69.558  1.00  0.00    -0.166 OA 
HETATM   18  N   UNL     1     -11.700  10.968  69.563  1.00  0.00    -0.299 NA 
HETATM   19  C   UNL     1     -12.094   9.983  70.474  1.00  0.00    -0.251 A  
HETATM   20  N   UNL     1     -10.197   9.431  68.581  1.00  0.00    -0.194 N  
HETATM   21  C   UNL     1     -10.452   8.435  69.536  1.00  0.00    -0.224 C  
HETATM   22  C   UNL     1     -13.146  10.262  71.355  1.00  0.00    -0.512 A  
HETATM   23  C   UNL     1     -11.476   8.738  70.543  1.00  0.00    -0.222 A  
HETATM   24  C   UNL     1     -13.557   9.321  72.305  1.00  0.00    -0.544 A  
HETATM   25  C   UNL     1     -12.902   8.097  72.393  1.00  0.00    -0.199 A  
HETATM   26  F   UNL     1     -11.260   6.620  71.630  1.00  0.00    -0.259 F  
HETATM   27  C   UNL     1     -11.864   7.811  71.513  1.00  0.00    -0.293 A  
BRANCH  20  28
HETATM   28  C   UNL     1      -9.274   9.082  67.548  1.00  0.00    -0.135 A  
HETATM   29  C   UNL     1      -9.712   8.798  66.250  1.00  0.00    -0.342 A  
HETATM   30  C   UNL     1      -8.785   8.515  65.243  1.00  0.00    -0.175 A  
HETATM   31  C   UNL     1      -7.420   8.505  65.530  1.00  0.00    -0.085 A  
HETATM   32  C   UNL     1      -6.980   8.735  66.831  1.00  0.00    -0.074 A  
HETATM   33  C   UNL     1      -7.904   8.999  67.840  1.00  0.00    -0.101 A  
ENDBRANCH  20  28
ENDBRANCH   1  16
TORSDOF 5
ENDMDL
MODEL       76
REMARK 921   NORMALIZED FREE ENERGY PREDICTED BY IDOCK:   -6.83 KCAL/MOL
REMARK 922        TOTAL FREE ENERGY PREDICTED BY IDOCK:   -8.89 KCAL/MOL
REMARK 923 INTER-LIGAND FREE ENERGY PREDICTED BY IDOCK:   -7.98 KCAL/MOL
REMARK 924 INTRA-LIGAND FREE ENERGY PREDICTED BY IDOCK:   -0.91 KCAL/MOL
REMARK 927      BINDING AFFINITY PREDICTED BY RF-SCORE:    0.00 PKD
ROOT
HETATM    1  C   UNL     1      -9.830  11.829  67.648  1.00  0.00    -0.185 C  
ENDROOT
BRANCH   1   2
HETATM    2  C   UNL     1     -10.566  10.604  67.072  1.00  0.00    -0.317 C  
HETATM    3  C   UNL     1     -10.192  10.233  65.646  1.00  0.00    -0.301 C  
ENDBRANCH   1   2
BRANCH   1   4
HETATM    4  N   UNL     1      -8.614  11.373  68.334  1.00  0.00    -0.152 NA 
HETATM    5  H   UNL     1      -7.824  12.014  68.408  1.00  0.00     0.000 HD 
BRANCH   4   6
HETATM    6  C   UNL     1      -8.500  10.113  68.883  1.00  0.00    -0.139 A  
HETATM    7  C   UNL     1      -7.838   7.823  68.865  1.00  0.00    -0.122 A  
HETATM    8  N   UNL     1      -8.374   7.509  70.051  1.00  0.00    -0.134 NA 
HETATM    9  N   UNL     1      -7.177   8.960  67.010  1.00  0.00    -0.079 NA 
HETATM   10  C   UNL     1      -8.965   8.589  70.594  1.00  0.00    -0.160 A  
HETATM   11  C   UNL     1      -6.806   7.692  66.919  1.00  0.00    -0.068 A  
HETATM   12  H   UNL     1      -7.012   9.705  66.334  1.00  0.00     0.000 HD 
HETATM   13  N   UNL     1      -9.063   9.837  70.091  1.00  0.00    -0.229 NA 
HETATM   14  C   UNL     1      -7.838   9.051  68.225  1.00  0.00    -0.100 A  
HETATM   15  N   UNL     1      -7.179   6.973  68.021  1.00  0.00    -0.092 NA 
ENDBRANCH   4   6
ENDBRANCH   1   4
BRANCH   1  16
HETATM   16  C   UNL     1     -10.689  12.645  68.687  1.00  0.00    -0.242 C  
HETATM   17  O   UNL     1     -11.683  16.001  69.479  1.00  0.00    -0.325 OA 
HETATM   18  N   UNL     1     -11.430  11.955  69.510  1.00  0.00    -0.291 NA 
HETATM   19  C   UNL     1     -12.243  12.623  70.431  1.00  0.00    -0.288 A  
HETATM   20  N   UNL     1     -10.703  14.040  68.669  1.00  0.00    -0.254 N  
HETATM   21  C   UNL     1     -11.584  14.774  69.478  1.00  0.00    -0.304 C  
HETATM   22  C   UNL     1     -12.931  11.871  71.392  1.00  0.00    -0.385 A  
HETATM   23  C   UNL     1     -12.401  14.005  70.425  1.00  0.00    -0.429 A  
HETATM   24  C   UNL     1     -13.780  12.490  72.315  1.00  0.00    -0.356 A  
HETATM   25  C   UNL     1     -13.964  13.868  72.270  1.00  0.00    -0.663 A  
HETATM   26  F   UNL     1     -13.478  15.944  71.316  1.00  0.00    -0.539 F  
HETATM   27  C   UNL     1     -13.275  14.620  71.325  1.00  0.00    -0.369 A  
BRANCH  20  28
HETATM   28  C   UNL     1      -9.841  14.810  67.829  1.00  0.00    -0.214 A  
HETATM   29  C   UNL     1     -10.202  15.124  66.513  1.00  0.00    -0.283 A  
HETATM   30  C   UNL     1      -9.367  15.926  65.731  1.00  0.00    -0.280 A  
HETATM   31  C   UNL     1      -8.167  16.408  66.252  1.00  0.00    -0.343 A  
HETATM   32  C   UNL     1      -7.777  16.056  67.542  1.00  0.00    -0.176 A  
HETATM   33  C   UNL     1      -8.599  15.241  68.318  1.00  0.00    -0.159 A  
ENDBRANCH  20  28
ENDBRANCH   1  16
TORSDOF 5
ENDMDL
MODEL       77
REMARK 921   NORMALIZED FREE ENERGY PREDICTED BY IDOCK:   -6.79 KCAL/MOL
REMARK 922        TOTAL FREE ENERGY PREDICTED BY IDOCK:   -8.84 KCAL/MOL
REMARK 923 INTER-LIGAND FREE ENERGY PREDICTED BY IDOCK:   -9.22 KCAL/MOL
REMARK 924 INTRA-LIGAND FREE ENERGY PREDICTED BY IDOCK:    0.38 KCAL/MOL
REMARK 927      BINDING AFFINITY PREDICTED BY RF-SCORE:    0.00 PKD
ROOT
HETATM    1  C   UNL     1     -10.379   9.383  69.504  1.00  0.00    -0.214 C  
ENDROOT
BRANCH   1   2
HETATM    2  C   UNL     1      -8.912   8.912  69.567  1.00  0.00    -0.145 C  
HETATM    3  C   UNL     1      -8.247   9.043  70.928  1.00  0.00    -0.222 C  
ENDBRANCH   1   2
BRANCH   1   4
HETATM    4  N   UNL     1     -11.253   8.207  69.428  1.00  0.00    -0.426 NA 
HETATM    5  H   UNL     1     -12.263   8.342  69.479  1.00  0.00     0.000 HD 
BRANCH   4   6
HETATM    6  C   UNL     1     -10.761   6.924  69.292  1.00  0.00    -0.238 A  
HETATM    7  C   UNL     1     -10.131   4.996  68.041  1.00  0.00    -0.106 A  
HETATM    8  N   UNL     1      -9.811   4.238  69.097  1.00  0.00    -0.151 NA 
HETATM    9  N   UNL     1     -10.804   6.730  66.733  1.00  0.00    -0.539 NA 
HETATM   10  C   UNL     1     -10.001   4.926  70.237  1.00  0.00    -0.251 A  
HETATM   11  C   UNL     1     -10.502   5.685  65.978  1.00  0.00     0.079 A  
HETATM   12  H   UNL     1     -11.127   7.647  66.424  1.00  0.00     0.000 HD 
HETATM   13  N   UNL     1     -10.451   6.189  70.394  1.00  0.00    -0.214 NA 
HETATM   14  C   UNL     1     -10.587   6.304  68.034  1.00  0.00    -0.262 A  
HETATM   15  N   UNL     1     -10.084   4.621  66.727  1.00  0.00    -0.224 NA 
ENDBRANCH   4   6
ENDBRANCH   1   4
BRANCH   1  16
HETATM   16  C   UNL     1     -10.691  10.294  68.256  1.00  0.00    -0.237 C  
HETATM   17  O   UNL     1     -12.026  13.512  67.399  1.00  0.00    -0.367 OA 
HETATM   18  N   UNL     1     -10.241   9.884  67.101  1.00  0.00    -0.214 NA 
HETATM   19  C   UNL     1     -10.454  10.667  65.962  1.00  0.00    -0.183 A  
HETATM   20  N   UNL     1     -11.355  11.512  68.403  1.00  0.00    -0.252 N  
HETATM   21  C   UNL     1     -11.495  12.404  67.329  1.00  0.00    -0.354 C  
HETATM   22  C   UNL     1     -10.081  10.154  64.713  1.00  0.00    -0.250 A  
HETATM   23  C   UNL     1     -11.015  11.938  66.022  1.00  0.00    -0.355 A  
HETATM   24  C   UNL     1     -10.245  10.910  63.548  1.00  0.00    -0.379 A  
HETATM   25  C   UNL     1     -10.767  12.197  63.626  1.00  0.00    -0.518 A  
HETATM   26  F   UNL     1     -11.648  13.949  64.896  1.00  0.00    -0.319 F  
HETATM   27  C   UNL     1     -11.148  12.707  64.863  1.00  0.00    -0.296 A  
BRANCH  20  28
HETATM   28  C   UNL     1     -11.921  11.937  69.644  1.00  0.00    -0.298 A  
HETATM   29  C   UNL     1     -11.958  13.290  69.999  1.00  0.00    -0.399 A  
HETATM   30  C   UNL     1     -12.568  13.684  71.193  1.00  0.00    -0.452 A  
HETATM   31  C   UNL     1     -13.132  12.732  72.040  1.00  0.00    -0.474 A  
HETATM   32  C   UNL     1     -13.052  11.380  71.719  1.00  0.00    -0.523 A  
HETATM   33  C   UNL     1     -12.429  10.982  70.538  1.00  0.00    -0.432 A  
ENDBRANCH  20  28
ENDBRANCH   1  16
TORSDOF 5
ENDMDL
MODEL       78
REMARK 921   NORMALIZED FREE ENERGY PREDICTED BY IDOCK:   -6.78 KCAL/MOL
REMARK 922        TOTAL FREE ENERGY PREDICTED BY IDOCK:   -8.82 KCAL/MOL
REMARK 923 INTER-LIGAND FREE ENERGY PREDICTED BY IDOCK:   -7.44 KCAL/MOL
REMARK 924 INTRA-LIGAND FREE ENERGY PREDICTED BY IDOCK:   -1.39 KCAL/MOL
REMARK 927      BINDING AFFINITY PREDICTED BY RF-SCORE:    0.00 PKD
ROOT
HETATM    1  C   UNL     1      -9.619  12.445  67.790  1.00  0.00    -0.202 C  
ENDROOT
BRANCH   1   2
HETATM    2  C   UNL     1     -10.331  12.229  69.140  1.00  0.00     0.110 C  
HETATM    3  C   UNL     1     -11.738  12.798  69.229  1.00  0.00    -0.376 C  
ENDBRANCH   1   2
BRANCH   1   4
HETATM    4  N   UNL     1      -8.253  11.914  67.885  1.00  0.00    -0.141 NA 
HETATM    5  H   UNL     1      -7.474  12.571  67.937  1.00  0.00     0.000 HD 
BRANCH   4   6
HETATM    6  C   UNL     1      -7.982  10.561  67.905  1.00  0.00    -0.106 A  
HETATM    7  C   UNL     1      -7.900   8.380  66.946  1.00  0.00    -0.095 A  
HETATM    8  N   UNL     1      -7.473   7.755  68.049  1.00  0.00    -0.105 NA 
HETATM    9  N   UNL     1      -8.588   9.977  65.480  1.00  0.00    -0.144 NA 
HETATM   10  C   UNL     1      -7.323   8.635  69.055  1.00  0.00    -0.077 A  
HETATM   11  C   UNL     1      -8.597   8.791  64.893  1.00  0.00    -0.150 A  
HETATM   12  H   UNL     1      -8.838  10.876  65.068  1.00  0.00     0.000 HD 
HETATM   13  N   UNL     1      -7.552   9.965  69.050  1.00  0.00    -0.081 NA 
HETATM   14  C   UNL     1      -8.163   9.730  66.775  1.00  0.00    -0.120 A  
HETATM   15  N   UNL     1      -8.182   7.801  65.740  1.00  0.00    -0.124 NA 
ENDBRANCH   4   6
ENDBRANCH   1   4
BRANCH   1  16
HETATM   16  C   UNL     1      -9.516  13.960  67.371  1.00  0.00    -0.226 C  
HETATM   17  O   UNL     1     -10.902  16.328  65.058  1.00  0.00    -0.558 OA 
HETATM   18  N   UNL     1      -8.802  14.737  68.140  1.00  0.00    -0.164 NA 
HETATM   19  C   UNL     1      -8.703  16.100  67.841  1.00  0.00    -0.174 A  
HETATM   20  N   UNL     1     -10.218  14.450  66.270  1.00  0.00    -0.289 N  
HETATM   21  C   UNL     1     -10.265  15.823  65.983  1.00  0.00    -0.333 C  
HETATM   22  C   UNL     1      -7.831  16.893  68.596  1.00  0.00    -0.244 A  
HETATM   23  C   UNL     1      -9.443  16.699  66.827  1.00  0.00    -0.260 A  
HETATM   24  C   UNL     1      -7.718  18.266  68.357  1.00  0.00    -0.312 A  
HETATM   25  C   UNL     1      -8.497  18.862  67.369  1.00  0.00    -0.295 A  
HETATM   26  F   UNL     1     -10.088  18.686  65.667  1.00  0.00    -0.287 F  
HETATM   27  C   UNL     1      -9.357  18.076  66.609  1.00  0.00    -0.291 A  
BRANCH  20  28
HETATM   28  C   UNL     1     -10.940  13.602  65.376  1.00  0.00    -0.298 A  
HETATM   29  C   UNL     1     -10.301  12.961  64.308  1.00  0.00    -0.396 A  
HETATM   30  C   UNL     1     -11.019  12.091  63.483  1.00  0.00    -0.514 A  
HETATM   31  C   UNL     1     -12.375  11.866  63.711  1.00  0.00    -0.541 A  
HETATM   32  C   UNL     1     -13.029  12.541  64.739  1.00  0.00    -0.115 A  
HETATM   33  C   UNL     1     -12.321  13.422  65.553  1.00  0.00    -0.528 A  
ENDBRANCH  20  28
ENDBRANCH   1  16
TORSDOF 5
ENDMDL
MODEL       79
REMARK 921   NORMALIZED FREE ENERGY PREDICTED BY IDOCK:   -6.74 KCAL/MOL
REMARK 922        TOTAL FREE ENERGY PREDICTED BY IDOCK:   -8.77 KCAL/MOL
REMARK 923 INTER-LIGAND FREE ENERGY PREDICTED BY IDOCK:   -7.63 KCAL/MOL
REMARK 924 INTRA-LIGAND FREE ENERGY PREDICTED BY IDOCK:   -1.14 KCAL/MOL
REMARK 927      BINDING AFFINITY PREDICTED BY RF-SCORE:    0.00 PKD
ROOT
HETATM    1  C   UNL     1     -11.250   8.717  70.848  1.00  0.00    -0.270 C  
ENDROOT
BRANCH   1   2
HETATM    2  C   UNL     1     -12.198   8.298  71.990  1.00  0.00    -0.398 C  
HETATM    3  C   UNL     1     -13.239   7.255  71.618  1.00  0.00    -0.421 C  
ENDBRANCH   1   2
BRANCH   1   4
HETATM    4  N   UNL     1     -12.013   9.485  69.856  1.00  0.00    -0.428 NA 
HETATM    5  H   UNL     1     -12.728   9.006  69.309  1.00  0.00     0.000 HD 
BRANCH   4   6
HETATM    6  C   UNL     1     -11.799  10.830  69.634  1.00  0.00    -0.320 A  
HETATM    7  C   UNL     1     -12.097  13.150  70.097  1.00  0.00    -0.321 A  
HETATM    8  N   UNL     1     -11.373  13.596  69.063  1.00  0.00    -0.271 NA 
HETATM    9  N   UNL     1     -13.145  11.797  71.594  1.00  0.00    -0.415 NA 
HETATM   10  C   UNL     1     -10.888  12.561  68.354  1.00  0.00    -0.243 A  
HETATM   11  C   UNL     1     -13.379  13.065  71.891  1.00  0.00    -0.446 A  
HETATM   12  H   UNL     1     -13.478  10.971  72.092  1.00  0.00     0.000 HD 
HETATM   13  N   UNL     1     -11.058  11.240  68.569  1.00  0.00    -0.214 NA 
HETATM   14  C   UNL     1     -12.350  11.837  70.460  1.00  0.00    -0.299 A  
HETATM   15  N   UNL     1     -12.759  13.914  71.017  1.00  0.00    -0.350 NA 
ENDBRANCH   4   6
ENDBRANCH   1   4
BRANCH   1  16
HETATM   16  C   UNL     1     -10.588   7.496  70.104  1.00  0.00    -0.235 C  
HETATM   17  O   UNL     1      -8.246   4.830  70.629  1.00  0.00    -0.088 OA 
HETATM   18  N   UNL     1     -11.073   7.188  68.932  1.00  0.00    -0.057 NA 
HETATM   19  C   UNL     1     -10.552   6.091  68.237  1.00  0.00    -0.261 A  
HETATM   20  N   UNL     1      -9.580   6.746  70.710  1.00  0.00    -0.169 N  
HETATM   21  C   UNL     1      -9.097   5.564  70.128  1.00  0.00    -0.137 C  
HETATM   22  C   UNL     1     -10.991   5.851  66.929  1.00  0.00    -0.304 A  
HETATM   23  C   UNL     1      -9.619   5.225  68.798  1.00  0.00    -0.187 A  
HETATM   24  C   UNL     1     -10.523   4.751  66.204  1.00  0.00    -0.332 A  
HETATM   25  C   UNL     1      -9.624   3.867  66.792  1.00  0.00    -0.222 A  
HETATM   26  F   UNL     1      -8.310   3.234  68.617  1.00  0.00    -0.073 F  
HETATM   27  C   UNL     1      -9.177   4.107  68.087  1.00  0.00    -0.147 A  
BRANCH  20  28
HETATM   28  C   UNL     1      -8.986   7.116  71.955  1.00  0.00    -0.127 A  
HETATM   29  C   UNL     1      -9.466   6.608  73.168  1.00  0.00    -0.160 A  
HETATM   30  C   UNL     1      -8.831   6.941  74.367  1.00  0.00    -0.217 A  
HETATM   31  C   UNL     1      -7.724   7.789  74.363  1.00  0.00    -0.229 A  
HETATM   32  C   UNL     1      -7.274   8.340  73.166  1.00  0.00    -0.147 A  
HETATM   33  C   UNL     1      -7.916   8.024  71.970  1.00  0.00    -0.147 A  
ENDBRANCH  20  28
ENDBRANCH   1  16
TORSDOF 5
ENDMDL
MODEL       80
REMARK 921   NORMALIZED FREE ENERGY PREDICTED BY IDOCK:   -6.71 KCAL/MOL
REMARK 922        TOTAL FREE ENERGY PREDICTED BY IDOCK:   -8.74 KCAL/MOL
REMARK 923 INTER-LIGAND FREE ENERGY PREDICTED BY IDOCK:   -7.15 KCAL/MOL
REMARK 924 INTRA-LIGAND FREE ENERGY PREDICTED BY IDOCK:   -1.59 KCAL/MOL
REMARK 927      BINDING AFFINITY PREDICTED BY RF-SCORE:    0.00 PKD
ROOT
HETATM    1  C   UNL     1     -10.597  12.522  66.522  1.00  0.00    -0.242 C  
ENDROOT
BRANCH   1   2
HETATM    2  C   UNL     1     -11.015  12.841  65.073  1.00  0.00    -0.319 C  
HETATM    3  C   UNL     1     -10.915  11.679  64.098  1.00  0.00    -0.442 C  
ENDBRANCH   1   2
BRANCH   1   4
HETATM    4  N   UNL     1     -11.799  12.215  67.306  1.00  0.00    -0.579 NA 
HETATM    5  H   UNL     1     -12.708  12.503  66.944  1.00  0.00     0.000 HD 
BRANCH   4   6
HETATM    6  C   UNL     1     -11.747  11.550  68.515  1.00  0.00    -0.313 A  
HETATM    7  C   UNL     1     -11.276   9.673  69.906  1.00  0.00    -0.207 A  
HETATM    8  N   UNL     1     -11.746  10.213  71.038  1.00  0.00    -0.366 NA 
HETATM    9  N   UNL     1     -10.664   9.356  67.740  1.00  0.00    -0.407 NA 
HETATM   10  C   UNL     1     -12.206  11.455  70.805  1.00  0.00    -0.376 A  
HETATM   11  C   UNL     1     -10.405   8.267  68.446  1.00  0.00    -0.199 A  
HETATM   12  H   UNL     1     -10.490   9.508  66.746  1.00  0.00     0.000 HD 
HETATM   13  N   UNL     1     -12.239  12.136  69.640  1.00  0.00    -0.178 NA 
HETATM   14  C   UNL     1     -11.224  10.244  68.645  1.00  0.00    -0.208 A  
HETATM   15  N   UNL     1     -10.752   8.419  69.760  1.00  0.00    -0.228 NA 
ENDBRANCH   4   6
ENDBRANCH   1   4
BRANCH   1  16
HETATM   16  C   UNL     1      -9.851  13.713  67.235  1.00  0.00    -0.241 C  
HETATM   17  O   UNL     1      -6.681  14.570  68.681  1.00  0.00    -0.080 OA 
HETATM   18  N   UNL     1     -10.462  14.867  67.249  1.00  0.00    -0.259 NA 
HETATM   19  C   UNL     1      -9.836  15.971  67.835  1.00  0.00    -0.226 A  
HETATM   20  N   UNL     1      -8.569  13.547  67.759  1.00  0.00    -0.169 N  
HETATM   21  C   UNL     1      -7.832  14.636  68.250  1.00  0.00    -0.128 C  
HETATM   22  C   UNL     1     -10.555  17.167  67.959  1.00  0.00    -0.374 A  
HETATM   23  C   UNL     1      -8.522  15.931  68.293  1.00  0.00    -0.170 A  
HETATM   24  C   UNL     1      -9.963  18.308  68.510  1.00  0.00    -0.413 A  
HETATM   25  C   UNL     1      -8.635  18.267  68.923  1.00  0.00    -0.153 A  
HETATM   26  F   UNL     1      -6.645  17.080  69.223  1.00  0.00    -0.188 F  
HETATM   27  C   UNL     1      -7.920  17.079  68.812  1.00  0.00    -0.248 A  
BRANCH  20  28
HETATM   28  C   UNL     1      -7.919  12.277  67.821  1.00  0.00    -0.154 A  
HETATM   29  C   UNL     1      -7.985  11.483  68.972  1.00  0.00     0.013 A  
HETATM   30  C   UNL     1      -7.389  10.219  68.986  1.00  0.00    -0.092 A  
HETATM   31  C   UNL     1      -6.718   9.747  67.859  1.00  0.00    -0.065 A  
HETATM   32  C   UNL     1      -6.603  10.553  66.729  1.00  0.00    -0.086 A  
HETATM   33  C   UNL     1      -7.181  11.821  66.718  1.00  0.00    -0.050 A  
ENDBRANCH  20  28
ENDBRANCH   1  16
TORSDOF 5
ENDMDL
MODEL       81
REMARK 921   NORMALIZED FREE ENERGY PREDICTED BY IDOCK:   -6.70 KCAL/MOL
REMARK 922        TOTAL FREE ENERGY PREDICTED BY IDOCK:   -8.73 KCAL/MOL
REMARK 923 INTER-LIGAND FREE ENERGY PREDICTED BY IDOCK:   -7.56 KCAL/MOL
REMARK 924 INTRA-LIGAND FREE ENERGY PREDICTED BY IDOCK:   -1.17 KCAL/MOL
REMARK 927      BINDING AFFINITY PREDICTED BY RF-SCORE:    0.00 PKD
ROOT
HETATM    1  C   UNL     1      -9.892  10.311  68.747  1.00  0.00    -0.180 C  
ENDROOT
BRANCH   1   2
HETATM    2  C   UNL     1      -9.079   9.577  69.831  1.00  0.00    -0.237 C  
HETATM    3  C   UNL     1      -7.621   9.993  69.942  1.00  0.00    -0.177 C  
ENDBRANCH   1   2
BRANCH   1   4
HETATM    4  N   UNL     1     -11.323  10.101  69.002  1.00  0.00    -0.428 NA 
HETATM    5  H   UNL     1     -11.850   9.497  68.371  1.00  0.00     0.000 HD 
BRANCH   4   6
HETATM    6  C   UNL     1     -11.981  10.689  70.063  1.00  0.00    -0.329 A  
HETATM    7  C   UNL     1     -12.643  12.540  71.410  1.00  0.00    -0.194 A  
HETATM    8  N   UNL     1     -13.305  11.822  72.326  1.00  0.00    -0.303 NA 
HETATM    9  N   UNL     1     -11.423  13.149  69.590  1.00  0.00    -0.455 NA 
HETATM   10  C   UNL     1     -13.251  10.514  72.018  1.00  0.00    -0.378 A  
HETATM   11  C   UNL     1     -11.727  14.218  70.308  1.00  0.00    -0.275 A  
HETATM   12  H   UNL     1     -10.893  13.115  68.719  1.00  0.00     0.000 HD 
HETATM   13  N   UNL     1     -12.640   9.919  70.972  1.00  0.00    -0.331 NA 
HETATM   14  C   UNL     1     -11.983  12.086  70.280  1.00  0.00    -0.314 A  
HETATM   15  N   UNL     1     -12.469  13.896  71.411  1.00  0.00    -0.355 NA 
ENDBRANCH   4   6
ENDBRANCH   1   4
BRANCH   1  16
HETATM   16  C   UNL     1      -9.587   9.805  67.286  1.00  0.00    -0.157 C  
HETATM   17  O   UNL     1      -9.310  10.992  63.911  1.00  0.00    -0.214 OA 
HETATM   18  N   UNL     1      -9.160   8.578  67.165  1.00  0.00    -0.138 NA 
HETATM   19  C   UNL     1      -8.837   8.083  65.897  1.00  0.00    -0.153 A  
HETATM   20  N   UNL     1      -9.703  10.661  66.190  1.00  0.00    -0.197 N  
HETATM   21  C   UNL     1      -9.281  10.273  64.910  1.00  0.00    -0.227 C  
HETATM   22  C   UNL     1      -8.505   6.728  65.767  1.00  0.00    -0.150 A  
HETATM   23  C   UNL     1      -8.824   8.886  64.761  1.00  0.00    -0.130 A  
HETATM   24  C   UNL     1      -8.145   6.192  64.527  1.00  0.00    -0.118 A  
HETATM   25  C   UNL     1      -8.094   7.015  63.407  1.00  0.00     0.000 A  
HETATM   26  F   UNL     1      -8.372   9.118  62.426  1.00  0.00    -0.136 F  
HETATM   27  C   UNL     1      -8.432   8.359  63.528  1.00  0.00     0.022 A  
BRANCH  20  28
HETATM   28  C   UNL     1     -10.242  11.980  66.296  1.00  0.00    -0.222 A  
HETATM   29  C   UNL     1      -9.432  13.070  66.633  1.00  0.00    -0.256 A  
HETATM   30  C   UNL     1      -9.972  14.358  66.674  1.00  0.00    -0.278 A  
HETATM   31  C   UNL     1     -11.321  14.562  66.389  1.00  0.00    -0.349 A  
HETATM   32  C   UNL     1     -12.145  13.476  66.105  1.00  0.00    -0.482 A  
HETATM   33  C   UNL     1     -11.613  12.189  66.081  1.00  0.00    -0.418 A  
ENDBRANCH  20  28
ENDBRANCH   1  16
TORSDOF 5
ENDMDL
MODEL       82
REMARK 921   NORMALIZED FREE ENERGY PREDICTED BY IDOCK:   -6.67 KCAL/MOL
REMARK 922        TOTAL FREE ENERGY PREDICTED BY IDOCK:   -8.69 KCAL/MOL
REMARK 923 INTER-LIGAND FREE ENERGY PREDICTED BY IDOCK:   -9.05 KCAL/MOL
REMARK 924 INTRA-LIGAND FREE ENERGY PREDICTED BY IDOCK:    0.36 KCAL/MOL
REMARK 927      BINDING AFFINITY PREDICTED BY RF-SCORE:    0.00 PKD
ROOT
HETATM    1  C   UNL     1     -11.114  13.810  69.043  1.00  0.00    -0.259 C  
ENDROOT
BRANCH   1   2
HETATM    2  C   UNL     1     -10.932  14.974  70.037  1.00  0.00    -0.268 C  
HETATM    3  C   UNL     1      -9.925  16.033  69.619  1.00  0.00    -0.226 C  
ENDBRANCH   1   2
BRANCH   1   4
HETATM    4  N   UNL     1     -12.221  14.131  68.134  1.00  0.00    -0.560 NA 
HETATM    5  H   UNL     1     -13.178  14.054  68.480  1.00  0.00     0.000 HD 
BRANCH   4   6
HETATM    6  C   UNL     1     -12.018  14.531  66.829  1.00  0.00    -0.342 A  
HETATM    7  C   UNL     1     -11.954  14.190  64.471  1.00  0.00    -0.458 A  
HETATM    8  N   UNL     1     -11.498  15.410  64.162  1.00  0.00    -0.177 NA 
HETATM    9  N   UNL     1     -12.695  12.372  65.618  1.00  0.00    -0.274 NA 
HETATM   10  C   UNL     1     -11.329  16.140  65.279  1.00  0.00     0.060 A  
HETATM   11  C   UNL     1     -12.654  12.103  64.323  1.00  0.00    -0.331 A  
HETATM   12  H   UNL     1     -12.993  11.753  66.373  1.00  0.00     0.000 HD 
HETATM   13  N   UNL     1     -11.550  15.781  66.561  1.00  0.00     0.250 NA 
HETATM   14  C   UNL     1     -12.245  13.678  65.725  1.00  0.00    -0.464 A  
HETATM   15  N   UNL     1     -12.220  13.175  63.595  1.00  0.00    -0.673 NA 
ENDBRANCH   4   6
ENDBRANCH   1   4
BRANCH   1  16
HETATM   16  C   UNL     1     -11.449  12.437  69.741  1.00  0.00    -0.149 C  
HETATM   17  O   UNL     1     -13.527  11.032  72.307  1.00  0.00    -0.328 OA 
HETATM   18  N   UNL     1     -10.944  11.363  69.199  1.00  0.00    -0.231 NA 
HETATM   19  C   UNL     1     -11.235  10.111  69.751  1.00  0.00    -0.272 A  
HETATM   20  N   UNL     1     -12.304  12.381  70.842  1.00  0.00    -0.346 N  
HETATM   21  C   UNL     1     -12.738  11.155  71.370  1.00  0.00    -0.418 C  
HETATM   22  C   UNL     1     -10.583   8.982  69.241  1.00  0.00    -0.226 A  
HETATM   23  C   UNL     1     -12.153   9.943  70.784  1.00  0.00    -0.396 A  
HETATM   24  C   UNL     1     -10.862   7.704  69.738  1.00  0.00    -0.222 A  
HETATM   25  C   UNL     1     -11.814   7.545  70.739  1.00  0.00    -0.254 A  
HETATM   26  F   UNL     1     -13.366   8.470  72.222  1.00  0.00    -0.334 F  
HETATM   27  C   UNL     1     -12.457   8.665  71.257  1.00  0.00    -0.252 A  
BRANCH  20  28
HETATM   28  C   UNL     1     -12.802  13.551  71.493  1.00  0.00    -0.352 A  
HETATM   29  C   UNL     1     -12.213  14.036  72.666  1.00  0.00     0.183 A  
HETATM   30  C   UNL     1     -12.683  15.214  73.251  1.00  0.00    -0.628 A  
HETATM   31  C   UNL     1     -13.747  15.907  72.675  1.00  0.00    -0.523 A  
HETATM   32  C   UNL     1     -14.373  15.402  71.538  1.00  0.00    -0.572 A  
HETATM   33  C   UNL     1     -13.918  14.218  70.963  1.00  0.00    -0.008 A  
ENDBRANCH  20  28
ENDBRANCH   1  16
TORSDOF 5
ENDMDL
MODEL       83
REMARK 921   NORMALIZED FREE ENERGY PREDICTED BY IDOCK:   -6.66 KCAL/MOL
REMARK 922        TOTAL FREE ENERGY PREDICTED BY IDOCK:   -8.67 KCAL/MOL
REMARK 923 INTER-LIGAND FREE ENERGY PREDICTED BY IDOCK:   -7.63 KCAL/MOL
REMARK 924 INTRA-LIGAND FREE ENERGY PREDICTED BY IDOCK:   -1.04 KCAL/MOL
REMARK 927      BINDING AFFINITY PREDICTED BY RF-SCORE:    0.00 PKD
ROOT
HETATM    1  C   UNL     1     -10.188  10.826  69.061  1.00  0.00    -0.213 C  
ENDROOT
BRANCH   1   2
HETATM    2  C   UNL     1     -11.689  11.148  68.919  1.00  0.00    -0.406 C  
HETATM    3  C   UNL     1     -12.461  11.228  70.226  1.00  0.00    -0.330 C  
ENDBRANCH   1   2
BRANCH   1   4
HETATM    4  N   UNL     1      -9.409  11.922  68.471  1.00  0.00    -0.320 NA 
HETATM    5  H   UNL     1      -8.391  11.877  68.513  1.00  0.00     0.000 HD 
BRANCH   4   6
HETATM    6  C   UNL     1     -10.002  13.010  67.863  1.00  0.00    -0.230 A  
HETATM    7  C   UNL     1     -11.161  15.092  67.863  1.00  0.00    -0.329 A  
HETATM    8  N   UNL     1     -11.281  15.189  66.533  1.00  0.00    -0.322 NA 
HETATM    9  N   UNL     1     -10.641  14.359  69.951  1.00  0.00    -0.444 NA 
HETATM   10  C   UNL     1     -10.716  14.125  65.936  1.00  0.00    -0.298 A  
HETATM   11  C   UNL     1     -11.310  15.499  70.026  1.00  0.00    -0.321 A  
HETATM   12  H   UNL     1     -10.273  13.803  70.722  1.00  0.00     0.000 HD 
HETATM   13  N   UNL     1     -10.105  13.065  66.507  1.00  0.00    -0.264 NA 
HETATM   14  C   UNL     1     -10.552  14.087  68.595  1.00  0.00    -0.257 A  
HETATM   15  N   UNL     1     -11.636  15.979  68.788  1.00  0.00    -0.381 NA 
ENDBRANCH   4   6
ENDBRANCH   1   4
BRANCH   1  16
HETATM   16  C   UNL     1      -9.763   9.492  68.337  1.00  0.00    -0.154 C  
HETATM   17  O   UNL     1      -9.779   5.932  68.787  1.00  0.00    -0.124 OA 
HETATM   18  N   UNL     1      -9.370   9.595  67.097  1.00  0.00    -0.137 NA 
HETATM   19  C   UNL     1      -9.015   8.442  66.389  1.00  0.00    -0.171 A  
HETATM   20  N   UNL     1      -9.873   8.259  68.980  1.00  0.00    -0.172 N  
HETATM   21  C   UNL     1      -9.653   7.054  68.296  1.00  0.00    -0.134 C  
HETATM   22  C   UNL     1      -8.473   8.579  65.105  1.00  0.00    -0.193 A  
HETATM   23  C   UNL     1      -9.185   7.162  66.909  1.00  0.00    -0.174 A  
HETATM   24  C   UNL     1      -8.130   7.457  64.345  1.00  0.00    -0.070 A  
HETATM   25  C   UNL     1      -8.347   6.182  64.858  1.00  0.00    -0.092 A  
HETATM   26  F   UNL     1      -9.067   4.796  66.596  1.00  0.00    -0.114 F  
HETATM   27  C   UNL     1      -8.875   6.040  66.137  1.00  0.00    -0.148 A  
BRANCH  20  28
HETATM   28  C   UNL     1     -10.226   8.137  70.359  1.00  0.00    -0.201 A  
HETATM   29  C   UNL     1     -11.538   7.843  70.749  1.00  0.00    -0.258 A  
HETATM   30  C   UNL     1     -11.845   7.672  72.102  1.00  0.00    -0.352 A  
HETATM   31  C   UNL     1     -10.850   7.806  73.069  1.00  0.00    -0.451 A  
HETATM   32  C   UNL     1      -9.555   8.150  72.692  1.00  0.00    -0.352 A  
HETATM   33  C   UNL     1      -9.249   8.338  71.346  1.00  0.00    -0.218 A  
ENDBRANCH  20  28
ENDBRANCH   1  16
TORSDOF 5
ENDMDL
MODEL       84
REMARK 921   NORMALIZED FREE ENERGY PREDICTED BY IDOCK:   -6.63 KCAL/MOL
REMARK 922        TOTAL FREE ENERGY PREDICTED BY IDOCK:   -8.64 KCAL/MOL
REMARK 923 INTER-LIGAND FREE ENERGY PREDICTED BY IDOCK:   -8.77 KCAL/MOL
REMARK 924 INTRA-LIGAND FREE ENERGY PREDICTED BY IDOCK:    0.13 KCAL/MOL
REMARK 927      BINDING AFFINITY PREDICTED BY RF-SCORE:    0.00 PKD
ROOT
HETATM    1  C   UNL     1      -8.968  13.024  67.162  1.00  0.00    -0.223 C  
ENDROOT
BRANCH   1   2
HETATM    2  C   UNL     1      -7.642  13.670  67.610  1.00  0.00    -0.186 C  
HETATM    3  C   UNL     1      -6.666  12.734  68.304  1.00  0.00    -0.087 C  
ENDBRANCH   1   2
BRANCH   1   4
HETATM    4  N   UNL     1      -9.614  13.900  66.178  1.00  0.00    -0.434 NA 
HETATM    5  H   UNL     1      -9.481  14.909  66.257  1.00  0.00     0.000 HD 
BRANCH   4   6
HETATM    6  C   UNL     1     -10.396  13.413  65.151  1.00  0.00    -0.336 A  
HETATM    7  C   UNL     1     -10.897  11.908  63.371  1.00  0.00    -0.399 A  
HETATM    8  N   UNL     1     -12.028  12.512  62.987  1.00  0.00    -0.216 NA 
HETATM    9  N   UNL     1      -8.983  11.378  64.480  1.00  0.00    -0.392 NA 
HETATM   10  C   UNL     1     -12.270  13.584  63.763  1.00  0.00    -0.388 A  
HETATM   11  C   UNL     1      -9.182  10.524  63.488  1.00  0.00    -0.274 A  
HETATM   12  H   UNL     1      -8.214  11.384  65.149  1.00  0.00     0.000 HD 
HETATM   13  N   UNL     1     -11.537  14.061  64.791  1.00  0.00    -0.363 NA 
HETATM   14  C   UNL     1     -10.049  12.261  64.409  1.00  0.00    -0.270 A  
HETATM   15  N   UNL     1     -10.330  10.804  62.799  1.00  0.00     0.096 NA 
ENDBRANCH   4   6
ENDBRANCH   1   4
BRANCH   1  16
HETATM   16  C   UNL     1      -9.985  12.798  68.345  1.00  0.00    -0.210 C  
HETATM   17  O   UNL     1     -12.271  14.585  70.455  1.00  0.00    -0.289 OA 
HETATM   18  N   UNL     1     -10.252  11.560  68.662  1.00  0.00    -0.209 NA 
HETATM   19  C   UNL     1     -11.175  11.294  69.679  1.00  0.00    -0.251 A  
HETATM   20  N   UNL     1     -10.616  13.876  68.966  1.00  0.00    -0.209 N  
HETATM   21  C   UNL     1     -11.640  13.682  69.905  1.00  0.00    -0.211 C  
HETATM   22  C   UNL     1     -11.355   9.970  70.097  1.00  0.00    -0.357 A  
HETATM   23  C   UNL     1     -11.928  12.294  70.287  1.00  0.00    -0.373 A  
HETATM   24  C   UNL     1     -12.287   9.648  71.088  1.00  0.00    -0.427 A  
HETATM   25  C   UNL     1     -13.065  10.652  71.656  1.00  0.00    -0.555 A  
HETATM   26  F   UNL     1     -13.651  12.907  71.825  1.00  0.00    -0.469 F  
HETATM   27  C   UNL     1     -12.883  11.970  71.253  1.00  0.00    -0.265 A  
BRANCH  20  28
HETATM   28  C   UNL     1     -10.278  15.234  68.684  1.00  0.00    -0.223 A  
HETATM   29  C   UNL     1      -9.235  15.878  69.359  1.00  0.00    -0.235 A  
HETATM   30  C   UNL     1      -8.887  17.190  69.024  1.00  0.00    -0.105 A  
HETATM   31  C   UNL     1      -9.583  17.866  68.023  1.00  0.00    -0.290 A  
HETATM   32  C   UNL     1     -10.656  17.250  67.384  1.00  0.00    -0.303 A  
HETATM   33  C   UNL     1     -11.017  15.949  67.728  1.00  0.00    -0.315 A  
ENDBRANCH  20  28
ENDBRANCH   1  16
TORSDOF 5
ENDMDL
MODEL       85
REMARK 921   NORMALIZED FREE ENERGY PREDICTED BY IDOCK:   -6.61 KCAL/MOL
REMARK 922        TOTAL FREE ENERGY PREDICTED BY IDOCK:   -8.61 KCAL/MOL
REMARK 923 INTER-LIGAND FREE ENERGY PREDICTED BY IDOCK:   -7.22 KCAL/MOL
REMARK 924 INTRA-LIGAND FREE ENERGY PREDICTED BY IDOCK:   -1.39 KCAL/MOL
REMARK 927      BINDING AFFINITY PREDICTED BY RF-SCORE:    0.00 PKD
ROOT
HETATM    1  C   UNL     1     -10.424   9.884  69.925  1.00  0.00    -0.269 C  
ENDROOT
BRANCH   1   2
HETATM    2  C   UNL     1     -10.664   9.093  71.227  1.00  0.00    -0.401 C  
HETATM    3  C   UNL     1      -9.407   8.641  71.952  1.00  0.00    -0.357 C  
ENDBRANCH   1   2
BRANCH   1   4
HETATM    4  N   UNL     1     -11.690  10.491  69.498  1.00  0.00    -0.394 NA 
HETATM    5  H   UNL     1     -12.436   9.883  69.159  1.00  0.00     0.000 HD 
BRANCH   4   6
HETATM    6  C   UNL     1     -11.912  11.853  69.538  1.00  0.00    -0.292 A  
HETATM    7  C   UNL     1     -11.984  14.038  68.588  1.00  0.00    -0.354 A  
HETATM    8  N   UNL     1     -12.311  14.675  69.720  1.00  0.00    -0.294 NA 
HETATM    9  N   UNL     1     -11.457  12.423  67.077  1.00  0.00    -0.337 NA 
HETATM   10  C   UNL     1     -12.420  13.797  70.733  1.00  0.00    -0.370 A  
HETATM   11  C   UNL     1     -11.448  13.609  66.491  1.00  0.00    -0.335 A  
HETATM   12  H   UNL     1     -11.268  11.517  66.649  1.00  0.00     0.000 HD 
HETATM   13  N   UNL     1     -12.239  12.460  70.711  1.00  0.00    -0.333 NA 
HETATM   14  C   UNL     1     -11.781  12.680  68.400  1.00  0.00    -0.333 A  
HETATM   15  N   UNL     1     -11.767  14.610  67.366  1.00  0.00    -0.392 NA 
ENDBRANCH   4   6
ENDBRANCH   1   4
BRANCH   1  16
HETATM   16  C   UNL     1      -9.896   8.992  68.739  1.00  0.00    -0.172 C  
HETATM   17  O   UNL     1      -7.121   8.683  66.485  1.00  0.00    -0.077 OA 
HETATM   18  N   UNL     1     -10.557   7.895  68.487  1.00  0.00    -0.154 NA 
HETATM   19  C   UNL     1     -10.116   7.042  67.470  1.00  0.00    -0.185 A  
HETATM   20  N   UNL     1      -8.735   9.333  68.044  1.00  0.00    -0.125 N  
HETATM   21  C   UNL     1      -8.166   8.467  67.097  1.00  0.00    -0.108 C  
HETATM   22  C   UNL     1     -10.906   5.938  67.126  1.00  0.00    -0.373 A  
HETATM   23  C   UNL     1      -8.918   7.244  66.791  1.00  0.00    -0.154 A  
HETATM   24  C   UNL     1     -10.494   5.040  66.137  1.00  0.00    -0.334 A  
HETATM   25  C   UNL     1      -9.274   5.228  65.496  1.00  0.00    -0.122 A  
HETATM   26  F   UNL     1      -7.323   6.476  65.186  1.00  0.00    -0.065 F  
HETATM   27  C   UNL     1      -8.490   6.329  65.827  1.00  0.00    -0.148 A  
BRANCH  20  28
HETATM   28  C   UNL     1      -8.045  10.566  68.254  1.00  0.00    -0.115 A  
HETATM   29  C   UNL     1      -8.249  11.665  67.411  1.00  0.00    -0.153 A  
HETATM   30  C   UNL     1      -7.605  12.877  67.672  1.00  0.00    -0.156 A  
HETATM   31  C   UNL     1      -6.750  12.996  68.766  1.00  0.00    -0.100 A  
HETATM   32  C   UNL     1      -6.501  11.893  69.578  1.00  0.00    -0.113 A  
HETATM   33  C   UNL     1      -7.128  10.677  69.310  1.00  0.00    -0.107 A  
ENDBRANCH  20  28
ENDBRANCH   1  16
TORSDOF 5
ENDMDL
MODEL       86
REMARK 921   NORMALIZED FREE ENERGY PREDICTED BY IDOCK:   -6.58 KCAL/MOL
REMARK 922        TOTAL FREE ENERGY PREDICTED BY IDOCK:   -8.57 KCAL/MOL
REMARK 923 INTER-LIGAND FREE ENERGY PREDICTED BY IDOCK:   -7.37 KCAL/MOL
REMARK 924 INTRA-LIGAND FREE ENERGY PREDICTED BY IDOCK:   -1.21 KCAL/MOL
REMARK 927      BINDING AFFINITY PREDICTED BY RF-SCORE:    0.00 PKD
ROOT
HETATM    1  C   UNL     1      -9.521   7.985  67.804  1.00  0.00    -0.145 C  
ENDROOT
BRANCH   1   2
HETATM    2  C   UNL     1      -8.035   8.072  68.205  1.00  0.00    -0.128 C  
HETATM    3  C   UNL     1      -7.581   7.053  69.238  1.00  0.00    -0.096 C  
ENDBRANCH   1   2
BRANCH   1   4
HETATM    4  N   UNL     1      -9.611   7.561  66.402  1.00  0.00    -0.348 NA 
HETATM    5  H   UNL     1     -10.234   8.070  65.775  1.00  0.00     0.000 HD 
BRANCH   4   6
HETATM    6  C   UNL     1      -8.887   6.499  65.900  1.00  0.00    -0.119 A  
HETATM    7  C   UNL     1      -8.213   4.214  65.823  1.00  0.00    -0.109 A  
HETATM    8  N   UNL     1      -7.294   4.368  64.862  1.00  0.00    -0.071 NA 
HETATM    9  N   UNL     1      -9.851   4.613  67.349  1.00  0.00    -0.176 NA 
HETATM   10  C   UNL     1      -7.241   5.653  64.471  1.00  0.00    -0.058 A  
HETATM   11  C   UNL     1      -9.503   3.336  67.383  1.00  0.00    -0.154 A  
HETATM   12  H   UNL     1     -10.562   5.078  67.913  1.00  0.00     0.000 HD 
HETATM   13  N   UNL     1      -7.960   6.702  64.925  1.00  0.00    -0.118 NA 
HETATM   14  C   UNL     1      -9.037   5.178  66.380  1.00  0.00    -0.131 A  
HETATM   15  N   UNL     1      -8.524   3.052  66.472  1.00  0.00    -0.101 NA 
ENDBRANCH   4   6
ENDBRANCH   1   4
BRANCH   1  16
HETATM   16  C   UNL     1     -10.287   9.356  67.940  1.00  0.00    -0.225 C  
HETATM   17  O   UNL     1     -11.701  11.543  70.409  1.00  0.00    -0.320 OA 
HETATM   18  N   UNL     1     -10.388  10.083  66.861  1.00  0.00    -0.235 NA 
HETATM   19  C   UNL     1     -11.025  11.327  66.926  1.00  0.00    -0.290 A  
HETATM   20  N   UNL     1     -10.767   9.792  69.176  1.00  0.00    -0.217 N  
HETATM   21  C   UNL     1     -11.304  11.077  69.341  1.00  0.00    -0.284 C  
HETATM   22  C   UNL     1     -11.241  12.036  65.738  1.00  0.00    -0.383 A  
HETATM   23  C   UNL     1     -11.446  11.891  68.127  1.00  0.00    -0.384 A  
HETATM   24  C   UNL     1     -11.846  13.297  65.753  1.00  0.00    -0.428 A  
HETATM   25  C   UNL     1     -12.222  13.869  66.965  1.00  0.00    -0.392 A  
HETATM   26  F   UNL     1     -12.396  13.748  69.292  1.00  0.00    -0.369 F  
HETATM   27  C   UNL     1     -12.019  13.164  68.146  1.00  0.00    -0.294 A  
BRANCH  20  28
HETATM   28  C   UNL     1     -10.732   8.975  70.348  1.00  0.00    -0.227 A  
HETATM   29  C   UNL     1      -9.661   9.040  71.246  1.00  0.00    -0.371 A  
HETATM   30  C   UNL     1      -9.680   8.272  72.414  1.00  0.00    -0.373 A  
HETATM   31  C   UNL     1     -10.758   7.432  72.684  1.00  0.00    -0.334 A  
HETATM   32  C   UNL     1     -11.802   7.323  71.770  1.00  0.00    -0.330 A  
HETATM   33  C   UNL     1     -11.779   8.073  70.596  1.00  0.00    -0.158 A  
ENDBRANCH  20  28
ENDBRANCH   1  16
TORSDOF 5
ENDMDL
MODEL       87
REMARK 921   NORMALIZED FREE ENERGY PREDICTED BY IDOCK:   -6.57 KCAL/MOL
REMARK 922        TOTAL FREE ENERGY PREDICTED BY IDOCK:   -8.55 KCAL/MOL
REMARK 923 INTER-LIGAND FREE ENERGY PREDICTED BY IDOCK:   -7.48 KCAL/MOL
REMARK 924 INTRA-LIGAND FREE ENERGY PREDICTED BY IDOCK:   -1.07 KCAL/MOL
REMARK 927      BINDING AFFINITY PREDICTED BY RF-SCORE:    0.00 PKD
ROOT
HETATM    1  C   UNL     1     -10.374   9.755  67.502  1.00  0.00    -0.237 C  
ENDROOT
BRANCH   1   2
HETATM    2  C   UNL     1      -9.250  10.801  67.364  1.00  0.00    -0.156 C  
HETATM    3  C   UNL     1      -8.665  10.945  65.969  1.00  0.00    -0.192 C  
ENDBRANCH   1   2
BRANCH   1   4
HETATM    4  N   UNL     1     -11.645  10.453  67.733  1.00  0.00    -0.653 NA 
HETATM    5  H   UNL     1     -12.471   9.902  67.970  1.00  0.00     0.000 HD 
BRANCH   4   6
HETATM    6  C   UNL     1     -11.767  11.824  67.641  1.00  0.00    -0.250 A  
HETATM    7  C   UNL     1     -12.042  13.874  66.456  1.00  0.00    -0.449 A  
HETATM    8  N   UNL     1     -11.930  14.673  67.525  1.00  0.00    -0.345 NA 
HETATM    9  N   UNL     1     -12.149  12.043  65.113  1.00  0.00    -0.370 NA 
HETATM   10  C   UNL     1     -11.735  13.940  68.635  1.00  0.00    -0.361 A  
HETATM   11  C   UNL     1     -12.276  13.143  64.388  1.00  0.00    -0.398 A  
HETATM   12  H   UNL     1     -12.165  11.077  64.785  1.00  0.00     0.000 HD 
HETATM   13  N   UNL     1     -11.643  12.599  68.753  1.00  0.00    -0.291 NA 
HETATM   14  C   UNL     1     -11.989  12.490  66.414  1.00  0.00    -0.318 A  
HETATM   15  N   UNL     1     -12.225  14.269  65.161  1.00  0.00    -0.412 NA 
ENDBRANCH   4   6
ENDBRANCH   1   4
BRANCH   1  16
HETATM   16  C   UNL     1     -10.154   8.752  68.697  1.00  0.00    -0.189 C  
HETATM   17  O   UNL     1      -8.105   5.976  69.683  1.00  0.00    -0.104 OA 
HETATM   18  N   UNL     1     -10.803   9.001  69.802  1.00  0.00    -0.227 NA 
HETATM   19  C   UNL     1     -10.620   8.167  70.910  1.00  0.00    -0.209 A  
HETATM   20  N   UNL     1      -9.251   7.694  68.589  1.00  0.00    -0.142 N  
HETATM   21  C   UNL     1      -8.926   6.893  69.695  1.00  0.00    -0.144 C  
HETATM   22  C   UNL     1     -11.419   8.368  72.043  1.00  0.00    -0.418 A  
HETATM   23  C   UNL     1      -9.671   7.150  70.933  1.00  0.00    -0.170 A  
HETATM   24  C   UNL     1     -11.254   7.581  73.187  1.00  0.00    -0.318 A  
HETATM   25  C   UNL     1     -10.272   6.597  73.214  1.00  0.00    -0.256 A  
HETATM   26  F   UNL     1      -8.550   5.427  72.152  1.00  0.00    -0.121 F  
HETATM   27  C   UNL     1      -9.483   6.386  72.087  1.00  0.00    -0.149 A  
BRANCH  20  28
HETATM   28  C   UNL     1      -8.593   7.363  67.365  1.00  0.00    -0.118 A  
HETATM   29  C   UNL     1      -7.309   7.840  67.079  1.00  0.00    -0.091 A  
HETATM   30  C   UNL     1      -6.665   7.455  65.900  1.00  0.00    -0.053 A  
HETATM   31  C   UNL     1      -7.302   6.603  64.999  1.00  0.00    -0.082 A  
HETATM   32  C   UNL     1      -8.599   6.167  65.252  1.00  0.00    -0.082 A  
HETATM   33  C   UNL     1      -9.251   6.563  66.418  1.00  0.00    -0.178 A  
ENDBRANCH  20  28
ENDBRANCH   1  16
TORSDOF 5
ENDMDL
MODEL       88
REMARK 921   NORMALIZED FREE ENERGY PREDICTED BY IDOCK:   -6.55 KCAL/MOL
REMARK 922        TOTAL FREE ENERGY PREDICTED BY IDOCK:   -8.53 KCAL/MOL
REMARK 923 INTER-LIGAND FREE ENERGY PREDICTED BY IDOCK:   -7.49 KCAL/MOL
REMARK 924 INTRA-LIGAND FREE ENERGY PREDICTED BY IDOCK:   -1.05 KCAL/MOL
REMARK 927      BINDING AFFINITY PREDICTED BY RF-SCORE:    0.00 PKD
ROOT
HETATM    1  C   UNL     1     -10.401   9.795  69.853  1.00  0.00    -0.254 C  
ENDROOT
BRANCH   1   2
HETATM    2  C   UNL     1      -9.928   9.292  71.231  1.00  0.00    -0.341 C  
HETATM    3  C   UNL     1      -8.447   8.965  71.329  1.00  0.00    -0.239 C  
ENDBRANCH   1   2
BRANCH   1   4
HETATM    4  N   UNL     1     -11.850  10.026  69.903  1.00  0.00    -0.450 NA 
HETATM    5  H   UNL     1     -12.466   9.385  69.404  1.00  0.00     0.000 HD 
BRANCH   4   6
HETATM    6  C   UNL     1     -12.410  11.078  70.599  1.00  0.00    -0.386 A  
HETATM    7  C   UNL     1     -12.714  13.386  71.111  1.00  0.00    -0.328 A  
HETATM    8  N   UNL     1     -13.552  13.196  72.138  1.00  0.00    -0.542 NA 
HETATM    9  N   UNL     1     -11.318  13.036  69.351  1.00  0.00    -0.407 NA 
HETATM   10  C   UNL     1     -13.768  11.882  72.325  1.00  0.00     0.127 A  
HETATM   11  C   UNL     1     -11.414  14.332  69.599  1.00  0.00    -0.282 A  
HETATM   12  H   UNL     1     -10.771  12.583  68.618  1.00  0.00     0.000 HD 
HETATM   13  N   UNL     1     -13.256  10.838  71.639  1.00  0.00    -0.408 NA 
HETATM   14  C   UNL     1     -12.121  12.429  70.303  1.00  0.00    -0.297 A  
HETATM   15  N   UNL     1     -12.253  14.587  70.649  1.00  0.00    -0.307 NA 
ENDBRANCH   4   6
ENDBRANCH   1   4
BRANCH   1  16
HETATM   16  C   UNL     1     -10.118   8.777  68.684  1.00  0.00    -0.189 C  
HETATM   17  O   UNL     1      -8.930   8.655  65.301  1.00  0.00    -0.181 OA 
HETATM   18  N   UNL     1     -10.194   7.508  68.978  1.00  0.00    -0.200 NA 
HETATM   19  C   UNL     1      -9.918   6.555  67.992  1.00  0.00    -0.134 A  
HETATM   20  N   UNL     1      -9.735   9.224  67.419  1.00  0.00    -0.153 N  
HETATM   21  C   UNL     1      -9.325   8.328  66.420  1.00  0.00    -0.213 C  
HETATM   22  C   UNL     1     -10.130   5.202  68.284  1.00  0.00    -0.199 A  
HETATM   23  C   UNL     1      -9.433   6.898  66.734  1.00  0.00    -0.204 A  
HETATM   24  C   UNL     1      -9.840   4.209  67.343  1.00  0.00    -0.152 A  
HETATM   25  C   UNL     1      -9.314   4.562  66.105  1.00  0.00    -0.156 A  
HETATM   26  F   UNL     1      -8.605   6.205  64.602  1.00  0.00    -0.122 F  
HETATM   27  C   UNL     1      -9.112   5.905  65.806  1.00  0.00    -0.087 A  
BRANCH  20  28
HETATM   28  C   UNL     1      -9.722  10.606  67.061  1.00  0.00    -0.176 A  
HETATM   29  C   UNL     1      -8.695  11.457  67.486  1.00  0.00    -0.140 A  
HETATM   30  C   UNL     1      -8.675  12.792  67.074  1.00  0.00    -0.197 A  
HETATM   31  C   UNL     1      -9.683  13.286  66.248  1.00  0.00    -0.274 A  
HETATM   32  C   UNL     1     -10.736  12.460  65.864  1.00  0.00    -0.299 A  
HETATM   33  C   UNL     1     -10.768  11.133  66.287  1.00  0.00    -0.298 A  
ENDBRANCH  20  28
ENDBRANCH   1  16
TORSDOF 5
ENDMDL
MODEL       89
REMARK 921   NORMALIZED FREE ENERGY PREDICTED BY IDOCK:   -6.55 KCAL/MOL
REMARK 922        TOTAL FREE ENERGY PREDICTED BY IDOCK:   -8.53 KCAL/MOL
REMARK 923 INTER-LIGAND FREE ENERGY PREDICTED BY IDOCK:   -8.76 KCAL/MOL
REMARK 924 INTRA-LIGAND FREE ENERGY PREDICTED BY IDOCK:    0.24 KCAL/MOL
REMARK 927      BINDING AFFINITY PREDICTED BY RF-SCORE:    0.00 PKD
ROOT
HETATM    1  C   UNL     1      -8.793  12.325  67.299  1.00  0.00    -0.190 C  
ENDROOT
BRANCH   1   2
HETATM    2  C   UNL     1      -7.294  12.410  67.649  1.00  0.00    -0.132 C  
HETATM    3  C   UNL     1      -6.361  11.701  66.681  1.00  0.00    -0.066 C  
ENDBRANCH   1   2
BRANCH   1   4
HETATM    4  N   UNL     1      -9.006  12.919  65.973  1.00  0.00    -0.412 NA 
HETATM    5  H   UNL     1      -8.243  13.442  65.543  1.00  0.00     0.000 HD 
BRANCH   4   6
HETATM    6  C   UNL     1     -10.198  12.799  65.289  1.00  0.00    -0.279 A  
HETATM    7  C   UNL     1     -12.117  13.657  64.165  1.00  0.00    -0.435 A  
HETATM    8  N   UNL     1     -12.698  12.470  63.948  1.00  0.00    -0.737 NA 
HETATM    9  N   UNL     1     -10.662  15.278  64.816  1.00  0.00    -0.588 NA 
HETATM   10  C   UNL     1     -11.936  11.481  64.447  1.00  0.00     0.078 A  
HETATM   11  C   UNL     1     -11.716  15.825  64.230  1.00  0.00    -0.162 A  
HETATM   12  H   UNL     1      -9.847  15.756  65.200  1.00  0.00     0.000 HD 
HETATM   13  N   UNL     1     -10.754  11.572  65.093  1.00  0.00    -0.294 NA 
HETATM   14  C   UNL     1     -10.909  13.915  64.792  1.00  0.00    -0.419 A  
HETATM   15  N   UNL     1     -12.614  14.881  63.816  1.00  0.00    -0.689 NA 
ENDBRANCH   4   6
ENDBRANCH   1   4
BRANCH   1  16
HETATM   16  C   UNL     1      -9.719  13.089  68.321  1.00  0.00    -0.221 C  
HETATM   17  O   UNL     1     -10.422  16.390  69.538  1.00  0.00    -0.281 OA 
HETATM   18  N   UNL     1     -10.674  12.397  68.881  1.00  0.00    -0.202 NA 
HETATM   19  C   UNL     1     -11.551  13.028  69.769  1.00  0.00    -0.216 A  
HETATM   20  N   UNL     1      -9.559  14.456  68.552  1.00  0.00    -0.215 N  
HETATM   21  C   UNL     1     -10.475  15.178  69.333  1.00  0.00    -0.255 C  
HETATM   22  C   UNL     1     -12.486  12.248  70.460  1.00  0.00    -0.272 A  
HETATM   23  C   UNL     1     -11.536  14.402  69.987  1.00  0.00    -0.295 A  
HETATM   24  C   UNL     1     -13.405  12.834  71.336  1.00  0.00    -0.116 A  
HETATM   25  C   UNL     1     -13.409  14.214  71.511  1.00  0.00    -0.424 A  
HETATM   26  F   UNL     1     -12.510  16.317  71.033  1.00  0.00    -0.389 F  
HETATM   27  C   UNL     1     -12.475  14.993  70.835  1.00  0.00    -0.345 A  
BRANCH  20  28
HETATM   28  C   UNL     1      -8.474  15.209  68.008  1.00  0.00    -0.148 A  
HETATM   29  C   UNL     1      -7.187  15.123  68.552  1.00  0.00    -0.118 A  
HETATM   30  C   UNL     1      -6.131  15.826  67.965  1.00  0.00    -0.149 A  
HETATM   31  C   UNL     1      -6.356  16.623  66.844  1.00  0.00    -0.208 A  
HETATM   32  C   UNL     1      -7.644  16.754  66.330  1.00  0.00    -0.325 A  
HETATM   33  C   UNL     1      -8.702  16.069  66.923  1.00  0.00    -0.259 A  
ENDBRANCH  20  28
ENDBRANCH   1  16
TORSDOF 5
ENDMDL
MODEL       90
REMARK 921   NORMALIZED FREE ENERGY PREDICTED BY IDOCK:   -6.53 KCAL/MOL
REMARK 922        TOTAL FREE ENERGY PREDICTED BY IDOCK:   -8.50 KCAL/MOL
REMARK 923 INTER-LIGAND FREE ENERGY PREDICTED BY IDOCK:   -6.94 KCAL/MOL
REMARK 924 INTRA-LIGAND FREE ENERGY PREDICTED BY IDOCK:   -1.56 KCAL/MOL
REMARK 927      BINDING AFFINITY PREDICTED BY RF-SCORE:    0.00 PKD
ROOT
HETATM    1  C   UNL     1     -11.326   8.514  70.828  1.00  0.00    -0.266 C  
ENDROOT
BRANCH   1   2
HETATM    2  C   UNL     1     -12.752   8.453  71.411  1.00  0.00    -0.280 C  
HETATM    3  C   UNL     1     -13.526   7.182  71.100  1.00  0.00    -0.217 C  
ENDBRANCH   1   2
BRANCH   1   4
HETATM    4  N   UNL     1     -10.397   8.922  71.889  1.00  0.00    -0.342 NA 
HETATM    5  H   UNL     1     -10.685   9.655  72.537  1.00  0.00     0.000 HD 
BRANCH   4   6
HETATM    6  C   UNL     1      -9.149   8.354  72.042  1.00  0.00    -0.227 A  
HETATM    7  C   UNL     1      -6.795   8.231  71.688  1.00  0.00    -0.069 A  
HETATM    8  N   UNL     1      -6.613   7.073  72.335  1.00  0.00    -0.056 NA 
HETATM    9  N   UNL     1      -7.741  10.088  70.778  1.00  0.00    -0.380 NA 
HETATM   10  C   UNL     1      -7.784   6.620  72.815  1.00  0.00    -0.100 A  
HETATM   11  C   UNL     1      -6.443  10.068  70.517  1.00  0.00    -0.121 A  
HETATM   12  H   UNL     1      -8.419  10.799  70.505  1.00  0.00     0.000 HD 
HETATM   13  N   UNL     1      -9.010   7.173  72.704  1.00  0.00    -0.126 NA 
HETATM   14  C   UNL     1      -7.976   8.931  71.504  1.00  0.00    -0.066 A  
HETATM   15  N   UNL     1      -5.834   8.969  71.054  1.00  0.00    -0.041 NA 
ENDBRANCH   4   6
ENDBRANCH   1   4
BRANCH   1  16
HETATM   16  C   UNL     1     -11.179   9.539  69.641  1.00  0.00    -0.108 C  
HETATM   17  O   UNL     1     -10.255   9.700  66.177  1.00  0.00    -0.266 OA 
HETATM   18  N   UNL     1     -11.635  10.745  69.843  1.00  0.00    -0.301 NA 
HETATM   19  C   UNL     1     -11.566  11.690  68.814  1.00  0.00    -0.313 A  
HETATM   20  N   UNL     1     -10.648   9.144  68.412  1.00  0.00    -0.201 N  
HETATM   21  C   UNL     1     -10.661  10.000  67.300  1.00  0.00    -0.257 C  
HETATM   22  C   UNL     1     -11.939  13.012  69.087  1.00  0.00    -0.320 A  
HETATM   23  C   UNL     1     -11.148  11.365  67.527  1.00  0.00    -0.339 A  
HETATM   24  C   UNL     1     -11.917  13.987  68.085  1.00  0.00    -0.382 A  
HETATM   25  C   UNL     1     -11.539  13.640  66.792  1.00  0.00    -0.393 A  
HETATM   26  F   UNL     1     -10.800  12.037  65.261  1.00  0.00    -0.298 F  
HETATM   27  C   UNL     1     -11.158  12.331  66.518  1.00  0.00    -0.299 A  
BRANCH  20  28
HETATM   28  C   UNL     1     -10.075   7.853  68.199  1.00  0.00    -0.191 A  
HETATM   29  C   UNL     1      -8.721   7.609  68.456  1.00  0.00    -0.128 A  
HETATM   30  C   UNL     1      -8.198   6.324  68.293  1.00  0.00    -0.115 A  
HETATM   31  C   UNL     1      -9.018   5.281  67.865  1.00  0.00    -0.112 A  
HETATM   32  C   UNL     1     -10.353   5.528  67.558  1.00  0.00    -0.268 A  
HETATM   33  C   UNL     1     -10.874   6.812  67.701  1.00  0.00    -0.361 A  
ENDBRANCH  20  28
ENDBRANCH   1  16
TORSDOF 5
ENDMDL
MODEL       91
REMARK 921   NORMALIZED FREE ENERGY PREDICTED BY IDOCK:   -6.53 KCAL/MOL
REMARK 922        TOTAL FREE ENERGY PREDICTED BY IDOCK:   -8.50 KCAL/MOL
REMARK 923 INTER-LIGAND FREE ENERGY PREDICTED BY IDOCK:   -7.09 KCAL/MOL
REMARK 924 INTRA-LIGAND FREE ENERGY PREDICTED BY IDOCK:   -1.41 KCAL/MOL
REMARK 927      BINDING AFFINITY PREDICTED BY RF-SCORE:    0.00 PKD
ROOT
HETATM    1  C   UNL     1      -9.971  10.391  68.671  1.00  0.00    -0.177 C  
ENDROOT
BRANCH   1   2
HETATM    2  C   UNL     1      -8.834  10.177  69.689  1.00  0.00    -0.184 C  
HETATM    3  C   UNL     1      -7.539  10.910  69.379  1.00  0.00    -0.097 C  
ENDBRANCH   1   2
BRANCH   1   4
HETATM    4  N   UNL     1     -11.132   9.591  69.080  1.00  0.00    -0.425 NA 
HETATM    5  H   UNL     1     -12.013   9.715  68.581  1.00  0.00     0.000 HD 
BRANCH   4   6
HETATM    6  C   UNL     1     -11.078   8.679  70.115  1.00  0.00    -0.192 A  
HETATM    7  C   UNL     1     -10.734   6.509  71.039  1.00  0.00    -0.243 A  
HETATM    8  N   UNL     1     -11.066   6.834  72.294  1.00  0.00    -0.242 NA 
HETATM    9  N   UNL     1     -10.302   6.611  68.809  1.00  0.00    -0.180 NA 
HETATM   10  C   UNL     1     -11.396   8.136  72.366  1.00  0.00    -0.391 A  
HETATM   11  C   UNL     1     -10.123   5.375  69.248  1.00  0.00    -0.231 A  
HETATM   12  H   UNL     1     -10.176   6.956  67.857  1.00  0.00     0.000 HD 
HETATM   13  N   UNL     1     -11.427   9.052  71.376  1.00  0.00    -0.302 NA 
HETATM   14  C   UNL     1     -10.698   7.331  69.924  1.00  0.00    -0.242 A  
HETATM   15  N   UNL     1     -10.366   5.272  70.589  1.00  0.00    -0.257 NA 
ENDBRANCH   4   6
ENDBRANCH   1   4
BRANCH   1  16
HETATM   16  C   UNL     1      -9.587   9.963  67.204  1.00  0.00    -0.162 C  
HETATM   17  O   UNL     1      -9.290  11.292  63.884  1.00  0.00    -0.197 OA 
HETATM   18  N   UNL     1      -9.073   8.773  67.053  1.00  0.00    -0.130 NA 
HETATM   19  C   UNL     1      -8.678   8.348  65.780  1.00  0.00    -0.169 A  
HETATM   20  N   UNL     1      -9.729  10.849  66.136  1.00  0.00    -0.202 N  
HETATM   21  C   UNL     1      -9.242  10.539  64.857  1.00  0.00    -0.215 C  
HETATM   22  C   UNL     1      -8.250   7.026  65.614  1.00  0.00    -0.134 A  
HETATM   23  C   UNL     1      -8.686   9.193  64.674  1.00  0.00    -0.199 A  
HETATM   24  C   UNL     1      -7.816   6.562  64.367  1.00  0.00    -0.115 A  
HETATM   25  C   UNL     1      -7.788   7.428  63.279  1.00  0.00    -0.122 A  
HETATM   26  F   UNL     1      -8.180   9.543  62.365  1.00  0.00    -0.121 F  
HETATM   27  C   UNL     1      -8.221   8.740  63.438  1.00  0.00    -0.170 A  
BRANCH  20  28
HETATM   28  C   UNL     1     -10.360  12.124  66.270  1.00  0.00    -0.221 A  
HETATM   29  C   UNL     1     -11.745  12.266  66.130  1.00  0.00    -0.440 A  
HETATM   30  C   UNL     1     -12.344  13.514  66.323  1.00  0.00    -0.440 A  
HETATM   31  C   UNL     1     -11.565  14.624  66.645  1.00  0.00    -0.359 A  
HETATM   32  C   UNL     1     -10.181  14.501  66.734  1.00  0.00    -0.266 A  
HETATM   33  C   UNL     1      -9.579  13.262  66.525  1.00  0.00    -0.267 A  
ENDBRANCH  20  28
ENDBRANCH   1  16
TORSDOF 5
ENDMDL
MODEL       92
REMARK 921   NORMALIZED FREE ENERGY PREDICTED BY IDOCK:   -6.48 KCAL/MOL
REMARK 922        TOTAL FREE ENERGY PREDICTED BY IDOCK:   -8.45 KCAL/MOL
REMARK 923 INTER-LIGAND FREE ENERGY PREDICTED BY IDOCK:   -8.58 KCAL/MOL
REMARK 924 INTRA-LIGAND FREE ENERGY PREDICTED BY IDOCK:    0.13 KCAL/MOL
REMARK 927      BINDING AFFINITY PREDICTED BY RF-SCORE:    0.00 PKD
ROOT
HETATM    1  C   UNL     1      -9.651  14.823  67.265  1.00  0.00    -0.223 C  
ENDROOT
BRANCH   1   2
HETATM    2  C   UNL     1     -10.203  14.895  65.828  1.00  0.00    -0.358 C  
HETATM    3  C   UNL     1     -10.766  16.246  65.416  1.00  0.00    -0.342 C  
ENDBRANCH   1   2
BRANCH   1   4
HETATM    4  N   UNL     1      -8.391  14.070  67.253  1.00  0.00    -0.226 NA 
HETATM    5  H   UNL     1      -8.243  13.374  66.522  1.00  0.00     0.000 HD 
BRANCH   4   6
HETATM    6  C   UNL     1      -7.400  14.266  68.193  1.00  0.00    -0.128 A  
HETATM    7  C   UNL     1      -5.967  15.609  69.544  1.00  0.00    -0.130 A  
HETATM    8  N   UNL     1      -5.286  14.591  70.085  1.00  0.00    -0.091 NA 
HETATM    9  N   UNL     1      -7.444  16.829  68.320  1.00  0.00    -0.178 NA 
HETATM   10  C   UNL     1      -5.744  13.420  69.610  1.00  0.00    -0.105 A  
HETATM   11  C   UNL     1      -6.662  17.636  69.019  1.00  0.00    -0.250 A  
HETATM   12  H   UNL     1      -8.202  17.091  67.690  1.00  0.00     0.000 HD 
HETATM   13  N   UNL     1      -6.731  13.202  68.715  1.00  0.00    -0.095 NA 
HETATM   14  C   UNL     1      -7.009  15.551  68.633  1.00  0.00    -0.116 A  
HETATM   15  N   UNL     1      -5.761  16.940  69.776  1.00  0.00    -0.198 NA 
ENDBRANCH   4   6
ENDBRANCH   1   4
BRANCH   1  16
HETATM   16  C   UNL     1     -10.627  14.110  68.276  1.00  0.00    -0.251 C  
HETATM   17  O   UNL     1     -12.159  10.929  68.919  1.00  0.00    -0.463 OA 
HETATM   18  N   UNL     1     -10.956  14.777  69.348  1.00  0.00    -0.258 NA 
HETATM   19  C   UNL     1     -11.790  14.183  70.301  1.00  0.00    -0.303 A  
HETATM   20  N   UNL     1     -11.056  12.800  68.057  1.00  0.00    -0.237 N  
HETATM   21  C   UNL     1     -11.791  12.099  69.025  1.00  0.00    -0.306 C  
HETATM   22  C   UNL     1     -12.238  14.956  71.379  1.00  0.00    -0.391 A  
HETATM   23  C   UNL     1     -12.186  12.852  70.222  1.00  0.00    -0.362 A  
HETATM   24  C   UNL     1     -13.049  14.400  72.374  1.00  0.00    -0.500 A  
HETATM   25  C   UNL     1     -13.401  13.056  72.307  1.00  0.00    -0.606 A  
HETATM   26  F   UNL     1     -13.330  10.998  71.204  1.00  0.00    -0.391 F  
HETATM   27  C   UNL     1     -12.968  12.287  71.233  1.00  0.00    -0.204 A  
BRANCH  20  28
HETATM   28  C   UNL     1     -10.769  12.085  66.854  1.00  0.00    -0.244 A  
HETATM   29  C   UNL     1     -11.565  12.235  65.713  1.00  0.00    -0.443 A  
HETATM   30  C   UNL     1     -11.230  11.569  64.532  1.00  0.00    -0.301 A  
HETATM   31  C   UNL     1     -10.107  10.743  64.487  1.00  0.00    -0.415 A  
HETATM   32  C   UNL     1      -9.341  10.547  65.633  1.00  0.00    -0.242 A  
HETATM   33  C   UNL     1      -9.683  11.197  66.817  1.00  0.00    -0.220 A  
ENDBRANCH  20  28
ENDBRANCH   1  16
TORSDOF 5
ENDMDL
MODEL       93
REMARK 921   NORMALIZED FREE ENERGY PREDICTED BY IDOCK:   -6.47 KCAL/MOL
REMARK 922        TOTAL FREE ENERGY PREDICTED BY IDOCK:   -8.43 KCAL/MOL
REMARK 923 INTER-LIGAND FREE ENERGY PREDICTED BY IDOCK:   -8.50 KCAL/MOL
REMARK 924 INTRA-LIGAND FREE ENERGY PREDICTED BY IDOCK:    0.08 KCAL/MOL
REMARK 927      BINDING AFFINITY PREDICTED BY RF-SCORE:    0.00 PKD
ROOT
HETATM    1  C   UNL     1     -10.816  12.395  66.111  1.00  0.00    -0.273 C  
ENDROOT
BRANCH   1   2
HETATM    2  C   UNL     1     -10.884  11.627  64.776  1.00  0.00    -0.367 C  
HETATM    3  C   UNL     1     -11.835  12.206  63.741  1.00  0.00    -0.592 C  
ENDBRANCH   1   2
BRANCH   1   4
HETATM    4  N   UNL     1      -9.597  13.213  66.127  1.00  0.00    -0.402 NA 
HETATM    5  H   UNL     1      -8.694  12.744  66.202  1.00  0.00     0.000 HD 
BRANCH   4   6
HETATM    6  C   UNL     1      -9.626  14.590  66.044  1.00  0.00    -0.275 A  
HETATM    7  C   UNL     1      -8.694  16.769  66.298  1.00  0.00    -0.307 A  
HETATM    8  N   UNL     1      -9.790  17.439  65.922  1.00  0.00    -0.537 NA 
HETATM    9  N   UNL     1      -7.231  15.105  66.810  1.00  0.00    -0.256 NA 
HETATM   10  C   UNL     1     -10.778  16.579  65.616  1.00  0.00    -0.248 A  
HETATM   11  C   UNL     1      -6.660  16.284  67.004  1.00  0.00    -0.158 A  
HETATM   12  H   UNL     1      -6.817  14.184  66.949  1.00  0.00     0.000 HD 
HETATM   13  N   UNL     1     -10.764  15.230  65.660  1.00  0.00    -0.344 NA 
HETATM   14  C   UNL     1      -8.515  15.398  66.378  1.00  0.00    -0.134 A  
HETATM   15  N   UNL     1      -7.506  17.314  66.699  1.00  0.00    -0.224 NA 
ENDBRANCH   4   6
ENDBRANCH   1   4
BRANCH   1  16
HETATM   16  C   UNL     1     -10.779  11.454  67.374  1.00  0.00    -0.232 C  
HETATM   17  O   UNL     1      -8.781   8.897  68.906  1.00  0.00    -0.133 OA 
HETATM   18  N   UNL     1     -11.666  11.682  68.305  1.00  0.00    -0.442 NA 
HETATM   19  C   UNL     1     -11.661  10.904  69.467  1.00  0.00    -0.313 A  
HETATM   20  N   UNL     1      -9.796  10.474  67.511  1.00  0.00    -0.165 N  
HETATM   21  C   UNL     1      -9.654   9.741  68.699  1.00  0.00    -0.151 C  
HETATM   22  C   UNL     1     -12.695  11.073  70.395  1.00  0.00    -0.297 A  
HETATM   23  C   UNL     1     -10.663   9.973  69.740  1.00  0.00    -0.304 A  
HETATM   24  C   UNL     1     -12.718  10.341  71.587  1.00  0.00    -0.561 A  
HETATM   25  C   UNL     1     -11.692   9.446  71.868  1.00  0.00    -0.376 A  
HETATM   26  F   UNL     1      -9.698   8.394  71.252  1.00  0.00    -0.182 F  
HETATM   27  C   UNL     1     -10.667   9.266  70.944  1.00  0.00    -0.301 A  
BRANCH  20  28
HETATM   28  C   UNL     1      -8.869  10.161  66.471  1.00  0.00    -0.140 A  
HETATM   29  C   UNL     1      -7.661  10.856  66.340  1.00  0.00    -0.154 A  
HETATM   30  C   UNL     1      -6.747  10.492  65.349  1.00  0.00    -0.078 A  
HETATM   31  C   UNL     1      -7.036   9.442  64.479  1.00  0.00    -0.101 A  
HETATM   32  C   UNL     1      -8.258   8.780  64.569  1.00  0.00    -0.168 A  
HETATM   33  C   UNL     1      -9.180   9.153  65.545  1.00  0.00    -0.287 A  
ENDBRANCH  20  28
ENDBRANCH   1  16
TORSDOF 5
ENDMDL
MODEL       94
REMARK 921   NORMALIZED FREE ENERGY PREDICTED BY IDOCK:   -6.46 KCAL/MOL
REMARK 922        TOTAL FREE ENERGY PREDICTED BY IDOCK:   -8.42 KCAL/MOL
REMARK 923 INTER-LIGAND FREE ENERGY PREDICTED BY IDOCK:   -7.63 KCAL/MOL
REMARK 924 INTRA-LIGAND FREE ENERGY PREDICTED BY IDOCK:   -0.80 KCAL/MOL
REMARK 927      BINDING AFFINITY PREDICTED BY RF-SCORE:    0.00 PKD
ROOT
HETATM    1  C   UNL     1     -11.508  10.629  69.705  1.00  0.00    -0.302 C  
ENDROOT
BRANCH   1   2
HETATM    2  C   UNL     1     -12.822  10.488  70.498  1.00  0.00    -0.339 C  
HETATM    3  C   UNL     1     -12.928  11.360  71.739  1.00  0.00    -0.519 C  
ENDBRANCH   1   2
BRANCH   1   4
HETATM    4  N   UNL     1     -11.825  11.015  68.325  1.00  0.00    -0.676 NA 
HETATM    5  H   UNL     1     -12.027  10.282  67.645  1.00  0.00     0.000 HD 
BRANCH   4   6
HETATM    6  C   UNL     1     -11.861  12.331  67.912  1.00  0.00    -0.293 A  
HETATM    7  C   UNL     1     -11.961  14.058  66.271  1.00  0.00    -0.432 A  
HETATM    8  N   UNL     1     -11.848  15.078  67.130  1.00  0.00    -0.223 NA 
HETATM    9  N   UNL     1     -12.117  11.970  65.384  1.00  0.00    -0.421 NA 
HETATM   10  C   UNL     1     -11.746  14.617  68.389  1.00  0.00    -0.320 A  
HETATM   11  C   UNL     1     -12.147  12.874  64.418  1.00  0.00    -0.410 A  
HETATM   12  H   UNL     1     -12.177  10.956  65.288  1.00  0.00     0.000 HD 
HETATM   13  N   UNL     1     -11.739  13.338  68.819  1.00  0.00    -0.308 NA 
HETATM   14  C   UNL     1     -11.988  12.702  66.553  1.00  0.00    -0.331 A  
HETATM   15  N   UNL     1     -12.063  14.147  64.911  1.00  0.00    -0.407 NA 
ENDBRANCH   4   6
ENDBRANCH   1   4
BRANCH   1  16
HETATM   16  C   UNL     1     -10.664   9.300  69.649  1.00  0.00    -0.230 C  
HETATM   17  O   UNL     1      -7.486   8.042  68.558  1.00  0.00    -0.097 OA 
HETATM   18  N   UNL     1     -11.139   8.273  70.300  1.00  0.00    -0.247 NA 
HETATM   19  C   UNL     1     -10.418   7.075  70.318  1.00  0.00    -0.208 A  
HETATM   20  N   UNL     1      -9.434   9.256  68.992  1.00  0.00    -0.153 N  
HETATM   21  C   UNL     1      -8.601   8.130  69.072  1.00  0.00    -0.133 C  
HETATM   22  C   UNL     1     -11.001   5.946  70.909  1.00  0.00    -0.335 A  
HETATM   23  C   UNL     1      -9.140   6.962  69.779  1.00  0.00    -0.144 A  
HETATM   24  C   UNL     1     -10.308   4.733  70.980  1.00  0.00    -0.188 A  
HETATM   25  C   UNL     1      -9.014   4.646  70.476  1.00  0.00    -0.155 A  
HETATM   26  F   UNL     1      -7.188   5.635  69.406  1.00  0.00    -0.058 F  
HETATM   27  C   UNL     1      -8.435   5.761  69.880  1.00  0.00    -0.123 A  
BRANCH  20  28
HETATM   28  C   UNL     1      -8.938  10.345  68.212  1.00  0.00    -0.135 A  
HETATM   29  C   UNL     1      -9.036  10.342  66.816  1.00  0.00    -0.161 A  
HETATM   30  C   UNL     1      -8.595  11.445  66.080  1.00  0.00    -0.128 A  
HETATM   31  C   UNL     1      -8.044  12.548  66.732  1.00  0.00     0.043 A  
HETATM   32  C   UNL     1      -7.894  12.535  68.116  1.00  0.00    -0.151 A  
HETATM   33  C   UNL     1      -8.317  11.430  68.851  1.00  0.00    -0.042 A  
ENDBRANCH  20  28
ENDBRANCH   1  16
TORSDOF 5
ENDMDL
MODEL       95
REMARK 921   NORMALIZED FREE ENERGY PREDICTED BY IDOCK:   -6.46 KCAL/MOL
REMARK 922        TOTAL FREE ENERGY PREDICTED BY IDOCK:   -8.42 KCAL/MOL
REMARK 923 INTER-LIGAND FREE ENERGY PREDICTED BY IDOCK:   -7.08 KCAL/MOL
REMARK 924 INTRA-LIGAND FREE ENERGY PREDICTED BY IDOCK:   -1.33 KCAL/MOL
REMARK 927      BINDING AFFINITY PREDICTED BY RF-SCORE:    0.00 PKD
ROOT
HETATM    1  C   UNL     1      -8.568  10.941  68.436  1.00  0.00    -0.146 C  
ENDROOT
BRANCH   1   2
HETATM    2  C   UNL     1      -7.251  11.224  69.184  1.00  0.00    -0.115 C  
HETATM    3  C   UNL     1      -5.985  11.039  68.363  1.00  0.00    -0.042 C  
ENDBRANCH   1   2
BRANCH   1   4
HETATM    4  N   UNL     1      -9.641  11.737  69.044  1.00  0.00    -0.409 NA 
HETATM    5  H   UNL     1      -9.784  11.677  70.052  1.00  0.00     0.000 HD 
BRANCH   4   6
HETATM    6  C   UNL     1     -10.463  12.563  68.305  1.00  0.00    -0.234 A  
HETATM    7  C   UNL     1     -11.611  14.606  67.869  1.00  0.00    -0.348 A  
HETATM    8  N   UNL     1     -12.238  14.184  66.764  1.00  0.00    -0.444 NA 
HETATM    9  N   UNL     1     -10.298  14.696  69.723  1.00  0.00    -0.441 NA 
HETATM   10  C   UNL     1     -11.907  12.908  66.499  1.00  0.00    -0.407 A  
HETATM   11  C   UNL     1     -10.928  15.848  69.560  1.00  0.00    -0.311 A  
HETATM   12  H   UNL     1      -9.639  14.447  70.461  1.00  0.00     0.000 HD 
HETATM   13  N   UNL     1     -11.083  12.092  67.189  1.00  0.00    -0.272 NA 
HETATM   14  C   UNL     1     -10.729  13.902  68.672  1.00  0.00    -0.260 A  
HETATM   15  N   UNL     1     -11.725  15.838  68.449  1.00  0.00    -0.337 NA 
ENDBRANCH   4   6
ENDBRANCH   1   4
BRANCH   1  16
HETATM   16  C   UNL     1      -9.006   9.427  68.488  1.00  0.00    -0.128 C  
HETATM   17  O   UNL     1      -9.146   6.480  66.447  1.00  0.00    -0.149 OA 
HETATM   18  N   UNL     1      -9.330   8.948  69.658  1.00  0.00    -0.160 NA 
HETATM   19  C   UNL     1      -9.692   7.602  69.775  1.00  0.00    -0.171 A  
HETATM   20  N   UNL     1      -8.975   8.631  67.343  1.00  0.00    -0.133 N  
HETATM   21  C   UNL     1      -9.205   7.248  67.407  1.00  0.00    -0.128 C  
HETATM   22  C   UNL     1     -10.162   7.136  71.009  1.00  0.00    -0.205 A  
HETATM   23  C   UNL     1      -9.596   6.707  68.714  1.00  0.00    -0.131 A  
HETATM   24  C   UNL     1     -10.507   5.792  71.185  1.00  0.00    -0.301 A  
HETATM   25  C   UNL     1     -10.365   4.898  70.129  1.00  0.00    -0.253 A  
HETATM   26  F   UNL     1      -9.787   4.466  67.907  1.00  0.00    -0.198 F  
HETATM   27  C   UNL     1      -9.909   5.358  68.899  1.00  0.00    -0.166 A  
BRANCH  20  28
HETATM   28  C   UNL     1      -8.698   9.157  66.044  1.00  0.00    -0.153 A  
HETATM   29  C   UNL     1      -7.393   9.191  65.538  1.00  0.00    -0.089 A  
HETATM   30  C   UNL     1      -7.157   9.658  64.242  1.00  0.00    -0.119 A  
HETATM   31  C   UNL     1      -8.216  10.103  63.452  1.00  0.00    -0.164 A  
HETATM   32  C   UNL     1      -9.509  10.122  63.969  1.00  0.00    -0.341 A  
HETATM   33  C   UNL     1      -9.746   9.673  65.266  1.00  0.00    -0.330 A  
ENDBRANCH  20  28
ENDBRANCH   1  16
TORSDOF 5
ENDMDL
MODEL       96
REMARK 921   NORMALIZED FREE ENERGY PREDICTED BY IDOCK:   -6.44 KCAL/MOL
REMARK 922        TOTAL FREE ENERGY PREDICTED BY IDOCK:   -8.39 KCAL/MOL
REMARK 923 INTER-LIGAND FREE ENERGY PREDICTED BY IDOCK:   -7.21 KCAL/MOL
REMARK 924 INTRA-LIGAND FREE ENERGY PREDICTED BY IDOCK:   -1.18 KCAL/MOL
REMARK 927      BINDING AFFINITY PREDICTED BY RF-SCORE:    0.00 PKD
ROOT
HETATM    1  C   UNL     1     -10.680  11.992  68.076  1.00  0.00    -0.212 C  
ENDROOT
BRANCH   1   2
HETATM    2  C   UNL     1     -11.781  12.224  69.130  1.00  0.00    -0.377 C  
HETATM    3  C   UNL     1     -12.191  13.674  69.330  1.00  0.00    -0.307 C  
ENDBRANCH   1   2
BRANCH   1   4
HETATM    4  N   UNL     1      -9.745  10.979  68.581  1.00  0.00    -0.190 NA 
HETATM    5  H   UNL     1      -9.360  11.092  69.519  1.00  0.00     0.000 HD 
BRANCH   4   6
HETATM    6  C   UNL     1      -9.367   9.881  67.836  1.00  0.00    -0.137 A  
HETATM    7  C   UNL     1      -9.198   7.542  67.406  1.00  0.00    -0.132 A  
HETATM    8  N   UNL     1      -8.482   7.656  66.280  1.00  0.00    -0.131 NA 
HETATM    9  N   UNL     1     -10.376   8.022  69.290  1.00  0.00    -0.218 NA 
HETATM   10  C   UNL     1      -8.252   8.951  66.003  1.00  0.00    -0.117 A  
HETATM   11  C   UNL     1     -10.294   6.710  69.130  1.00  0.00    -0.194 A  
HETATM   12  H   UNL     1     -10.849   8.528  70.039  1.00  0.00     0.000 HD 
HETATM   13  N   UNL     1      -8.637  10.042  66.699  1.00  0.00    -0.125 NA 
HETATM   14  C   UNL     1      -9.680   8.556  68.218  1.00  0.00    -0.155 A  
HETATM   15  N   UNL     1      -9.598   6.379  68.001  1.00  0.00    -0.119 NA 
ENDBRANCH   4   6
ENDBRANCH   1   4
BRANCH   1  16
HETATM   16  C   UNL     1      -9.848  13.288  67.743  1.00  0.00    -0.224 C  
HETATM   17  O   UNL     1      -9.457  15.790  65.200  1.00  0.00    -0.213 OA 
HETATM   18  N   UNL     1      -9.105  13.773  68.700  1.00  0.00    -0.121 NA 
HETATM   19  C   UNL     1      -8.372  14.943  68.478  1.00  0.00    -0.160 A  
HETATM   20  N   UNL     1      -9.964  13.918  66.503  1.00  0.00    -0.277 N  
HETATM   21  C   UNL     1      -9.357  15.157  66.252  1.00  0.00    -0.313 C  
HETATM   22  C   UNL     1      -7.481  15.379  69.466  1.00  0.00    -0.211 A  
HETATM   23  C   UNL     1      -8.498  15.696  67.314  1.00  0.00    -0.214 A  
HETATM   24  C   UNL     1      -6.747  16.558  69.305  1.00  0.00    -0.218 A  
HETATM   25  C   UNL     1      -6.916  17.325  68.156  1.00  0.00    -0.181 A  
HETATM   26  F   UNL     1      -7.924  17.657  66.075  1.00  0.00    -0.287 F  
HETATM   27  C   UNL     1      -7.792  16.891  67.166  1.00  0.00    -0.177 A  
BRANCH  20  28
HETATM   28  C   UNL     1     -10.711  13.359  65.421  1.00  0.00    -0.300 A  
HETATM   29  C   UNL     1     -12.084  13.593  65.289  1.00  0.00    -0.429 A  
HETATM   30  C   UNL     1     -12.780  13.082  64.191  1.00  0.00    -0.203 A  
HETATM   31  C   UNL     1     -12.112  12.327  63.227  1.00  0.00    -0.518 A  
HETATM   32  C   UNL     1     -10.757  12.046  63.379  1.00  0.00    -0.475 A  
HETATM   33  C   UNL     1     -10.065  12.539  64.483  1.00  0.00    -0.273 A  
ENDBRANCH  20  28
ENDBRANCH   1  16
TORSDOF 5
ENDMDL
MODEL       97
REMARK 921   NORMALIZED FREE ENERGY PREDICTED BY IDOCK:   -6.43 KCAL/MOL
REMARK 922        TOTAL FREE ENERGY PREDICTED BY IDOCK:   -8.38 KCAL/MOL
REMARK 923 INTER-LIGAND FREE ENERGY PREDICTED BY IDOCK:   -8.24 KCAL/MOL
REMARK 924 INTRA-LIGAND FREE ENERGY PREDICTED BY IDOCK:   -0.14 KCAL/MOL
REMARK 927      BINDING AFFINITY PREDICTED BY RF-SCORE:    0.00 PKD
ROOT
HETATM    1  C   UNL     1      -8.352  11.551  68.132  1.00  0.00    -0.152 C  
ENDROOT
BRANCH   1   2
HETATM    2  C   UNL     1      -8.027  13.027  68.433  1.00  0.00    -0.135 C  
HETATM    3  C   UNL     1      -7.943  13.934  67.216  1.00  0.00    -0.147 C  
ENDBRANCH   1   2
BRANCH   1   4
HETATM    4  N   UNL     1      -8.844  11.444  66.753  1.00  0.00    -0.172 NA 
HETATM    5  H   UNL     1      -9.405  12.206  66.373  1.00  0.00     0.000 HD 
BRANCH   4   6
HETATM    6  C   UNL     1      -8.577  10.352  65.953  1.00  0.00    -0.158 A  
HETATM    7  C   UNL     1      -8.491   9.196  63.870  1.00  0.00    -0.180 A  
HETATM    8  N   UNL     1      -8.078   8.026  64.373  1.00  0.00    -0.145 NA 
HETATM    9  N   UNL     1      -9.157  11.360  63.664  1.00  0.00    -0.444 NA 
HETATM   10  C   UNL     1      -7.937   8.117  65.707  1.00  0.00    -0.105 A  
HETATM   11  C   UNL     1      -9.163  10.771  62.479  1.00  0.00    -0.303 A  
HETATM   12  H   UNL     1      -9.400  12.327  63.879  1.00  0.00     0.000 HD 
HETATM   13  N   UNL     1      -8.162   9.181  66.507  1.00  0.00    -0.110 NA 
HETATM   14  C   UNL     1      -8.748  10.375  64.549  1.00  0.00    -0.194 A  
HETATM   15  N   UNL     1      -8.761   9.467  62.558  1.00  0.00    -0.221 NA 
ENDBRANCH   4   6
ENDBRANCH   1   4
BRANCH   1  16
HETATM   16  C   UNL     1      -9.454  10.945  69.083  1.00  0.00    -0.089 C  
HETATM   17  O   UNL     1     -13.010  10.871  69.558  1.00  0.00    -0.121 OA 
HETATM   18  N   UNL     1      -9.057  10.059  69.955  1.00  0.00    -0.198 NA 
HETATM   19  C   UNL     1      -9.994   9.459  70.802  1.00  0.00    -0.289 A  
HETATM   20  N   UNL     1     -10.797  11.296  68.940  1.00  0.00    -0.197 N  
HETATM   21  C   UNL     1     -11.805  10.646  69.669  1.00  0.00    -0.286 C  
HETATM   22  C   UNL     1      -9.538   8.609  71.817  1.00  0.00    -0.360 A  
HETATM   23  C   UNL     1     -11.364   9.667  70.670  1.00  0.00    -0.379 A  
HETATM   24  C   UNL     1     -10.436   7.961  72.671  1.00  0.00    -0.384 A  
HETATM   25  C   UNL     1     -11.805   8.143  72.500  1.00  0.00    -0.438 A  
HETATM   26  F   UNL     1     -13.588   9.144  71.370  1.00  0.00    -0.372 F  
HETATM   27  C   UNL     1     -12.263   8.994  71.500  1.00  0.00    -0.335 A  
BRANCH  20  28
HETATM   28  C   UNL     1     -11.236  12.319  68.045  1.00  0.00    -0.269 A  
HETATM   29  C   UNL     1     -11.287  13.660  68.444  1.00  0.00    -0.329 A  
HETATM   30  C   UNL     1     -11.666  14.648  67.532  1.00  0.00    -0.403 A  
HETATM   31  C   UNL     1     -12.005  14.303  66.224  1.00  0.00    -0.428 A  
HETATM   32  C   UNL     1     -12.008  12.966  65.836  1.00  0.00    -0.504 A  
HETATM   33  C   UNL     1     -11.648  11.976  66.748  1.00  0.00    -0.391 A  
ENDBRANCH  20  28
ENDBRANCH   1  16
TORSDOF 5
ENDMDL
MODEL       98
REMARK 921   NORMALIZED FREE ENERGY PREDICTED BY IDOCK:   -6.43 KCAL/MOL
REMARK 922        TOTAL FREE ENERGY PREDICTED BY IDOCK:   -8.37 KCAL/MOL
REMARK 923 INTER-LIGAND FREE ENERGY PREDICTED BY IDOCK:   -7.93 KCAL/MOL
REMARK 924 INTRA-LIGAND FREE ENERGY PREDICTED BY IDOCK:   -0.45 KCAL/MOL
REMARK 927      BINDING AFFINITY PREDICTED BY RF-SCORE:    0.00 PKD
ROOT
HETATM    1  C   UNL     1     -10.295   9.178  68.621  1.00  0.00    -0.209 C  
ENDROOT
BRANCH   1   2
HETATM    2  C   UNL     1      -8.774   9.010  68.808  1.00  0.00    -0.136 C  
HETATM    3  C   UNL     1      -8.358   8.053  69.913  1.00  0.00    -0.121 C  
ENDBRANCH   1   2
BRANCH   1   4
HETATM    4  N   UNL     1     -10.663   8.714  67.278  1.00  0.00    -0.427 NA 
HETATM    5  H   UNL     1     -11.596   8.925  66.925  1.00  0.00     0.000 HD 
BRANCH   4   6
HETATM    6  C   UNL     1      -9.795   8.001  66.476  1.00  0.00    -0.219 A  
HETATM    7  C   UNL     1      -8.748   6.005  65.699  1.00  0.00    -0.137 A  
HETATM    8  N   UNL     1      -7.918   6.605  64.837  1.00  0.00    -0.118 NA 
HETATM    9  N   UNL     1     -10.351   5.623  67.265  1.00  0.00    -0.215 NA 
HETATM   10  C   UNL     1      -8.104   7.937  64.863  1.00  0.00    -0.144 A  
HETATM   11  C   UNL     1      -9.791   4.480  66.904  1.00  0.00    -0.213 A  
HETATM   12  H   UNL     1     -11.102   5.761  67.942  1.00  0.00     0.000 HD 
HETATM   13  N   UNL     1      -8.966   8.653  65.615  1.00  0.00    -0.194 NA 
HETATM   14  C   UNL     1      -9.695   6.592  66.523  1.00  0.00    -0.126 A  
HETATM   15  N   UNL     1      -8.825   4.665  65.955  1.00  0.00    -0.118 NA 
ENDBRANCH   4   6
ENDBRANCH   1   4
BRANCH   1  16
HETATM   16  C   UNL     1     -10.782  10.670  68.763  1.00  0.00    -0.215 C  
HETATM   17  O   UNL     1     -12.449  12.867  71.058  1.00  0.00    -0.371 OA 
HETATM   18  N   UNL     1     -10.394  11.506  67.839  1.00  0.00    -0.179 NA 
HETATM   19  C   UNL     1     -10.764  12.852  67.929  1.00  0.00    -0.220 A  
HETATM   20  N   UNL     1     -11.533  11.079  69.865  1.00  0.00    -0.298 N  
HETATM   21  C   UNL     1     -11.834  12.432  70.084  1.00  0.00    -0.262 C  
HETATM   22  C   UNL     1     -10.451  13.709  66.866  1.00  0.00    -0.272 A  
HETATM   23  C   UNL     1     -11.424  13.375  69.037  1.00  0.00    -0.348 A  
HETATM   24  C   UNL     1     -10.772  15.069  66.921  1.00  0.00    -0.308 A  
HETATM   25  C   UNL     1     -11.392  15.588  68.053  1.00  0.00    -0.332 A  
HETATM   26  F   UNL     1     -12.313  15.277  70.178  1.00  0.00    -0.325 F  
HETATM   27  C   UNL     1     -11.714  14.739  69.107  1.00  0.00    -0.313 A  
BRANCH  20  28
HETATM   28  C   UNL     1     -12.030  10.164  70.842  1.00  0.00    -0.365 A  
HETATM   29  C   UNL     1     -13.404  10.025  71.075  1.00  0.00    -0.334 A  
HETATM   30  C   UNL     1     -13.866   9.081  71.995  1.00  0.00    -0.501 A  
HETATM   31  C   UNL     1     -12.963   8.281  72.694  1.00  0.00    -0.071 A  
HETATM   32  C   UNL     1     -11.594   8.450  72.507  1.00  0.00    -0.426 A  
HETATM   33  C   UNL     1     -11.129   9.403  71.603  1.00  0.00    -0.409 A  
ENDBRANCH  20  28
ENDBRANCH   1  16
TORSDOF 5
ENDMDL
MODEL       99
REMARK 921   NORMALIZED FREE ENERGY PREDICTED BY IDOCK:   -6.41 KCAL/MOL
REMARK 922        TOTAL FREE ENERGY PREDICTED BY IDOCK:   -8.35 KCAL/MOL
REMARK 923 INTER-LIGAND FREE ENERGY PREDICTED BY IDOCK:   -8.14 KCAL/MOL
REMARK 924 INTRA-LIGAND FREE ENERGY PREDICTED BY IDOCK:   -0.21 KCAL/MOL
REMARK 927      BINDING AFFINITY PREDICTED BY RF-SCORE:    0.00 PKD
ROOT
HETATM    1  C   UNL     1      -8.026  15.606  67.883  1.00  0.00    -0.142 C  
ENDROOT
BRANCH   1   2
HETATM    2  C   UNL     1      -6.645  15.848  67.242  1.00  0.00    -0.200 C  
HETATM    3  C   UNL     1      -5.776  16.880  67.944  1.00  0.00    -0.129 C  
ENDBRANCH   1   2
BRANCH   1   4
HETATM    4  N   UNL     1      -7.926  14.474  68.812  1.00  0.00    -0.141 NA 
HETATM    5  H   UNL     1      -8.288  14.584  69.759  1.00  0.00     0.000 HD 
BRANCH   4   6
HETATM    6  C   UNL     1      -7.362  13.267  68.453  1.00  0.00    -0.112 A  
HETATM    7  C   UNL     1      -7.384  10.905  68.131  1.00  0.00    -0.089 A  
HETATM    8  N   UNL     1      -6.099  10.797  67.772  1.00  0.00    -0.047 NA 
HETATM    9  N   UNL     1      -9.398  11.739  68.780  1.00  0.00    -0.388 NA 
HETATM   10  C   UNL     1      -5.511  12.007  67.780  1.00  0.00    -0.069 A  
HETATM   11  C   UNL     1      -9.473  10.423  68.652  1.00  0.00    -0.167 A  
HETATM   12  H   UNL     1     -10.143  12.380  69.050  1.00  0.00     0.000 HD 
HETATM   13  N   UNL     1      -6.050  13.203  68.097  1.00  0.00    -0.090 NA 
HETATM   14  C   UNL     1      -8.085  12.052  68.467  1.00  0.00    -0.123 A  
HETATM   15  N   UNL     1      -8.282   9.882  68.255  1.00  0.00    -0.108 NA 
ENDBRANCH   4   6
ENDBRANCH   1   4
BRANCH   1  16
HETATM   16  C   UNL     1      -9.152  15.267  66.833  1.00  0.00    -0.240 C  
HETATM   17  O   UNL     1     -11.389  16.848  64.515  1.00  0.00    -1.006 OA 
HETATM   18  N   UNL     1      -9.327  14.007  66.544  1.00  0.00    -0.276 NA 
HETATM   19  C   UNL     1     -10.287  13.645  65.593  1.00  0.00    -0.300 A  
HETATM   20  N   UNL     1      -9.871  16.280  66.199  1.00  0.00    -0.312 N  
HETATM   21  C   UNL     1     -10.760  16.001  65.149  1.00  0.00    -0.409 C  
HETATM   22  C   UNL     1     -10.554  12.286  65.388  1.00  0.00    -0.309 A  
HETATM   23  C   UNL     1     -10.982  14.584  64.836  1.00  0.00    -0.421 A  
HETATM   24  C   UNL     1     -11.482  11.872  64.427  1.00  0.00    -0.393 A  
HETATM   25  C   UNL     1     -12.138  12.819  63.647  1.00  0.00    -0.624 A  
HETATM   26  F   UNL     1     -12.536  15.051  63.083  1.00  0.00     0.397 F  
HETATM   27  C   UNL     1     -11.883  14.171  63.853  1.00  0.00    -0.177 A  
BRANCH  20  28
HETATM   28  C   UNL     1      -9.746  17.657  66.560  1.00  0.00    -0.304 A  
HETATM   29  C   UNL     1      -8.725  18.456  66.032  1.00  0.00     0.004 A  
HETATM   30  C   UNL     1      -8.659  19.813  66.357  1.00  0.00    -0.398 A  
HETATM   31  C   UNL     1      -9.603  20.376  67.216  1.00  0.00    -0.592 A  
HETATM   32  C   UNL     1     -10.589  19.576  67.786  1.00  0.00    -0.542 A  
HETATM   33  C   UNL     1     -10.647  18.218  67.478  1.00  0.00    -0.432 A  
ENDBRANCH  20  28
ENDBRANCH   1  16
TORSDOF 5
ENDMDL
MODEL      100
REMARK 921   NORMALIZED FREE ENERGY PREDICTED BY IDOCK:   -6.37 KCAL/MOL
REMARK 922        TOTAL FREE ENERGY PREDICTED BY IDOCK:   -8.30 KCAL/MOL
REMARK 923 INTER-LIGAND FREE ENERGY PREDICTED BY IDOCK:   -7.18 KCAL/MOL
REMARK 924 INTRA-LIGAND FREE ENERGY PREDICTED BY IDOCK:   -1.12 KCAL/MOL
REMARK 927      BINDING AFFINITY PREDICTED BY RF-SCORE:    0.00 PKD
ROOT
HETATM    1  C   UNL     1     -11.103   8.767  70.310  1.00  0.00    -0.222 C  
ENDROOT
BRANCH   1   2
HETATM    2  C   UNL     1     -12.389   8.592  71.141  1.00  0.00    -0.243 C  
HETATM    3  C   UNL     1     -12.941   9.867  71.759  1.00  0.00    -0.549 C  
ENDBRANCH   1   2
BRANCH   1   4
HETATM    4  N   UNL     1     -11.394   9.632  69.160  1.00  0.00    -0.454 NA 
HETATM    5  H   UNL     1     -12.283   9.517  68.674  1.00  0.00     0.000 HD 
BRANCH   4   6
HETATM    6  C   UNL     1     -10.511  10.594  68.713  1.00  0.00    -0.194 A  
HETATM    7  C   UNL     1      -9.916  12.542  67.476  1.00  0.00    -0.201 A  
HETATM    8  N   UNL     1      -8.609  12.500  67.763  1.00  0.00    -0.166 NA 
HETATM    9  N   UNL     1     -12.136  12.065  67.378  1.00  0.00    -0.520 NA 
HETATM   10  C   UNL     1      -8.340  11.445  68.552  1.00  0.00    -0.153 A  
HETATM   11  C   UNL     1     -11.872  13.135  66.645  1.00  0.00    -0.391 A  
HETATM   12  H   UNL     1     -13.044  11.623  67.528  1.00  0.00     0.000 HD 
HETATM   13  N   UNL     1      -9.190  10.510  69.027  1.00  0.00    -0.183 NA 
HETATM   14  C   UNL     1     -10.912  11.675  67.895  1.00  0.00    -0.225 A  
HETATM   15  N   UNL     1     -10.545  13.461  66.683  1.00  0.00    -0.280 NA 
ENDBRANCH   4   6
ENDBRANCH   1   4
BRANCH   1  16
HETATM   16  C   UNL     1     -10.526   7.410  69.756  1.00  0.00    -0.229 C  
HETATM   17  O   UNL     1      -8.718   4.495  70.809  1.00  0.00    -0.089 OA 
HETATM   18  N   UNL     1     -10.869   7.077  68.541  1.00  0.00    -0.174 NA 
HETATM   19  C   UNL     1     -10.419   5.866  68.005  1.00  0.00    -0.234 A  
HETATM   20  N   UNL     1      -9.746   6.578  70.560  1.00  0.00    -0.172 N  
HETATM   21  C   UNL     1      -9.364   5.297  70.134  1.00  0.00    -0.153 C  
HETATM   22  C   UNL     1     -10.686   5.584  66.660  1.00  0.00    -0.332 A  
HETATM   23  C   UNL     1      -9.723   4.927  68.760  1.00  0.00    -0.232 A  
HETATM   24  C   UNL     1     -10.284   4.374  66.085  1.00  0.00    -0.232 A  
HETATM   25  C   UNL     1      -9.628   3.424  66.862  1.00  0.00    -0.106 A  
HETATM   26  F   UNL     1      -8.716   2.765  68.910  1.00  0.00    -0.084 F  
HETATM   27  C   UNL     1      -9.351   3.704  68.196  1.00  0.00    -0.180 A  
BRANCH  20  28
HETATM   28  C   UNL     1      -9.299   6.962  71.861  1.00  0.00    -0.141 A  
HETATM   29  C   UNL     1      -8.079   7.624  72.043  1.00  0.00    -0.115 A  
HETATM   30  C   UNL     1      -7.692   8.039  73.320  1.00  0.00    -0.205 A  
HETATM   31  C   UNL     1      -8.513   7.787  74.419  1.00  0.00    -0.251 A  
HETATM   32  C   UNL     1      -9.702   7.083  74.252  1.00  0.00    -0.263 A  
HETATM   33  C   UNL     1     -10.082   6.651  72.983  1.00  0.00    -0.204 A  
ENDBRANCH  20  28
ENDBRANCH   1  16
TORSDOF 5
ENDMDL
MODEL      101
REMARK 921   NORMALIZED FREE ENERGY PREDICTED BY IDOCK:   -6.36 KCAL/MOL
REMARK 922        TOTAL FREE ENERGY PREDICTED BY IDOCK:   -8.28 KCAL/MOL
REMARK 923 INTER-LIGAND FREE ENERGY PREDICTED BY IDOCK:   -7.94 KCAL/MOL
REMARK 924 INTRA-LIGAND FREE ENERGY PREDICTED BY IDOCK:   -0.34 KCAL/MOL
REMARK 927      BINDING AFFINITY PREDICTED BY RF-SCORE:    0.00 PKD
ROOT
HETATM    1  C   UNL     1      -8.317  15.335  67.935  1.00  0.00    -0.148 C  
ENDROOT
BRANCH   1   2
HETATM    2  C   UNL     1      -6.856  15.034  67.544  1.00  0.00    -0.197 C  
HETATM    3  C   UNL     1      -6.041  16.238  67.102  1.00  0.00    -0.148 C  
ENDBRANCH   1   2
BRANCH   1   4
HETATM    4  N   UNL     1      -8.663  14.548  69.125  1.00  0.00    -0.373 NA 
HETATM    5  H   UNL     1      -7.947  14.395  69.836  1.00  0.00     0.000 HD 
BRANCH   4   6
HETATM    6  C   UNL     1      -9.917  14.007  69.318  1.00  0.00     0.192 A  
HETATM    7  C   UNL     1     -12.162  14.040  70.120  1.00  0.00    -0.359 A  
HETATM    8  N   UNL     1     -12.464  12.789  69.751  1.00  0.00     0.006 NA 
HETATM    9  N   UNL     1     -11.059  15.997  70.468  1.00  0.00    -0.360 NA 
HETATM   10  C   UNL     1     -11.405  12.211  69.157  1.00  0.00    -0.276 A  
HETATM   11  C   UNL     1     -12.283  16.074  70.965  1.00  0.00    -0.285 A  
HETATM   12  H   UNL     1     -10.341  16.722  70.470  1.00  0.00     0.000 HD 
HETATM   13  N   UNL     1     -10.180  12.729  68.930  1.00  0.00    -0.063 NA 
HETATM   14  C   UNL     1     -10.966  14.718  69.945  1.00  0.00    -0.199 A  
HETATM   15  N   UNL     1     -12.985  14.917  70.770  1.00  0.00    -0.368 NA 
ENDBRANCH   4   6
ENDBRANCH   1   4
BRANCH   1  16
HETATM   16  C   UNL     1      -9.354  14.975  66.804  1.00  0.00    -0.251 C  
HETATM   17  O   UNL     1     -11.479  16.516  64.358  1.00  0.00    -0.873 OA 
HETATM   18  N   UNL     1      -9.463  13.714  66.484  1.00  0.00    -0.272 NA 
HETATM   19  C   UNL     1     -10.340  13.336  65.463  1.00  0.00    -0.291 A  
HETATM   20  N   UNL     1     -10.064  15.973  66.135  1.00  0.00    -0.305 N  
HETATM   21  C   UNL     1     -10.866  15.681  65.022  1.00  0.00    -0.450 C  
HETATM   22  C   UNL     1     -10.543  11.972  65.220  1.00  0.00    -0.328 A  
HETATM   23  C   UNL     1     -11.014  14.263  64.673  1.00  0.00    -0.379 A  
HETATM   24  C   UNL     1     -11.386  11.542  64.190  1.00  0.00    -0.349 A  
HETATM   25  C   UNL     1     -12.019  12.479  63.379  1.00  0.00    -0.602 A  
HETATM   26  F   UNL     1     -12.458  14.705  62.821  1.00  0.00     0.597 F  
HETATM   27  C   UNL     1     -11.829  13.835  63.623  1.00  0.00    -0.173 A  
BRANCH  20  28
HETATM   28  C   UNL     1     -10.014  17.347  66.524  1.00  0.00    -0.311 A  
HETATM   29  C   UNL     1      -9.067  18.222  65.980  1.00  0.00     0.006 A  
HETATM   30  C   UNL     1      -9.076  19.573  66.335  1.00  0.00    -0.417 A  
HETATM   31  C   UNL     1     -10.021  20.054  67.239  1.00  0.00    -0.574 A  
HETATM   32  C   UNL     1     -10.933  19.180  67.825  1.00  0.00    -0.297 A  
HETATM   33  C   UNL     1     -10.915  17.828  67.487  1.00  0.00    -0.091 A  
ENDBRANCH  20  28
ENDBRANCH   1  16
TORSDOF 5
ENDMDL
MODEL      102
REMARK 921   NORMALIZED FREE ENERGY PREDICTED BY IDOCK:   -6.36 KCAL/MOL
REMARK 922        TOTAL FREE ENERGY PREDICTED BY IDOCK:   -8.28 KCAL/MOL
REMARK 923 INTER-LIGAND FREE ENERGY PREDICTED BY IDOCK:   -8.07 KCAL/MOL
REMARK 924 INTRA-LIGAND FREE ENERGY PREDICTED BY IDOCK:   -0.22 KCAL/MOL
REMARK 927      BINDING AFFINITY PREDICTED BY RF-SCORE:    0.00 PKD
ROOT
HETATM    1  C   UNL     1      -8.501  11.022  68.117  1.00  0.00    -0.135 C  
ENDROOT
BRANCH   1   2
HETATM    2  C   UNL     1      -8.353  12.555  68.039  1.00  0.00    -0.171 C  
HETATM    3  C   UNL     1      -7.096  13.051  67.344  1.00  0.00    -0.124 C  
ENDBRANCH   1   2
BRANCH   1   4
HETATM    4  N   UNL     1      -8.953  10.522  66.813  1.00  0.00    -0.137 NA 
HETATM    5  H   UNL     1      -9.483  11.147  66.205  1.00  0.00     0.000 HD 
BRANCH   4   6
HETATM    6  C   UNL     1      -8.689   9.239  66.378  1.00  0.00    -0.132 A  
HETATM    7  C   UNL     1      -9.123   6.900  66.224  1.00  0.00    -0.141 A  
HETATM    8  N   UNL     1      -8.033   6.600  65.506  1.00  0.00    -0.111 NA 
HETATM    9  N   UNL     1     -10.715   8.030  67.388  1.00  0.00    -0.489 NA 
HETATM   10  C   UNL     1      -7.315   7.710  65.265  1.00  0.00    -0.071 A  
HETATM   11  C   UNL     1     -11.001   6.738  67.370  1.00  0.00    -0.337 A  
HETATM   12  H   UNL     1     -11.251   8.779  67.827  1.00  0.00     0.000 HD 
HETATM   13  N   UNL     1      -7.568   8.978  65.653  1.00  0.00    -0.086 NA 
HETATM   14  C   UNL     1      -9.529   8.143  66.681  1.00  0.00    -0.213 A  
HETATM   15  N   UNL     1     -10.069   6.021  66.672  1.00  0.00    -0.178 NA 
ENDBRANCH   4   6
ENDBRANCH   1   4
BRANCH   1  16
HETATM   16  C   UNL     1      -9.542  10.547  69.200  1.00  0.00    -0.199 C  
HETATM   17  O   UNL     1     -13.002  10.873  70.093  1.00  0.00    -0.183 OA 
HETATM   18  N   UNL     1      -9.145   9.625  70.034  1.00  0.00    -0.225 NA 
HETATM   19  C   UNL     1     -10.035   9.136  70.995  1.00  0.00    -0.297 A  
HETATM   20  N   UNL     1     -10.845  11.046  69.211  1.00  0.00    -0.230 N  
HETATM   21  C   UNL     1     -11.825  10.515  70.064  1.00  0.00    -0.308 C  
HETATM   22  C   UNL     1      -9.558   8.244  71.964  1.00  0.00    -0.316 A  
HETATM   23  C   UNL     1     -11.379   9.496  71.023  1.00  0.00    -0.423 A  
HETATM   24  C   UNL     1     -10.415   7.703  72.928  1.00  0.00    -0.394 A  
HETATM   25  C   UNL     1     -11.766   8.037  72.917  1.00  0.00    -0.222 A  
HETATM   26  F   UNL     1     -13.549   9.227  71.988  1.00  0.00    -0.374 F  
HETATM   27  C   UNL     1     -12.242   8.930  71.964  1.00  0.00    -0.377 A  
BRANCH  20  28
HETATM   28  C   UNL     1     -11.272  12.108  68.358  1.00  0.00    -0.265 A  
HETATM   29  C   UNL     1     -11.317  13.431  68.812  1.00  0.00    -0.332 A  
HETATM   30  C   UNL     1     -11.683  14.460  67.940  1.00  0.00    -0.388 A  
HETATM   31  C   UNL     1     -12.015  14.173  66.617  1.00  0.00    -0.470 A  
HETATM   32  C   UNL     1     -12.024  12.853  66.172  1.00  0.00    -0.491 A  
HETATM   33  C   UNL     1     -11.676  11.824  67.044  1.00  0.00    -0.247 A  
ENDBRANCH  20  28
ENDBRANCH   1  16
TORSDOF 5
ENDMDL
MODEL      103
REMARK 921   NORMALIZED FREE ENERGY PREDICTED BY IDOCK:   -6.35 KCAL/MOL
REMARK 922        TOTAL FREE ENERGY PREDICTED BY IDOCK:   -8.27 KCAL/MOL
REMARK 923 INTER-LIGAND FREE ENERGY PREDICTED BY IDOCK:   -8.23 KCAL/MOL
REMARK 924 INTRA-LIGAND FREE ENERGY PREDICTED BY IDOCK:   -0.04 KCAL/MOL
REMARK 927      BINDING AFFINITY PREDICTED BY RF-SCORE:    0.00 PKD
ROOT
HETATM    1  C   UNL     1      -9.413  10.543  69.198  1.00  0.00    -0.191 C  
ENDROOT
BRANCH   1   2
HETATM    2  C   UNL     1      -8.085   9.764  69.118  1.00  0.00    -0.107 C  
HETATM    3  C   UNL     1      -7.863   8.746  70.225  1.00  0.00    -0.095 C  
ENDBRANCH   1   2
BRANCH   1   4
HETATM    4  N   UNL     1     -10.500   9.601  69.489  1.00  0.00    -0.211 NA 
HETATM    5  H   UNL     1     -10.503   8.696  69.018  1.00  0.00     0.000 HD 
BRANCH   4   6
HETATM    6  C   UNL     1     -11.518   9.892  70.374  1.00  0.00    -0.301 A  
HETATM    7  C   UNL     1     -13.356   9.328  71.783  1.00  0.00    -0.409 A  
HETATM    8  N   UNL     1     -13.655  10.583  72.139  1.00  0.00    -0.209 NA 
HETATM    9  N   UNL     1     -12.365   7.514  70.835  1.00  0.00    -0.515 NA 
HETATM   10  C   UNL     1     -12.809  11.447  71.549  1.00  0.00    -0.403 A  
HETATM   11  C   UNL     1     -13.394   7.131  71.575  1.00  0.00    -0.344 A  
HETATM   12  H   UNL     1     -11.731   6.921  70.299  1.00  0.00     0.000 HD 
HETATM   13  N   UNL     1     -11.789  11.184  70.705  1.00  0.00    -0.290 NA 
HETATM   14  C   UNL     1     -12.339   8.895  70.948  1.00  0.00    -0.090 A  
HETATM   15  N   UNL     1     -14.014   8.194  72.171  1.00  0.00    -0.305 NA 
ENDBRANCH   4   6
ENDBRANCH   1   4
BRANCH   1  16
HETATM   16  C   UNL     1      -9.777  11.299  67.864  1.00  0.00    -0.177 C  
HETATM   17  O   UNL     1     -10.630  10.676  64.435  1.00  0.00    -0.308 OA 
HETATM   18  N   UNL     1      -9.983  12.585  67.953  1.00  0.00    -0.206 NA 
HETATM   19  C   UNL     1     -10.345  13.305  66.810  1.00  0.00    -0.257 A  
HETATM   20  N   UNL     1      -9.939  10.603  66.665  1.00  0.00    -0.205 N  
HETATM   21  C   UNL     1     -10.419  11.237  65.510  1.00  0.00    -0.265 C  
HETATM   22  C   UNL     1     -10.435  14.700  66.893  1.00  0.00    -0.270 A  
HETATM   23  C   UNL     1     -10.627  12.688  65.595  1.00  0.00    -0.299 A  
HETATM   24  C   UNL     1     -10.823  15.462  65.786  1.00  0.00    -0.349 A  
HETATM   25  C   UNL     1     -11.145  14.830  64.590  1.00  0.00    -0.337 A  
HETATM   26  F   UNL     1     -11.365  12.875  63.329  1.00  0.00    -0.499 F  
HETATM   27  C   UNL     1     -11.047  13.446  64.499  1.00  0.00    -0.380 A  
BRANCH  20  28
HETATM   28  C   UNL     1      -9.642   9.212  66.535  1.00  0.00    -0.227 A  
HETATM   29  C   UNL     1     -10.574   8.234  66.902  1.00  0.00    -0.302 A  
HETATM   30  C   UNL     1     -10.281   6.881  66.711  1.00  0.00    -0.276 A  
HETATM   31  C   UNL     1      -9.057   6.498  66.166  1.00  0.00    -0.146 A  
HETATM   32  C   UNL     1      -8.104   7.463  65.848  1.00  0.00    -0.128 A  
HETATM   33  C   UNL     1      -8.386   8.812  66.054  1.00  0.00    -0.130 A  
ENDBRANCH  20  28
ENDBRANCH   1  16
TORSDOF 5
ENDMDL
MODEL      104
REMARK 921   NORMALIZED FREE ENERGY PREDICTED BY IDOCK:   -6.33 KCAL/MOL
REMARK 922        TOTAL FREE ENERGY PREDICTED BY IDOCK:   -8.25 KCAL/MOL
REMARK 923 INTER-LIGAND FREE ENERGY PREDICTED BY IDOCK:   -6.90 KCAL/MOL
REMARK 924 INTRA-LIGAND FREE ENERGY PREDICTED BY IDOCK:   -1.35 KCAL/MOL
REMARK 927      BINDING AFFINITY PREDICTED BY RF-SCORE:    0.00 PKD
ROOT
HETATM    1  C   UNL     1     -10.001   9.827  70.200  1.00  0.00    -0.263 C  
ENDROOT
BRANCH   1   2
HETATM    2  C   UNL     1     -11.479  10.248  70.082  1.00  0.00    -0.383 C  
HETATM    3  C   UNL     1     -12.288  10.140  71.364  1.00  0.00    -0.515 C  
ENDBRANCH   1   2
BRANCH   1   4
HETATM    4  N   UNL     1      -9.183  10.731  69.382  1.00  0.00    -0.410 NA 
HETATM    5  H   UNL     1      -8.177  10.766  69.547  1.00  0.00     0.000 HD 
BRANCH   4   6
HETATM    6  C   UNL     1      -9.722  11.536  68.400  1.00  0.00    -0.202 A  
HETATM    7  C   UNL     1     -10.417  12.019  66.171  1.00  0.00    -0.236 A  
HETATM    8  N   UNL     1     -10.774  13.288  66.405  1.00  0.00    -0.283 NA 
HETATM    9  N   UNL     1      -9.667   9.889  66.432  1.00  0.00    -0.198 NA 
HETATM   10  C   UNL     1     -10.566  13.600  67.696  1.00  0.00    -0.241 A  
HETATM   11  C   UNL     1     -10.004  10.097  65.169  1.00  0.00    -0.309 A  
HETATM   12  H   UNL     1      -9.307   9.028  66.845  1.00  0.00     0.000 HD 
HETATM   13  N   UNL     1     -10.069  12.822  68.681  1.00  0.00    -0.175 NA 
HETATM   14  C   UNL     1      -9.911  11.094  67.070  1.00  0.00    -0.185 A  
HETATM   15  N   UNL     1     -10.468  11.368  64.971  1.00  0.00    -0.290 NA 
ENDBRANCH   4   6
ENDBRANCH   1   4
BRANCH   1  16
HETATM   16  C   UNL     1      -9.728   8.355  69.707  1.00  0.00    -0.180 C  
HETATM   17  O   UNL     1      -8.248   5.269  70.784  1.00  0.00    -0.105 OA 
HETATM   18  N   UNL     1     -10.295   7.994  68.588  1.00  0.00    -0.207 NA 
HETATM   19  C   UNL     1     -10.120   6.689  68.117  1.00  0.00    -0.158 A  
HETATM   20  N   UNL     1      -8.972   7.469  70.475  1.00  0.00    -0.151 N  
HETATM   21  C   UNL     1      -8.857   6.114  70.128  1.00  0.00    -0.144 C  
HETATM   22  C   UNL     1     -10.626   6.355  66.854  1.00  0.00    -0.379 A  
HETATM   23  C   UNL     1      -9.470   5.707  68.858  1.00  0.00    -0.157 A  
HETATM   24  C   UNL     1     -10.503   5.056  66.352  1.00  0.00    -0.349 A  
HETATM   25  C   UNL     1      -9.891   4.072  67.121  1.00  0.00    -0.144 A  
HETATM   26  F   UNL     1      -8.793   3.426  69.080  1.00  0.00    -0.104 F  
HETATM   27  C   UNL     1      -9.378   4.401  68.371  1.00  0.00    -0.147 A  
BRANCH  20  28
HETATM   28  C   UNL     1      -8.281   7.870  71.659  1.00  0.00    -0.115 A  
HETATM   29  C   UNL     1      -8.947   7.976  72.886  1.00  0.00    -0.304 A  
HETATM   30  C   UNL     1      -8.236   8.315  74.041  1.00  0.00    -0.271 A  
HETATM   31  C   UNL     1      -6.865   8.559  73.975  1.00  0.00    -0.133 A  
HETATM   32  C   UNL     1      -6.207   8.507  72.749  1.00  0.00    -0.088 A  
HETATM   33  C   UNL     1      -6.916   8.187  71.593  1.00  0.00    -0.072 A  
ENDBRANCH  20  28
ENDBRANCH   1  16
TORSDOF 5
ENDMDL
MODEL      105
REMARK 921   NORMALIZED FREE ENERGY PREDICTED BY IDOCK:   -6.33 KCAL/MOL
REMARK 922        TOTAL FREE ENERGY PREDICTED BY IDOCK:   -8.25 KCAL/MOL
REMARK 923 INTER-LIGAND FREE ENERGY PREDICTED BY IDOCK:   -8.03 KCAL/MOL
REMARK 924 INTRA-LIGAND FREE ENERGY PREDICTED BY IDOCK:   -0.22 KCAL/MOL
REMARK 927      BINDING AFFINITY PREDICTED BY RF-SCORE:    0.00 PKD
ROOT
HETATM    1  C   UNL     1     -11.394  14.107  68.251  1.00  0.00    -0.291 C  
ENDROOT
BRANCH   1   2
HETATM    2  C   UNL     1     -11.281  15.405  67.427  1.00  0.00    -0.287 C  
HETATM    3  C   UNL     1     -11.313  16.692  68.236  1.00  0.00    -0.121 C  
ENDBRANCH   1   2
BRANCH   1   4
HETATM    4  N   UNL     1     -11.089  14.409  69.656  1.00  0.00    -0.365 NA 
HETATM    5  H   UNL     1     -10.254  14.953  69.870  1.00  0.00     0.000 HD 
BRANCH   4   6
HETATM    6  C   UNL     1     -11.889  13.982  70.696  1.00  0.00    -0.239 A  
HETATM    7  C   UNL     1     -12.990  14.242  72.794  1.00  0.00    -0.453 A  
HETATM    8  N   UNL     1     -13.487  13.001  72.850  1.00  0.00    -0.358 NA 
HETATM    9  N   UNL     1     -11.907  16.122  72.114  1.00  0.00    -0.518 NA 
HETATM   10  C   UNL     1     -13.125  12.306  71.757  1.00  0.00    -0.344 A  
HETATM   11  C   UNL     1     -12.466  16.326  73.296  1.00  0.00    -0.489 A  
HETATM   12  H   UNL     1     -11.364  16.785  71.560  1.00  0.00     0.000 HD 
HETATM   13  N   UNL     1     -12.371  12.710  70.714  1.00  0.00    -0.353 NA 
HETATM   14  C   UNL     1     -12.219  14.811  71.793  1.00  0.00    -0.347 A  
HETATM   15  N   UNL     1     -13.136  15.219  73.739  1.00  0.00    -0.434 NA 
ENDBRANCH   4   6
ENDBRANCH   1   4
BRANCH   1  16
HETATM   16  C   UNL     1     -10.403  12.977  67.778  1.00  0.00    -0.226 C  
HETATM   17  O   UNL     1      -6.905  12.335  67.304  1.00  0.00    -0.141 OA 
HETATM   18  N   UNL     1     -10.913  11.792  67.581  1.00  0.00    -0.219 NA 
HETATM   19  C   UNL     1     -10.078  10.738  67.195  1.00  0.00    -0.204 A  
HETATM   20  N   UNL     1      -9.037  13.227  67.647  1.00  0.00    -0.193 N  
HETATM   21  C   UNL     1      -8.125  12.194  67.384  1.00  0.00    -0.171 C  
HETATM   22  C   UNL     1     -10.657   9.507  66.863  1.00  0.00    -0.241 A  
HETATM   23  C   UNL     1      -8.694  10.863  67.136  1.00  0.00    -0.132 A  
HETATM   24  C   UNL     1      -9.864   8.414  66.500  1.00  0.00    -0.338 A  
HETATM   25  C   UNL     1      -8.478   8.539  66.488  1.00  0.00    -0.119 A  
HETATM   26  F   UNL     1      -6.562   9.843  66.782  1.00  0.00    -0.067 F  
HETATM   27  C   UNL     1      -7.899   9.763  66.807  1.00  0.00    -0.102 A  
BRANCH  20  28
HETATM   28  C   UNL     1      -8.476  14.534  67.783  1.00  0.00    -0.174 A  
HETATM   29  C   UNL     1      -8.341  15.384  66.679  1.00  0.00    -0.255 A  
HETATM   30  C   UNL     1      -7.842  16.679  66.849  1.00  0.00    -0.261 A  
HETATM   31  C   UNL     1      -7.466  17.125  68.115  1.00  0.00    -0.205 A  
HETATM   32  C   UNL     1      -7.547  16.266  69.208  1.00  0.00    -0.203 A  
HETATM   33  C   UNL     1      -8.027  14.970  69.039  1.00  0.00    -0.180 A  
ENDBRANCH  20  28
ENDBRANCH   1  16
TORSDOF 5
ENDMDL
MODEL      106
REMARK 921   NORMALIZED FREE ENERGY PREDICTED BY IDOCK:   -6.29 KCAL/MOL
REMARK 922        TOTAL FREE ENERGY PREDICTED BY IDOCK:   -8.20 KCAL/MOL
REMARK 923 INTER-LIGAND FREE ENERGY PREDICTED BY IDOCK:   -6.76 KCAL/MOL
REMARK 924 INTRA-LIGAND FREE ENERGY PREDICTED BY IDOCK:   -1.44 KCAL/MOL
REMARK 927      BINDING AFFINITY PREDICTED BY RF-SCORE:    0.00 PKD
ROOT
HETATM    1  C   UNL     1      -8.496   8.098  71.241  1.00  0.00    -0.132 C  
ENDROOT
BRANCH   1   2
HETATM    2  C   UNL     1      -7.081   8.230  71.837  1.00  0.00    -0.095 C  
HETATM    3  C   UNL     1      -7.014   8.230  73.356  1.00  0.00    -0.148 C  
ENDBRANCH   1   2
BRANCH   1   4
HETATM    4  N   UNL     1      -9.463   8.679  72.181  1.00  0.00    -0.305 NA 
HETATM    5  H   UNL     1      -9.182   8.815  73.152  1.00  0.00     0.000 HD 
BRANCH   4   6
HETATM    6  C   UNL     1     -10.738   9.046  71.801  1.00  0.00    -0.367 A  
HETATM    7  C   UNL     1     -12.314  10.272  70.498  1.00  0.00    -0.284 A  
HETATM    8  N   UNL     1     -13.404   9.817  71.127  1.00  0.00    -0.349 NA 
HETATM    9  N   UNL     1     -10.159  10.636  69.872  1.00  0.00    -0.427 NA 
HETATM   10  C   UNL     1     -13.055   8.959  72.102  1.00  0.00    -0.421 A  
HETATM   11  C   UNL     1     -10.974  11.370  69.131  1.00  0.00    -0.236 A  
HETATM   12  H   UNL     1      -9.141  10.587  69.813  1.00  0.00     0.000 HD 
HETATM   13  N   UNL     1     -11.819   8.562  72.471  1.00  0.00    -0.368 NA 
HETATM   14  C   UNL     1     -10.989   9.950  70.744  1.00  0.00    -0.337 A  
HETATM   15  N   UNL     1     -12.284  11.174  69.472  1.00  0.00    -0.311 NA 
ENDBRANCH   4   6
ENDBRANCH   1   4
BRANCH   1  16
HETATM   16  C   UNL     1      -8.926   6.606  70.971  1.00  0.00    -0.146 C  
HETATM   17  O   UNL     1      -9.574   4.320  68.283  1.00  0.00    -0.154 OA 
HETATM   18  N   UNL     1      -8.972   5.811  72.005  1.00  0.00    -0.138 NA 
HETATM   19  C   UNL     1      -9.311   4.466  71.824  1.00  0.00    -0.140 A  
HETATM   20  N   UNL     1      -9.173   6.153  69.675  1.00  0.00    -0.142 N  
HETATM   21  C   UNL     1      -9.397   4.794  69.405  1.00  0.00    -0.134 C  
HETATM   22  C   UNL     1      -9.483   3.657  72.954  1.00  0.00    -0.154 A  
HETATM   23  C   UNL     1      -9.477   3.898  70.564  1.00  0.00    -0.251 A  
HETATM   24  C   UNL     1      -9.793   2.299  72.826  1.00  0.00    -0.184 A  
HETATM   25  C   UNL     1      -9.912   1.734  71.561  1.00  0.00    -0.179 A  
HETATM   26  F   UNL     1      -9.877   1.954  69.235  1.00  0.00    -0.146 F  
HETATM   27  C   UNL     1      -9.752   2.535  70.435  1.00  0.00     0.047 A  
BRANCH  20  28
HETATM   28  C   UNL     1      -9.203   7.026  68.545  1.00  0.00    -0.137 A  
HETATM   29  C   UNL     1      -8.023   7.440  67.916  1.00  0.00    -0.119 A  
HETATM   30  C   UNL     1      -8.082   8.249  66.778  1.00  0.00    -0.103 A  
HETATM   31  C   UNL     1      -9.315   8.656  66.270  1.00  0.00    -0.282 A  
HETATM   32  C   UNL     1     -10.490   8.292  66.921  1.00  0.00    -0.365 A  
HETATM   33  C   UNL     1     -10.434   7.501  68.066  1.00  0.00    -0.253 A  
ENDBRANCH  20  28
ENDBRANCH   1  16
TORSDOF 5
ENDMDL
MODEL      107
REMARK 921   NORMALIZED FREE ENERGY PREDICTED BY IDOCK:   -6.28 KCAL/MOL
REMARK 922        TOTAL FREE ENERGY PREDICTED BY IDOCK:   -8.19 KCAL/MOL
REMARK 923 INTER-LIGAND FREE ENERGY PREDICTED BY IDOCK:   -7.27 KCAL/MOL
REMARK 924 INTRA-LIGAND FREE ENERGY PREDICTED BY IDOCK:   -0.92 KCAL/MOL
REMARK 927      BINDING AFFINITY PREDICTED BY RF-SCORE:    0.00 PKD
ROOT
HETATM    1  C   UNL     1      -9.677  10.243  68.544  1.00  0.00    -0.161 C  
ENDROOT
BRANCH   1   2
HETATM    2  C   UNL     1      -8.529  11.120  68.004  1.00  0.00    -0.135 C  
HETATM    3  C   UNL     1      -7.346  11.289  68.943  1.00  0.00    -0.115 C  
ENDBRANCH   1   2
BRANCH   1   4
HETATM    4  N   UNL     1     -10.360   9.605  67.411  1.00  0.00    -0.231 NA 
HETATM    5  H   UNL     1     -11.030  10.153  66.872  1.00  0.00     0.000 HD 
BRANCH   4   6
HETATM    6  C   UNL     1     -10.130   8.294  67.049  1.00  0.00    -0.283 A  
HETATM    7  C   UNL     1      -9.034   6.575  65.815  1.00  0.00    -0.039 A  
HETATM    8  N   UNL     1      -9.769   5.564  66.293  1.00  0.00    -0.158 NA 
HETATM    9  N   UNL     1      -8.182   8.645  65.416  1.00  0.00    -0.127 NA 
HETATM   10  C   UNL     1     -10.682   6.025  67.166  1.00  0.00    -0.330 A  
HETATM   11  C   UNL     1      -7.551   7.747  64.676  1.00  0.00    -0.113 A  
HETATM   12  H   UNL     1      -8.011   9.650  65.454  1.00  0.00     0.000 HD 
HETATM   13  N   UNL     1     -10.905   7.297  67.558  1.00  0.00    -0.239 NA 
HETATM   14  C   UNL     1      -9.125   7.921  66.127  1.00  0.00    -0.163 A  
HETATM   15  N   UNL     1      -8.029   6.484  64.892  1.00  0.00    -0.121 NA 
ENDBRANCH   4   6
ENDBRANCH   1   4
BRANCH   1  16
HETATM   16  C   UNL     1     -10.754  11.054  69.359  1.00  0.00    -0.205 C  
HETATM   17  O   UNL     1     -12.923  10.760  72.202  1.00  0.00    -0.424 OA 
HETATM   18  N   UNL     1     -10.896  12.315  69.054  1.00  0.00    -0.190 NA 
HETATM   19  C   UNL     1     -11.811  13.097  69.766  1.00  0.00    -0.316 A  
HETATM   20  N   UNL     1     -11.465  10.459  70.401  1.00  0.00    -0.315 N  
HETATM   21  C   UNL     1     -12.306  11.210  71.237  1.00  0.00    -0.297 C  
HETATM   22  C   UNL     1     -12.047  14.412  69.344  1.00  0.00    -0.338 A  
HETATM   23  C   UNL     1     -12.491  12.622  70.884  1.00  0.00    -0.368 A  
HETATM   24  C   UNL     1     -12.929  15.243  70.041  1.00  0.00    -0.026 A  
HETATM   25  C   UNL     1     -13.569  14.771  71.182  1.00  0.00    -0.432 A  
HETATM   26  F   UNL     1     -13.982  13.046  72.703  1.00  0.00    -0.626 F  
HETATM   27  C   UNL     1     -13.346  13.463  71.600  1.00  0.00    -0.338 A  
BRANCH  20  28
HETATM   28  C   UNL     1     -11.377   9.064  70.696  1.00  0.00    -0.265 A  
HETATM   29  C   UNL     1     -12.509   8.241  70.657  1.00  0.00     0.259 A  
HETATM   30  C   UNL     1     -12.386   6.870  70.894  1.00  0.00    -0.365 A  
HETATM   31  C   UNL     1     -11.139   6.316  71.180  1.00  0.00    -0.356 A  
HETATM   32  C   UNL     1     -10.018   7.136  71.273  1.00  0.00    -0.192 A  
HETATM   33  C   UNL     1     -10.140   8.507  71.055  1.00  0.00    -0.257 A  
ENDBRANCH  20  28
ENDBRANCH   1  16
TORSDOF 5
ENDMDL
MODEL      108
REMARK 921   NORMALIZED FREE ENERGY PREDICTED BY IDOCK:   -6.27 KCAL/MOL
REMARK 922        TOTAL FREE ENERGY PREDICTED BY IDOCK:   -8.17 KCAL/MOL
REMARK 923 INTER-LIGAND FREE ENERGY PREDICTED BY IDOCK:   -6.94 KCAL/MOL
REMARK 924 INTRA-LIGAND FREE ENERGY PREDICTED BY IDOCK:   -1.24 KCAL/MOL
REMARK 927      BINDING AFFINITY PREDICTED BY RF-SCORE:    0.00 PKD
ROOT
HETATM    1  C   UNL     1      -9.785  10.228  68.038  1.00  0.00    -0.149 C  
ENDROOT
BRANCH   1   2
HETATM    2  C   UNL     1     -11.307  10.139  68.263  1.00  0.00    -0.183 C  
HETATM    3  C   UNL     1     -11.759  10.282  69.708  1.00  0.00    -0.261 C  
ENDBRANCH   1   2
BRANCH   1   4
HETATM    4  N   UNL     1      -9.470  11.527  67.431  1.00  0.00    -0.165 NA 
HETATM    5  H   UNL     1      -8.493  11.761  67.253  1.00  0.00     0.000 HD 
BRANCH   4   6
HETATM    6  C   UNL     1     -10.444  12.444  67.093  1.00  0.00    -0.219 A  
HETATM    7  C   UNL     1     -11.981  13.478  65.594  1.00  0.00    -0.397 A  
HETATM    8  N   UNL     1     -12.398  14.423  66.445  1.00  0.00    -0.363 NA 
HETATM    9  N   UNL     1     -10.900  11.699  64.680  1.00  0.00    -0.307 NA 
HETATM   10  C   UNL     1     -11.768  14.295  67.626  1.00  0.00    -0.389 A  
HETATM   11  C   UNL     1     -11.710  12.243  63.785  1.00  0.00    -0.478 A  
HETATM   12  H   UNL     1     -10.296  10.887  64.557  1.00  0.00     0.000 HD 
HETATM   13  N   UNL     1     -10.836  13.390  67.990  1.00  0.00    -0.241 NA 
HETATM   14  C   UNL     1     -11.053  12.475  65.818  1.00  0.00    -0.308 A  
HETATM   15  N   UNL     1     -12.387  13.315  64.298  1.00  0.00    -0.580 NA 
ENDBRANCH   4   6
ENDBRANCH   1   4
BRANCH   1  16
HETATM   16  C   UNL     1      -9.226   9.105  67.084  1.00  0.00    -0.133 C  
HETATM   17  O   UNL     1      -9.002   5.536  66.788  1.00  0.00    -0.113 OA 
HETATM   18  N   UNL     1      -8.780   9.490  65.919  1.00  0.00    -0.141 NA 
HETATM   19  C   UNL     1      -8.305   8.536  65.014  1.00  0.00    -0.165 A  
HETATM   20  N   UNL     1      -9.277   7.760  67.450  1.00  0.00    -0.135 N  
HETATM   21  C   UNL     1      -8.934   6.741  66.548  1.00  0.00    -0.149 C  
HETATM   22  C   UNL     1      -7.710   8.974  63.824  1.00  0.00    -0.125 A  
HETATM   23  C   UNL     1      -8.406   7.168  65.246  1.00  0.00    -0.101 A  
HETATM   24  C   UNL     1      -7.247   8.060  62.872  1.00  0.00    -0.091 A  
HETATM   25  C   UNL     1      -7.395   6.695  63.096  1.00  0.00    -0.070 A  
HETATM   26  F   UNL     1      -8.098   4.932  64.460  1.00  0.00    -0.092 F  
HETATM   27  C   UNL     1      -7.975   6.254  64.282  1.00  0.00    -0.108 A  
BRANCH  20  28
HETATM   28  C   UNL     1      -9.690   7.329  68.748  1.00  0.00    -0.151 A  
HETATM   29  C   UNL     1      -8.823   7.397  69.845  1.00  0.00    -0.141 A  
HETATM   30  C   UNL     1      -9.270   7.023  71.115  1.00  0.00    -0.157 A  
HETATM   31  C   UNL     1     -10.576   6.570  71.294  1.00  0.00    -0.268 A  
HETATM   32  C   UNL     1     -11.427   6.450  70.199  1.00  0.00    -0.484 A  
HETATM   33  C   UNL     1     -10.979   6.805  68.928  1.00  0.00    -0.272 A  
ENDBRANCH  20  28
ENDBRANCH   1  16
TORSDOF 5
ENDMDL
MODEL      109
REMARK 921   NORMALIZED FREE ENERGY PREDICTED BY IDOCK:   -6.24 KCAL/MOL
REMARK 922        TOTAL FREE ENERGY PREDICTED BY IDOCK:   -8.14 KCAL/MOL
REMARK 923 INTER-LIGAND FREE ENERGY PREDICTED BY IDOCK:   -8.72 KCAL/MOL
REMARK 924 INTRA-LIGAND FREE ENERGY PREDICTED BY IDOCK:    0.59 KCAL/MOL
REMARK 927      BINDING AFFINITY PREDICTED BY RF-SCORE:    0.00 PKD
ROOT
HETATM    1  C   UNL     1      -9.537  14.095  68.598  1.00  0.00    -0.179 C  
ENDROOT
BRANCH   1   2
HETATM    2  C   UNL     1      -8.526  13.063  68.061  1.00  0.00    -0.181 C  
HETATM    3  C   UNL     1      -7.068  13.359  68.374  1.00  0.00    -0.108 C  
ENDBRANCH   1   2
BRANCH   1   4
HETATM    4  N   UNL     1     -10.895  13.567  68.421  1.00  0.00    -0.258 NA 
HETATM    5  H   UNL     1     -11.271  13.490  67.476  1.00  0.00     0.000 HD 
BRANCH   4   6
HETATM    6  C   UNL     1     -11.682  13.171  69.483  1.00  0.00    -0.319 A  
HETATM    7  C   UNL     1     -12.652  11.555  70.943  1.00  0.00    -0.341 A  
HETATM    8  N   UNL     1     -13.393  12.422  71.643  1.00  0.00    -0.282 NA 
HETATM    9  N   UNL     1     -11.209  10.649  69.438  1.00  0.00    -0.250 NA 
HETATM   10  C   UNL     1     -13.209  13.671  71.181  1.00  0.00    -0.184 A  
HETATM   11  C   UNL     1     -11.733   9.695  70.191  1.00  0.00    -0.089 A  
HETATM   12  H   UNL     1     -10.527  10.542  68.686  1.00  0.00     0.000 HD 
HETATM   13  N   UNL     1     -12.423  14.086  70.166  1.00  0.00    -0.341 NA 
HETATM   14  C   UNL     1     -11.788  11.822  69.893  1.00  0.00    -0.348 A  
HETATM   15  N   UNL     1     -12.603  10.200  71.117  1.00  0.00    -0.353 NA 
ENDBRANCH   4   6
ENDBRANCH   1   4
BRANCH   1  16
HETATM   16  C   UNL     1      -9.464  15.486  67.861  1.00  0.00    -0.201 C  
HETATM   17  O   UNL     1     -10.957  17.303  65.151  1.00  0.00    -0.555 OA 
HETATM   18  N   UNL     1      -8.728  16.409  68.417  1.00  0.00    -0.205 NA 
HETATM   19  C   UNL     1      -8.652  17.677  67.830  1.00  0.00    -0.238 A  
HETATM   20  N   UNL     1     -10.211  15.729  66.708  1.00  0.00    -0.275 N  
HETATM   21  C   UNL     1     -10.281  17.008  66.136  1.00  0.00    -0.337 C  
HETATM   22  C   UNL     1      -7.759  18.614  68.364  1.00  0.00    -0.331 A  
HETATM   23  C   UNL     1      -9.435  18.045  66.741  1.00  0.00    -0.293 A  
HETATM   24  C   UNL     1      -7.667  19.904  67.832  1.00  0.00    -0.329 A  
HETATM   25  C   UNL     1      -8.488  20.274  66.771  1.00  0.00    -0.326 A  
HETATM   26  F   UNL     1     -10.140  19.738  65.209  1.00  0.00    -0.232 F  
HETATM   27  C   UNL     1      -9.369  19.343  66.231  1.00  0.00    -0.355 A  
BRANCH  20  28
HETATM   28  C   UNL     1     -10.959  14.708  66.045  1.00  0.00    -0.325 A  
HETATM   29  C   UNL     1     -10.359  13.864  65.104  1.00  0.00    -0.403 A  
HETATM   30  C   UNL     1     -11.099  12.837  64.512  1.00  0.00    -0.365 A  
HETATM   31  C   UNL     1     -12.440  12.655  64.848  1.00  0.00    -0.564 A  
HETATM   32  C   UNL     1     -13.057  13.524  65.743  1.00  0.00     0.055 A  
HETATM   33  C   UNL     1     -12.327  14.560  66.322  1.00  0.00    -0.211 A  
ENDBRANCH  20  28
ENDBRANCH   1  16
TORSDOF 5
ENDMDL
MODEL      110
REMARK 921   NORMALIZED FREE ENERGY PREDICTED BY IDOCK:   -6.23 KCAL/MOL
REMARK 922        TOTAL FREE ENERGY PREDICTED BY IDOCK:   -8.12 KCAL/MOL
REMARK 923 INTER-LIGAND FREE ENERGY PREDICTED BY IDOCK:   -7.12 KCAL/MOL
REMARK 924 INTRA-LIGAND FREE ENERGY PREDICTED BY IDOCK:   -1.00 KCAL/MOL
REMARK 927      BINDING AFFINITY PREDICTED BY RF-SCORE:    0.00 PKD
ROOT
HETATM    1  C   UNL     1      -8.197  10.367  68.778  1.00  0.00    -0.128 C  
ENDROOT
BRANCH   1   2
HETATM    2  C   UNL     1      -7.044  11.358  69.031  1.00  0.00    -0.117 C  
HETATM    3  C   UNL     1      -7.237  12.743  68.435  1.00  0.00    -0.115 C  
ENDBRANCH   1   2
BRANCH   1   4
HETATM    4  N   UNL     1      -7.660   9.000  68.788  1.00  0.00    -0.086 NA 
HETATM    5  H   UNL     1      -6.671   8.864  68.998  1.00  0.00     0.000 HD 
BRANCH   4   6
HETATM    6  C   UNL     1      -8.441   7.894  68.524  1.00  0.00    -0.128 A  
HETATM    7  C   UNL     1     -10.152   6.312  69.029  1.00  0.00    -0.172 A  
HETATM    8  N   UNL     1      -9.963   5.547  67.947  1.00  0.00    -0.139 NA 
HETATM    9  N   UNL     1      -9.973   7.963  70.582  1.00  0.00    -0.186 NA 
HETATM   10  C   UNL     1      -8.968   6.046  67.192  1.00  0.00    -0.114 A  
HETATM   11  C   UNL     1     -10.916   7.106  70.941  1.00  0.00    -0.251 A  
HETATM   12  H   UNL     1      -9.678   8.804  71.078  1.00  0.00     0.000 HD 
HETATM   13  N   UNL     1      -8.212   7.142  67.414  1.00  0.00    -0.115 NA 
HETATM   14  C   UNL     1      -9.477   7.468  69.387  1.00  0.00    -0.155 A  
HETATM   15  N   UNL     1     -11.061   6.099  70.027  1.00  0.00    -0.366 NA 
ENDBRANCH   4   6
ENDBRANCH   1   4
BRANCH   1  16
HETATM   16  C   UNL     1      -8.920  10.587  67.395  1.00  0.00    -0.135 C  
HETATM   17  O   UNL     1     -11.839  12.114  65.971  1.00  0.00    -0.522 OA 
HETATM   18  N   UNL     1      -8.260  10.241  66.324  1.00  0.00    -0.127 NA 
HETATM   19  C   UNL     1      -8.833  10.447  65.064  1.00  0.00    -0.191 A  
HETATM   20  N   UNL     1     -10.177  11.190  67.329  1.00  0.00    -0.188 N  
HETATM   21  C   UNL     1     -10.758  11.538  66.100  1.00  0.00    -0.274 C  
HETATM   22  C   UNL     1      -8.171   9.953  63.934  1.00  0.00    -0.156 A  
HETATM   23  C   UNL     1     -10.034  11.129  64.891  1.00  0.00    -0.331 A  
HETATM   24  C   UNL     1      -8.687  10.159  62.651  1.00  0.00    -0.218 A  
HETATM   25  C   UNL     1      -9.865  10.881  62.487  1.00  0.00    -0.084 A  
HETATM   26  F   UNL     1     -11.664  12.053  63.409  1.00  0.00    -0.477 F  
HETATM   27  C   UNL     1     -10.533  11.364  63.608  1.00  0.00    -0.414 A  
BRANCH  20  28
HETATM   28  C   UNL     1     -10.944  11.503  68.492  1.00  0.00    -0.223 A  
HETATM   29  C   UNL     1     -11.095  12.824  68.929  1.00  0.00    -0.310 A  
HETATM   30  C   UNL     1     -11.898  13.108  70.037  1.00  0.00    -0.360 A  
HETATM   31  C   UNL     1     -12.543  12.077  70.719  1.00  0.00    -0.312 A  
HETATM   32  C   UNL     1     -12.355  10.756  70.322  1.00  0.00    -0.423 A  
HETATM   33  C   UNL     1     -11.541  10.468  69.229  1.00  0.00    -0.308 A  
ENDBRANCH  20  28
ENDBRANCH   1  16
TORSDOF 5
ENDMDL
MODEL      111
REMARK 921   NORMALIZED FREE ENERGY PREDICTED BY IDOCK:   -6.22 KCAL/MOL
REMARK 922        TOTAL FREE ENERGY PREDICTED BY IDOCK:   -8.11 KCAL/MOL
REMARK 923 INTER-LIGAND FREE ENERGY PREDICTED BY IDOCK:   -6.95 KCAL/MOL
REMARK 924 INTRA-LIGAND FREE ENERGY PREDICTED BY IDOCK:   -1.16 KCAL/MOL
REMARK 927      BINDING AFFINITY PREDICTED BY RF-SCORE:    0.00 PKD
ROOT
HETATM    1  C   UNL     1     -10.405   9.938  67.620  1.00  0.00    -0.225 C  
ENDROOT
BRANCH   1   2
HETATM    2  C   UNL     1      -9.304  11.016  67.583  1.00  0.00    -0.162 C  
HETATM    3  C   UNL     1      -8.583  11.162  66.253  1.00  0.00    -0.180 C  
ENDBRANCH   1   2
BRANCH   1   4
HETATM    4  N   UNL     1     -11.702  10.590  67.840  1.00  0.00    -0.714 NA 
HETATM    5  H   UNL     1     -12.554  10.054  67.674  1.00  0.00     0.000 HD 
BRANCH   4   6
HETATM    6  C   UNL     1     -11.812  11.898  68.263  1.00  0.00    -0.277 A  
HETATM    7  C   UNL     1     -12.265  13.596  69.875  1.00  0.00    -0.304 A  
HETATM    8  N   UNL     1     -12.098  14.631  69.043  1.00  0.00    -0.272 NA 
HETATM    9  N   UNL     1     -12.393  11.493  70.730  1.00  0.00    -0.391 NA 
HETATM   10  C   UNL     1     -11.780  14.192  67.812  1.00  0.00    -0.373 A  
HETATM   11  C   UNL     1     -12.687  12.380  71.667  1.00  0.00    -0.194 A  
HETATM   12  H   UNL     1     -12.361  10.478  70.824  1.00  0.00     0.000 HD 
HETATM   13  N   UNL     1     -11.637  12.921  67.382  1.00  0.00    -0.339 NA 
HETATM   14  C   UNL     1     -12.138  12.245  69.595  1.00  0.00    -0.212 A  
HETATM   15  N   UNL     1     -12.614  13.661  71.195  1.00  0.00    -0.365 NA 
ENDBRANCH   4   6
ENDBRANCH   1   4
BRANCH   1  16
HETATM   16  C   UNL     1     -10.202   8.874  68.765  1.00  0.00    -0.206 C  
HETATM   17  O   UNL     1      -8.176   6.043  69.633  1.00  0.00    -0.111 OA 
HETATM   18  N   UNL     1     -10.863   9.070  69.874  1.00  0.00    -0.228 NA 
HETATM   19  C   UNL     1     -10.697   8.181  70.941  1.00  0.00    -0.221 A  
HETATM   20  N   UNL     1      -9.303   7.818  68.614  1.00  0.00    -0.148 N  
HETATM   21  C   UNL     1      -8.993   6.962  69.682  1.00  0.00    -0.144 C  
HETATM   22  C   UNL     1     -11.507   8.328  72.073  1.00  0.00    -0.399 A  
HETATM   23  C   UNL     1      -9.752   7.159  70.923  1.00  0.00    -0.170 A  
HETATM   24  C   UNL     1     -11.359   7.484  73.178  1.00  0.00    -0.232 A  
HETATM   25  C   UNL     1     -10.381   6.495  73.166  1.00  0.00    -0.252 A  
HETATM   26  F   UNL     1      -8.651   5.373  72.067  1.00  0.00    -0.124 F  
HETATM   27  C   UNL     1      -9.580   6.338  72.040  1.00  0.00    -0.151 A  
BRANCH  20  28
HETATM   28  C   UNL     1      -8.632   7.547  67.383  1.00  0.00    -0.118 A  
HETATM   29  C   UNL     1      -7.337   8.019  67.142  1.00  0.00    -0.091 A  
HETATM   30  C   UNL     1      -6.681   7.691  65.952  1.00  0.00    -0.046 A  
HETATM   31  C   UNL     1      -7.318   6.901  64.996  1.00  0.00    -0.086 A  
HETATM   32  C   UNL     1      -8.625   6.472  65.206  1.00  0.00    -0.036 A  
HETATM   33  C   UNL     1      -9.288   6.812  66.383  1.00  0.00    -0.175 A  
ENDBRANCH  20  28
ENDBRANCH   1  16
TORSDOF 5
ENDMDL
MODEL      112
REMARK 921   NORMALIZED FREE ENERGY PREDICTED BY IDOCK:   -6.19 KCAL/MOL
REMARK 922        TOTAL FREE ENERGY PREDICTED BY IDOCK:   -8.07 KCAL/MOL
REMARK 923 INTER-LIGAND FREE ENERGY PREDICTED BY IDOCK:   -8.61 KCAL/MOL
REMARK 924 INTRA-LIGAND FREE ENERGY PREDICTED BY IDOCK:    0.53 KCAL/MOL
REMARK 927      BINDING AFFINITY PREDICTED BY RF-SCORE:    0.00 PKD
ROOT
HETATM    1  C   UNL     1     -11.750  14.342  67.876  1.00  0.00    -0.359 C  
ENDROOT
BRANCH   1   2
HETATM    2  C   UNL     1     -12.196  14.917  66.518  1.00  0.00     0.119 C  
HETATM    3  C   UNL     1     -12.831  13.916  65.566  1.00  0.00    -0.471 C  
ENDBRANCH   1   2
BRANCH   1   4
HETATM    4  N   UNL     1     -12.183  15.253  68.943  1.00  0.00    -0.603 NA 
HETATM    5  H   UNL     1     -12.146  16.258  68.774  1.00  0.00     0.000 HD 
BRANCH   4   6
HETATM    6  C   UNL     1     -12.636  14.801  70.166  1.00  0.00    -0.271 A  
HETATM    7  C   UNL     1     -13.090  13.119  71.792  1.00  0.00    -0.383 A  
HETATM    8  N   UNL     1     -13.669  13.933  72.683  1.00  0.00    -0.709 NA 
HETATM    9  N   UNL     1     -12.045  12.314  69.940  1.00  0.00    -0.282 NA 
HETATM   10  C   UNL     1     -13.687  15.194  72.217  1.00  0.00    -0.491 A  
HETATM   11  C   UNL     1     -12.295  11.325  70.783  1.00  0.00    -0.398 A  
HETATM   12  H   UNL     1     -11.582  12.255  69.033  1.00  0.00     0.000 HD 
HETATM   13  N   UNL     1     -13.222  15.664  71.040  1.00  0.00    -0.553 NA 
HETATM   14  C   UNL     1     -12.552  13.446  70.558  1.00  0.00    -0.211 A  
HETATM   15  N   UNL     1     -12.917  11.768  71.916  1.00  0.00    -0.391 NA 
ENDBRANCH   4   6
ENDBRANCH   1   4
BRANCH   1  16
HETATM   16  C   UNL     1     -10.188  14.166  68.000  1.00  0.00    -0.232 C  
HETATM   17  O   UNL     1      -7.155  16.079  68.118  1.00  0.00    -0.115 OA 
HETATM   18  N   UNL     1      -9.751  12.968  68.278  1.00  0.00    -0.226 NA 
HETATM   19  C   UNL     1      -8.377  12.756  68.436  1.00  0.00    -0.119 A  
HETATM   20  N   UNL     1      -9.331  15.261  67.885  1.00  0.00    -0.188 N  
HETATM   21  C   UNL     1      -7.958  15.147  68.153  1.00  0.00    -0.125 C  
HETATM   22  C   UNL     1      -7.913  11.446  68.605  1.00  0.00    -0.141 A  
HETATM   23  C   UNL     1      -7.455  13.798  68.440  1.00  0.00    -0.119 A  
HETATM   24  C   UNL     1      -6.553  11.185  68.797  1.00  0.00    -0.059 A  
HETATM   25  C   UNL     1      -5.646  12.239  68.844  1.00  0.00    -0.051 A  
HETATM   26  F   UNL     1      -5.196  14.528  68.716  1.00  0.00    -0.081 F  
HETATM   27  C   UNL     1      -6.101  13.541  68.666  1.00  0.00    -0.086 A  
BRANCH  20  28
HETATM   28  C   UNL     1      -9.786  16.561  67.505  1.00  0.00    -0.248 A  
HETATM   29  C   UNL     1     -10.049  17.546  68.464  1.00  0.00    -0.363 A  
HETATM   30  C   UNL     1     -10.439  18.827  68.062  1.00  0.00    -0.410 A  
HETATM   31  C   UNL     1     -10.577  19.126  66.708  1.00  0.00    -0.528 A  
HETATM   32  C   UNL     1     -10.368  18.136  65.751  1.00  0.00    -0.178 A  
HETATM   33  C   UNL     1      -9.997  16.853  66.149  1.00  0.00    -0.332 A  
ENDBRANCH  20  28
ENDBRANCH   1  16
TORSDOF 5
ENDMDL
MODEL      113
REMARK 921   NORMALIZED FREE ENERGY PREDICTED BY IDOCK:   -6.16 KCAL/MOL
REMARK 922        TOTAL FREE ENERGY PREDICTED BY IDOCK:   -8.03 KCAL/MOL
REMARK 923 INTER-LIGAND FREE ENERGY PREDICTED BY IDOCK:   -7.70 KCAL/MOL
REMARK 924 INTRA-LIGAND FREE ENERGY PREDICTED BY IDOCK:   -0.33 KCAL/MOL
REMARK 927      BINDING AFFINITY PREDICTED BY RF-SCORE:    0.00 PKD
ROOT
HETATM    1  C   UNL     1      -9.947   9.318  66.767  1.00  0.00    -0.245 C  
ENDROOT
BRANCH   1   2
HETATM    2  C   UNL     1      -9.004   8.506  65.857  1.00  0.00    -0.235 C  
HETATM    3  C   UNL     1      -8.410   9.273  64.688  1.00  0.00    -0.167 C  
ENDBRANCH   1   2
BRANCH   1   4
HETATM    4  N   UNL     1      -9.643  10.746  66.611  1.00  0.00    -0.174 NA 
HETATM    5  H   UNL     1      -8.667  11.042  66.607  1.00  0.00     0.000 HD 
BRANCH   4   6
HETATM    6  C   UNL     1     -10.627  11.703  66.470  1.00  0.00    -0.253 A  
HETATM    7  C   UNL     1     -12.240  12.948  65.233  1.00  0.00    -0.476 A  
HETATM    8  N   UNL     1     -12.599  13.756  66.238  1.00  0.00    -0.384 NA 
HETATM    9  N   UNL     1     -11.230  11.324  64.004  1.00  0.00    -0.427 NA 
HETATM   10  C   UNL     1     -11.902  13.455  67.348  1.00  0.00    -0.375 A  
HETATM   11  C   UNL     1     -12.086  11.995  63.249  1.00  0.00    -0.403 A  
HETATM   12  H   UNL     1     -10.641  10.539  63.727  1.00  0.00     0.000 HD 
HETATM   13  N   UNL     1     -10.958  12.505  67.518  1.00  0.00    -0.241 NA 
HETATM   14  C   UNL     1     -11.309  11.923  65.251  1.00  0.00    -0.275 A  
HETATM   15  N   UNL     1     -12.722  12.978  63.954  1.00  0.00    -0.693 NA 
ENDBRANCH   4   6
ENDBRANCH   1   4
BRANCH   1  16
HETATM   16  C   UNL     1      -9.804   8.962  68.295  1.00  0.00    -0.167 C  
HETATM   17  O   UNL     1      -7.595   9.423  71.085  1.00  0.00    -0.306 OA 
HETATM   18  N   UNL     1     -10.841   8.419  68.872  1.00  0.00    -0.048 NA 
HETATM   19  C   UNL     1     -10.788   8.113  70.236  1.00  0.00    -0.244 A  
HETATM   20  N   UNL     1      -8.644   9.281  69.002  1.00  0.00    -0.131 N  
HETATM   21  C   UNL     1      -8.567   9.117  70.394  1.00  0.00    -0.209 C  
HETATM   22  C   UNL     1     -11.857   7.414  70.811  1.00  0.00    -0.288 A  
HETATM   23  C   UNL     1      -9.719   8.483  71.046  1.00  0.00    -0.243 A  
HETATM   24  C   UNL     1     -11.866   7.111  72.177  1.00  0.00    -0.315 A  
HETATM   25  C   UNL     1     -10.811   7.525  72.984  1.00  0.00    -0.445 A  
HETATM   26  F   UNL     1      -8.746   8.591  73.226  1.00  0.00    -0.289 F  
HETATM   27  C   UNL     1      -9.743   8.211  72.415  1.00  0.00    -0.269 A  
BRANCH  20  28
HETATM   28  C   UNL     1      -7.475   9.804  68.370  1.00  0.00    -0.083 A  
HETATM   29  C   UNL     1      -6.482   8.955  67.867  1.00  0.00    -0.057 A  
HETATM   30  C   UNL     1      -5.375   9.490  67.202  1.00  0.00    -0.036 A  
HETATM   31  C   UNL     1      -5.249  10.870  67.046  1.00  0.00    -0.050 A  
HETATM   32  C   UNL     1      -6.206  11.722  67.590  1.00  0.00    -0.078 A  
HETATM   33  C   UNL     1      -7.302  11.193  68.269  1.00  0.00    -0.090 A  
ENDBRANCH  20  28
ENDBRANCH   1  16
TORSDOF 5
ENDMDL
MODEL      114
REMARK 921   NORMALIZED FREE ENERGY PREDICTED BY IDOCK:   -6.15 KCAL/MOL
REMARK 922        TOTAL FREE ENERGY PREDICTED BY IDOCK:   -8.01 KCAL/MOL
REMARK 923 INTER-LIGAND FREE ENERGY PREDICTED BY IDOCK:   -6.60 KCAL/MOL
REMARK 924 INTRA-LIGAND FREE ENERGY PREDICTED BY IDOCK:   -1.42 KCAL/MOL
REMARK 927      BINDING AFFINITY PREDICTED BY RF-SCORE:    0.00 PKD
ROOT
HETATM    1  C   UNL     1      -8.052  12.542  68.516  1.00  0.00    -0.089 C  
ENDROOT
BRANCH   1   2
HETATM    2  C   UNL     1      -7.105  13.750  68.377  1.00  0.00    -0.105 C  
HETATM    3  C   UNL     1      -5.634  13.406  68.211  1.00  0.00    -0.098 C  
ENDBRANCH   1   2
BRANCH   1   4
HETATM    4  N   UNL     1      -7.248  11.327  68.698  1.00  0.00    -0.090 NA 
HETATM    5  H   UNL     1      -6.497  11.133  68.035  1.00  0.00     0.000 HD 
BRANCH   4   6
HETATM    6  C   UNL     1      -7.469  10.438  69.729  1.00  0.00    -0.149 A  
HETATM    7  C   UNL     1      -8.774   8.866  70.958  1.00  0.00    -0.224 A  
HETATM    8  N   UNL     1      -7.882   8.675  71.938  1.00  0.00    -0.266 NA 
HETATM    9  N   UNL     1      -9.804   9.603  69.070  1.00  0.00    -0.175 NA 
HETATM   10  C   UNL     1      -6.786   9.424  71.722  1.00  0.00     0.302 A  
HETATM   11  C   UNL     1     -10.595   8.762  69.717  1.00  0.00    -0.224 A  
HETATM   12  H   UNL     1      -9.996  10.084  68.191  1.00  0.00     0.000 HD 
HETATM   13  N   UNL     1      -6.535  10.276  70.707  1.00  0.00    -0.315 NA 
HETATM   14  C   UNL     1      -8.660   9.686  69.847  1.00  0.00    -0.203 A  
HETATM   15  N   UNL     1     -10.009   8.289  70.858  1.00  0.00    -0.187 NA 
ENDBRANCH   4   6
ENDBRANCH   1   4
BRANCH   1  16
HETATM   16  C   UNL     1      -8.976  12.322  67.259  1.00  0.00    -0.187 C  
HETATM   17  O   UNL     1     -12.097  13.397  65.854  1.00  0.00    -0.391 OA 
HETATM   18  N   UNL     1      -8.476  11.623  66.276  1.00  0.00    -0.120 NA 
HETATM   19  C   UNL     1      -9.234  11.424  65.118  1.00  0.00    -0.103 A  
HETATM   20  N   UNL     1     -10.238  12.912  67.182  1.00  0.00    -0.237 N  
HETATM   21  C   UNL     1     -11.001  12.859  66.006  1.00  0.00    -0.276 C  
HETATM   22  C   UNL     1      -8.739  10.565  64.128  1.00  0.00    -0.180 A  
HETATM   23  C   UNL     1     -10.458  12.052  64.907  1.00  0.00    -0.325 A  
HETATM   24  C   UNL     1      -9.445  10.357  62.938  1.00  0.00    -0.354 A  
HETATM   25  C   UNL     1     -10.645  11.026  62.721  1.00  0.00     0.325 A  
HETATM   26  F   UNL     1     -12.306  12.495  63.458  1.00  0.00    -0.510 F  
HETATM   27  C   UNL     1     -11.146  11.871  63.705  1.00  0.00    -0.440 A  
BRANCH  20  28
HETATM   28  C   UNL     1     -10.828  13.614  68.277  1.00  0.00    -0.251 A  
HETATM   29  C   UNL     1     -10.621  14.987  68.456  1.00  0.00    -0.235 A  
HETATM   30  C   UNL     1     -11.257  15.661  69.503  1.00  0.00    -0.313 A  
HETATM   31  C   UNL     1     -12.090  14.968  70.379  1.00  0.00    -0.384 A  
HETATM   32  C   UNL     1     -12.259  13.593  70.239  1.00  0.00    -0.423 A  
HETATM   33  C   UNL     1     -11.613  12.915  69.208  1.00  0.00    -0.368 A  
ENDBRANCH  20  28
ENDBRANCH   1  16
TORSDOF 5
ENDMDL
MODEL      115
REMARK 921   NORMALIZED FREE ENERGY PREDICTED BY IDOCK:   -6.09 KCAL/MOL
REMARK 922        TOTAL FREE ENERGY PREDICTED BY IDOCK:   -7.94 KCAL/MOL
REMARK 923 INTER-LIGAND FREE ENERGY PREDICTED BY IDOCK:   -8.68 KCAL/MOL
REMARK 924 INTRA-LIGAND FREE ENERGY PREDICTED BY IDOCK:    0.74 KCAL/MOL
REMARK 927      BINDING AFFINITY PREDICTED BY RF-SCORE:    0.00 PKD
ROOT
HETATM    1  C   UNL     1      -8.856  12.558  67.553  1.00  0.00    -0.184 C  
ENDROOT
BRANCH   1   2
HETATM    2  C   UNL     1      -7.516  13.110  68.077  1.00  0.00    -0.132 C  
HETATM    3  C   UNL     1      -6.542  12.065  68.596  1.00  0.00    -0.075 C  
ENDBRANCH   1   2
BRANCH   1   4
HETATM    4  N   UNL     1      -9.384  13.477  66.538  1.00  0.00    -0.370 NA 
HETATM    5  H   UNL     1      -9.204  14.476  66.640  1.00  0.00     0.000 HD 
BRANCH   4   6
HETATM    6  C   UNL     1     -10.115  13.042  65.451  1.00  0.00    -0.252 A  
HETATM    7  C   UNL     1     -11.829  13.241  63.807  1.00  0.00    -0.467 A  
HETATM    8  N   UNL     1     -11.635  12.039  63.251  1.00  0.00    -0.370 NA 
HETATM    9  N   UNL     1     -11.648  15.076  65.137  1.00  0.00    -0.329 NA 
HETATM   10  C   UNL     1     -10.633  11.394  63.876  1.00  0.00    -0.392 A  
HETATM   11  C   UNL     1     -12.636  15.241  64.272  1.00  0.00     0.186 A  
HETATM   12  H   UNL     1     -11.330  15.733  65.849  1.00  0.00     0.000 HD 
HETATM   13  N   UNL     1      -9.885  11.811  64.919  1.00  0.00    -0.245 NA 
HETATM   14  C   UNL     1     -11.140  13.817  64.862  1.00  0.00    -0.362 A  
HETATM   15  N   UNL     1     -12.775  14.160  63.446  1.00  0.00    -0.534 NA 
ENDBRANCH   4   6
ENDBRANCH   1   4
BRANCH   1  16
HETATM   16  C   UNL     1      -9.951  12.402  68.675  1.00  0.00    -0.107 C  
HETATM   17  O   UNL     1     -12.349  14.317  70.535  1.00  0.00    -0.316 OA 
HETATM   18  N   UNL     1     -10.255  11.185  69.037  1.00  0.00    -0.201 NA 
HETATM   19  C   UNL     1     -11.246  10.981  70.003  1.00  0.00    -0.224 A  
HETATM   20  N   UNL     1     -10.609  13.517  69.197  1.00  0.00    -0.098 N  
HETATM   21  C   UNL     1     -11.695  13.381  70.075  1.00  0.00    -0.227 C  
HETATM   22  C   UNL     1     -11.468   9.681  70.475  1.00  0.00    -0.352 A  
HETATM   23  C   UNL     1     -12.024  12.018  70.507  1.00  0.00    -0.338 A  
HETATM   24  C   UNL     1     -12.468   9.420  71.417  1.00  0.00    -0.435 A  
HETATM   25  C   UNL     1     -13.269  10.459  71.881  1.00  0.00    -0.535 A  
HETATM   26  F   UNL     1     -13.837  12.725  71.895  1.00  0.00    -0.430 F  
HETATM   27  C   UNL     1     -13.045  11.753  71.423  1.00  0.00    -0.223 A  
BRANCH  20  28
HETATM   28  C   UNL     1     -10.236  14.856  68.869  1.00  0.00    -0.238 A  
HETATM   29  C   UNL     1      -8.991  15.375  69.243  1.00  0.00    -0.261 A  
HETATM   30  C   UNL     1      -8.628  16.669  68.860  1.00  0.00    -0.235 A  
HETATM   31  C   UNL     1      -9.507  17.452  68.113  1.00  0.00    -0.288 A  
HETATM   32  C   UNL     1     -10.767  16.962  67.783  1.00  0.00    -0.315 A  
HETATM   33  C   UNL     1     -11.139  15.679  68.178  1.00  0.00    -0.330 A  
ENDBRANCH  20  28
ENDBRANCH   1  16
TORSDOF 5
ENDMDL
MODEL      116
REMARK 921   NORMALIZED FREE ENERGY PREDICTED BY IDOCK:   -6.08 KCAL/MOL
REMARK 922        TOTAL FREE ENERGY PREDICTED BY IDOCK:   -7.92 KCAL/MOL
REMARK 923 INTER-LIGAND FREE ENERGY PREDICTED BY IDOCK:   -6.70 KCAL/MOL
REMARK 924 INTRA-LIGAND FREE ENERGY PREDICTED BY IDOCK:   -1.22 KCAL/MOL
REMARK 927      BINDING AFFINITY PREDICTED BY RF-SCORE:    0.00 PKD
ROOT
HETATM    1  C   UNL     1      -9.653  11.275  67.124  1.00  0.00    -0.177 C  
ENDROOT
BRANCH   1   2
HETATM    2  C   UNL     1     -11.185  11.438  67.111  1.00  0.00    -0.363 C  
HETATM    3  C   UNL     1     -11.813  11.770  68.455  1.00  0.00    -0.365 C  
ENDBRANCH   1   2
BRANCH   1   4
HETATM    4  N   UNL     1      -9.056  12.335  66.301  1.00  0.00    -0.374 NA 
HETATM    5  H   UNL     1      -8.257  12.105  65.710  1.00  0.00     0.000 HD 
BRANCH   4   6
HETATM    6  C   UNL     1      -9.533  13.629  66.298  1.00  0.00    -0.191 A  
HETATM    7  C   UNL     1     -10.069  15.715  67.320  1.00  0.00    -0.255 A  
HETATM    8  N   UNL     1     -10.612  16.273  66.231  1.00  0.00    -0.288 NA 
HETATM    9  N   UNL     1      -9.059  14.256  68.741  1.00  0.00    -0.327 NA 
HETATM   10  C   UNL     1     -10.569  15.413  65.198  1.00  0.00    -0.434 A  
HETATM   11  C   UNL     1      -9.357  15.376  69.381  1.00  0.00    -0.266 A  
HETATM   12  H   UNL     1      -8.596  13.430  69.120  1.00  0.00     0.000 HD 
HETATM   13  N   UNL     1     -10.081  14.155  65.169  1.00  0.00    -0.357 NA 
HETATM   14  C   UNL     1      -9.513  14.453  67.447  1.00  0.00    -0.207 A  
HETATM   15  N   UNL     1      -9.960  16.286  68.557  1.00  0.00    -0.226 NA 
ENDBRANCH   4   6
ENDBRANCH   1   4
BRANCH   1  16
HETATM   16  C   UNL     1      -9.165   9.891  66.550  1.00  0.00    -0.155 C  
HETATM   17  O   UNL     1      -8.867   6.431  67.453  1.00  0.00    -0.107 OA 
HETATM   18  N   UNL     1      -8.857   9.855  65.282  1.00  0.00    -0.168 NA 
HETATM   19  C   UNL     1      -8.453   8.646  64.705  1.00  0.00    -0.132 A  
HETATM   20  N   UNL     1      -9.137   8.749  67.352  1.00  0.00    -0.132 N  
HETATM   21  C   UNL     1      -8.862   7.483  66.814  1.00  0.00    -0.140 C  
HETATM   22  C   UNL     1      -8.001   8.650  63.379  1.00  0.00    -0.160 A  
HETATM   23  C   UNL     1      -8.488   7.439  65.395  1.00  0.00    -0.101 A  
HETATM   24  C   UNL     1      -7.615   7.464  62.748  1.00  0.00    -0.112 A  
HETATM   25  C   UNL     1      -7.697   6.257  63.434  1.00  0.00    -0.098 A  
HETATM   26  F   UNL     1      -8.198   5.067  65.382  1.00  0.00    -0.106 F  
HETATM   27  C   UNL     1      -8.135   6.249  64.755  1.00  0.00    -0.127 A  
BRANCH  20  28
HETATM   28  C   UNL     1      -9.396   8.788  68.756  1.00  0.00    -0.141 A  
HETATM   29  C   UNL     1      -8.379   9.070  69.675  1.00  0.00    -0.125 A  
HETATM   30  C   UNL     1      -8.671   9.158  71.038  1.00  0.00    -0.251 A  
HETATM   31  C   UNL     1      -9.973   8.954  71.491  1.00  0.00    -0.391 A  
HETATM   32  C   UNL     1     -10.980   8.620  70.589  1.00  0.00    -0.274 A  
HETATM   33  C   UNL     1     -10.689   8.514  69.231  1.00  0.00    -0.147 A  
ENDBRANCH  20  28
ENDBRANCH   1  16
TORSDOF 5
ENDMDL
MODEL      117
REMARK 921   NORMALIZED FREE ENERGY PREDICTED BY IDOCK:   -6.06 KCAL/MOL
REMARK 922        TOTAL FREE ENERGY PREDICTED BY IDOCK:   -7.90 KCAL/MOL
REMARK 923 INTER-LIGAND FREE ENERGY PREDICTED BY IDOCK:   -6.94 KCAL/MOL
REMARK 924 INTRA-LIGAND FREE ENERGY PREDICTED BY IDOCK:   -0.96 KCAL/MOL
REMARK 927      BINDING AFFINITY PREDICTED BY RF-SCORE:    0.00 PKD
ROOT
HETATM    1  C   UNL     1      -9.620   8.001  68.062  1.00  0.00    -0.152 C  
ENDROOT
BRANCH   1   2
HETATM    2  C   UNL     1      -8.547   8.984  68.568  1.00  0.00    -0.129 C  
HETATM    3  C   UNL     1      -7.207   8.907  67.853  1.00  0.00    -0.083 C  
ENDBRANCH   1   2
BRANCH   1   4
HETATM    4  N   UNL     1     -10.894   8.718  67.923  1.00  0.00    -0.488 NA 
HETATM    5  H   UNL     1     -11.737   8.300  68.317  1.00  0.00     0.000 HD 
BRANCH   4   6
HETATM    6  C   UNL     1     -10.994   9.934  67.279  1.00  0.00    -0.117 A  
HETATM    7  C   UNL     1     -10.582  11.444  65.481  1.00  0.00    -0.271 A  
HETATM    8  N   UNL     1     -11.174  12.504  66.046  1.00  0.00    -0.300 NA 
HETATM    9  N   UNL     1      -9.775   9.354  65.096  1.00  0.00    -0.449 NA 
HETATM   10  C   UNL     1     -11.660  12.175  67.256  1.00  0.00    -0.334 A  
HETATM   11  C   UNL     1      -9.484  10.145  64.076  1.00  0.00    -0.282 A  
HETATM   12  H   UNL     1      -9.547   8.365  65.200  1.00  0.00     0.000 HD 
HETATM   13  N   UNL     1     -11.601  10.986  67.892  1.00  0.00    -0.545 NA 
HETATM   14  C   UNL     1     -10.455  10.163  65.992  1.00  0.00    -0.095 A  
HETATM   15  N   UNL     1      -9.960  11.413  64.265  1.00  0.00    -0.263 NA 
ENDBRANCH   4   6
ENDBRANCH   1   4
BRANCH   1  16
HETATM   16  C   UNL     1      -9.860   6.782  69.033  1.00  0.00    -0.149 C  
HETATM   17  O   UNL     1      -9.436   3.224  69.221  1.00  0.00    -0.167 OA 
HETATM   18  N   UNL     1     -10.221   7.065  70.255  1.00  0.00    -0.191 NA 
HETATM   19  C   UNL     1     -10.414   6.028  71.174  1.00  0.00    -0.230 A  
HETATM   20  N   UNL     1      -9.625   5.472  68.613  1.00  0.00    -0.128 N  
HETATM   21  C   UNL     1      -9.678   4.395  69.511  1.00  0.00    -0.210 C  
HETATM   22  C   UNL     1     -10.926   6.337  72.440  1.00  0.00    -0.291 A  
HETATM   23  C   UNL     1     -10.109   4.702  70.881  1.00  0.00    -0.257 A  
HETATM   24  C   UNL     1     -11.108   5.340  73.404  1.00  0.00    -0.362 A  
HETATM   25  C   UNL     1     -10.758   4.025  73.114  1.00  0.00    -0.272 A  
HETATM   26  F   UNL     1      -9.936   2.434  71.613  1.00  0.00    -0.215 F  
HETATM   27  C   UNL     1     -10.259   3.712  71.854  1.00  0.00    -0.041 A  
BRANCH  20  28
HETATM   28  C   UNL     1      -9.305   5.141  67.261  1.00  0.00    -0.122 A  
HETATM   29  C   UNL     1     -10.269   4.610  66.396  1.00  0.00    -0.293 A  
HETATM   30  C   UNL     1      -9.946   4.348  65.063  1.00  0.00    -0.165 A  
HETATM   31  C   UNL     1      -8.659   4.604  64.590  1.00  0.00    -0.144 A  
HETATM   32  C   UNL     1      -7.681   5.083  65.457  1.00  0.00    -0.087 A  
HETATM   33  C   UNL     1      -7.996   5.328  66.792  1.00  0.00    -0.104 A  
ENDBRANCH  20  28
ENDBRANCH   1  16
TORSDOF 5
ENDMDL
MODEL      118
REMARK 921   NORMALIZED FREE ENERGY PREDICTED BY IDOCK:   -6.06 KCAL/MOL
REMARK 922        TOTAL FREE ENERGY PREDICTED BY IDOCK:   -7.89 KCAL/MOL
REMARK 923 INTER-LIGAND FREE ENERGY PREDICTED BY IDOCK:   -6.74 KCAL/MOL
REMARK 924 INTRA-LIGAND FREE ENERGY PREDICTED BY IDOCK:   -1.16 KCAL/MOL
REMARK 927      BINDING AFFINITY PREDICTED BY RF-SCORE:    0.00 PKD
ROOT
HETATM    1  C   UNL     1      -8.021   9.109  69.769  1.00  0.00    -0.098 C  
ENDROOT
BRANCH   1   2
HETATM    2  C   UNL     1      -6.493   9.306  69.732  1.00  0.00    -0.040 C  
HETATM    3  C   UNL     1      -5.921  10.160  70.852  1.00  0.00    -0.070 C  
ENDBRANCH   1   2
BRANCH   1   4
HETATM    4  N   UNL     1      -8.472   9.154  71.166  1.00  0.00    -0.302 NA 
HETATM    5  H   UNL     1      -7.780   9.311  71.899  1.00  0.00     0.000 HD 
BRANCH   4   6
HETATM    6  C   UNL     1      -9.794   8.990  71.524  1.00  0.00    -0.310 A  
HETATM    7  C   UNL     1     -12.101   9.592  71.528  1.00  0.00    -0.389 A  
HETATM    8  N   UNL     1     -12.497   8.634  72.375  1.00  0.00    -0.387 NA 
HETATM    9  N   UNL     1     -10.831  10.922  70.190  1.00  0.00    -0.462 NA 
HETATM   10  C   UNL     1     -11.447   7.884  72.753  1.00  0.00    -0.368 A  
HETATM   11  C   UNL     1     -12.090  11.331  70.169  1.00  0.00    -0.366 A  
HETATM   12  H   UNL     1     -10.041  11.319  69.682  1.00  0.00     0.000 HD 
HETATM   13  N   UNL     1     -10.152   8.005  72.392  1.00  0.00    -0.240 NA 
HETATM   14  C   UNL     1     -10.823   9.836  71.050  1.00  0.00    -0.308 A  
HETATM   15  N   UNL     1     -12.890  10.551  70.957  1.00  0.00    -0.385 NA 
ENDBRANCH   4   6
ENDBRANCH   1   4
BRANCH   1  16
HETATM   16  C   UNL     1      -8.491   7.735  69.157  1.00  0.00    -0.138 C  
HETATM   17  O   UNL     1      -9.552   6.263  66.062  1.00  0.00    -0.078 OA 
HETATM   18  N   UNL     1      -8.379   6.682  69.920  1.00  0.00    -0.130 NA 
HETATM   19  C   UNL     1      -8.745   5.428  69.421  1.00  0.00    -0.105 A  
HETATM   20  N   UNL     1      -8.937   7.651  67.838  1.00  0.00    -0.129 N  
HETATM   21  C   UNL     1      -9.203   6.413  67.233  1.00  0.00    -0.119 C  
HETATM   22  C   UNL     1      -8.743   4.330  70.290  1.00  0.00    -0.118 A  
HETATM   23  C   UNL     1      -9.105   5.227  68.092  1.00  0.00    -0.120 A  
HETATM   24  C   UNL     1      -9.071   3.050  69.833  1.00  0.00    -0.196 A  
HETATM   25  C   UNL     1      -9.386   2.855  68.492  1.00  0.00    -0.249 A  
HETATM   26  F   UNL     1      -9.710   3.714  66.344  1.00  0.00    -0.199 F  
HETATM   27  C   UNL     1      -9.400   3.944  67.627  1.00  0.00    -0.189 A  
BRANCH  20  28
HETATM   28  C   UNL     1      -9.138   8.802  67.017  1.00  0.00    -0.133 A  
HETATM   29  C   UNL     1     -10.375   9.455  66.973  1.00  0.00    -0.322 A  
HETATM   30  C   UNL     1     -10.530  10.612  66.205  1.00  0.00    -0.268 A  
HETATM   31  C   UNL     1      -9.456  11.117  65.473  1.00  0.00    -0.251 A  
HETATM   32  C   UNL     1      -8.238  10.443  65.470  1.00  0.00    -0.162 A  
HETATM   33  C   UNL     1      -8.086   9.279  66.220  1.00  0.00    -0.107 A  
ENDBRANCH  20  28
ENDBRANCH   1  16
TORSDOF 5
ENDMDL
MODEL      119
REMARK 921   NORMALIZED FREE ENERGY PREDICTED BY IDOCK:   -6.01 KCAL/MOL
REMARK 922        TOTAL FREE ENERGY PREDICTED BY IDOCK:   -7.84 KCAL/MOL
REMARK 923 INTER-LIGAND FREE ENERGY PREDICTED BY IDOCK:   -6.56 KCAL/MOL
REMARK 924 INTRA-LIGAND FREE ENERGY PREDICTED BY IDOCK:   -1.28 KCAL/MOL
REMARK 927      BINDING AFFINITY PREDICTED BY RF-SCORE:    0.00 PKD
ROOT
HETATM    1  C   UNL     1      -9.850   8.992  68.253  1.00  0.00    -0.166 C  
ENDROOT
BRANCH   1   2
HETATM    2  C   UNL     1     -10.982   8.064  67.771  1.00  0.00     0.061 C  
HETATM    3  C   UNL     1     -10.561   6.984  66.787  1.00  0.00    -0.297 C  
ENDBRANCH   1   2
BRANCH   1   4
HETATM    4  N   UNL     1      -9.601   8.737  69.678  1.00  0.00    -0.169 NA 
HETATM    5  H   UNL     1      -9.570   9.529  70.319  1.00  0.00     0.000 HD 
BRANCH   4   6
HETATM    6  C   UNL     1      -9.406   7.467  70.181  1.00  0.00    -0.158 A  
HETATM    7  C   UNL     1      -9.982   5.588  71.531  1.00  0.00    -0.177 A  
HETATM    8  N   UNL     1      -8.893   4.865  71.241  1.00  0.00    -0.130 NA 
HETATM    9  N   UNL     1     -11.533   7.249  71.600  1.00  0.00    -0.257 NA 
HETATM   10  C   UNL     1      -8.099   5.540  70.391  1.00  0.00    -0.103 A  
HETATM   11  C   UNL     1     -11.899   6.255  72.395  1.00  0.00    -0.226 A  
HETATM   12  H   UNL     1     -12.034   8.120  71.425  1.00  0.00     0.000 HD 
HETATM   13  N   UNL     1      -8.283   6.768  69.863  1.00  0.00    -0.125 NA 
HETATM   14  C   UNL     1     -10.322   6.846  71.061  1.00  0.00    -0.205 A  
HETATM   15  N   UNL     1     -10.995   5.230  72.376  1.00  0.00    -0.229 NA 
ENDBRANCH   4   6
ENDBRANCH   1   4
BRANCH   1  16
HETATM   16  C   UNL     1     -10.183  10.524  68.092  1.00  0.00    -0.162 C  
HETATM   17  O   UNL     1      -9.945  13.209  65.724  1.00  0.00    -0.281 OA 
HETATM   18  N   UNL     1     -10.899  11.073  69.036  1.00  0.00    -0.214 NA 
HETATM   19  C   UNL     1     -11.259  12.421  68.931  1.00  0.00    -0.280 A  
HETATM   20  N   UNL     1      -9.787  11.230  66.956  1.00  0.00    -0.189 N  
HETATM   21  C   UNL     1     -10.216  12.546  66.725  1.00  0.00    -0.231 C  
HETATM   22  C   UNL     1     -11.913  13.029  70.010  1.00  0.00    -0.383 A  
HETATM   23  C   UNL     1     -10.998  13.179  67.794  1.00  0.00    -0.272 A  
HETATM   24  C   UNL     1     -12.321  14.365  69.943  1.00  0.00    -0.365 A  
HETATM   25  C   UNL     1     -12.094  15.099  68.783  1.00  0.00    -0.199 A  
HETATM   26  F   UNL     1     -11.234  15.244  66.616  1.00  0.00    -0.326 F  
HETATM   27  C   UNL     1     -11.435  14.503  67.713  1.00  0.00    -0.340 A  
BRANCH  20  28
HETATM   28  C   UNL     1      -8.940  10.666  65.954  1.00  0.00    -0.175 A  
HETATM   29  C   UNL     1      -9.473  10.048  64.816  1.00  0.00    -0.366 A  
HETATM   30  C   UNL     1      -8.622   9.555  63.824  1.00  0.00    -0.222 A  
HETATM   31  C   UNL     1      -7.240   9.666  63.966  1.00  0.00    -0.118 A  
HETATM   32  C   UNL     1      -6.702  10.231  65.119  1.00  0.00    -0.120 A  
HETATM   33  C   UNL     1      -7.547  10.708  66.119  1.00  0.00    -0.138 A  
ENDBRANCH  20  28
ENDBRANCH   1  16
TORSDOF 5
ENDMDL
MODEL      120
REMARK 921   NORMALIZED FREE ENERGY PREDICTED BY IDOCK:   -5.96 KCAL/MOL
REMARK 922        TOTAL FREE ENERGY PREDICTED BY IDOCK:   -7.77 KCAL/MOL
REMARK 923 INTER-LIGAND FREE ENERGY PREDICTED BY IDOCK:   -6.71 KCAL/MOL
REMARK 924 INTRA-LIGAND FREE ENERGY PREDICTED BY IDOCK:   -1.05 KCAL/MOL
REMARK 927      BINDING AFFINITY PREDICTED BY RF-SCORE:    0.00 PKD
ROOT
HETATM    1  C   UNL     1      -9.216   9.695  67.860  1.00  0.00    -0.124 C  
ENDROOT
BRANCH   1   2
HETATM    2  C   UNL     1      -7.816  10.327  67.980  1.00  0.00    -0.100 C  
HETATM    3  C   UNL     1      -6.723   9.394  68.478  1.00  0.00    -0.058 C  
ENDBRANCH   1   2
BRANCH   1   4
HETATM    4  N   UNL     1      -9.695   9.860  66.482  1.00  0.00    -0.192 NA 
HETATM    5  H   UNL     1     -10.609  10.287  66.329  1.00  0.00     0.000 HD 
BRANCH   4   6
HETATM    6  C   UNL     1      -8.958   9.458  65.387  1.00  0.00    -0.206 A  
HETATM    7  C   UNL     1      -7.812   7.851  64.051  1.00  0.00    -0.138 A  
HETATM    8  N   UNL     1      -7.363   8.719  63.136  1.00  0.00    -0.098 NA 
HETATM    9  N   UNL     1      -8.845   6.938  65.859  1.00  0.00    -0.264 NA 
HETATM   10  C   UNL     1      -7.773   9.964  63.436  1.00  0.00    -0.145 A  
HETATM   11  C   UNL     1      -8.204   5.998  65.183  1.00  0.00    -0.142 A  
HETATM   12  H   UNL     1      -9.401   6.824  66.707  1.00  0.00     0.000 HD 
HETATM   13  N   UNL     1      -8.519  10.376  64.483  1.00  0.00    -0.177 NA 
HETATM   14  C   UNL     1      -8.596   8.110  65.164  1.00  0.00    -0.071 A  
HETATM   15  N   UNL     1      -7.574   6.505  64.081  1.00  0.00    -0.093 NA 
ENDBRANCH   4   6
ENDBRANCH   1   4
BRANCH   1  16
HETATM   16  C   UNL     1     -10.282  10.348  68.820  1.00  0.00    -0.187 C  
HETATM   17  O   UNL     1     -12.277   9.608  71.710  1.00  0.00    -0.374 OA 
HETATM   18  N   UNL     1     -10.497  11.627  68.678  1.00  0.00    -0.209 NA 
HETATM   19  C   UNL     1     -11.405  12.272  69.524  1.00  0.00    -0.187 A  
HETATM   20  N   UNL     1     -10.907   9.598  69.816  1.00  0.00    -0.240 N  
HETATM   21  C   UNL     1     -11.734  10.200  70.777  1.00  0.00    -0.357 C  
HETATM   22  C   UNL     1     -11.721  13.614  69.277  1.00  0.00    -0.376 A  
HETATM   23  C   UNL     1     -12.000  11.634  70.608  1.00  0.00    -0.356 A  
HETATM   24  C   UNL     1     -12.600  14.311  70.112  1.00  0.00    -0.338 A  
HETATM   25  C   UNL     1     -13.154  13.675  71.218  1.00  0.00    -0.357 A  
HETATM   26  F   UNL     1     -13.407  11.762  72.536  1.00  0.00    -0.546 F  
HETATM   27  C   UNL     1     -12.851  12.339  71.462  1.00  0.00    -0.280 A  
BRANCH  20  28
HETATM   28  C   UNL     1     -10.742   8.184  69.935  1.00  0.00    -0.241 A  
HETATM   29  C   UNL     1     -11.383   7.302  69.057  1.00  0.00     0.213 A  
HETATM   30  C   UNL     1     -11.160   5.926  69.159  1.00  0.00    -0.328 A  
HETATM   31  C   UNL     1     -10.307   5.425  70.141  1.00  0.00    -0.361 A  
HETATM   32  C   UNL     1      -9.708   6.292  71.051  1.00  0.00    -0.196 A  
HETATM   33  C   UNL     1      -9.942   7.662  70.964  1.00  0.00    -0.188 A  
ENDBRANCH  20  28
ENDBRANCH   1  16
TORSDOF 5
ENDMDL
MODEL      121
REMARK 921   NORMALIZED FREE ENERGY PREDICTED BY IDOCK:   -5.92 KCAL/MOL
REMARK 922        TOTAL FREE ENERGY PREDICTED BY IDOCK:   -7.71 KCAL/MOL
REMARK 923 INTER-LIGAND FREE ENERGY PREDICTED BY IDOCK:   -7.00 KCAL/MOL
REMARK 924 INTRA-LIGAND FREE ENERGY PREDICTED BY IDOCK:   -0.71 KCAL/MOL
REMARK 927      BINDING AFFINITY PREDICTED BY RF-SCORE:    0.00 PKD
ROOT
HETATM    1  C   UNL     1      -9.485   8.232  66.935  1.00  0.00    -0.186 C  
ENDROOT
BRANCH   1   2
HETATM    2  C   UNL     1      -8.197   7.690  66.285  1.00  0.00    -0.120 C  
HETATM    3  C   UNL     1      -8.237   7.565  64.771  1.00  0.00    -0.068 C  
ENDBRANCH   1   2
BRANCH   1   4
HETATM    4  N   UNL     1      -9.294   9.652  67.257  1.00  0.00    -0.137 NA 
HETATM    5  H   UNL     1      -8.472   9.926  67.796  1.00  0.00     0.000 HD 
BRANCH   4   6
HETATM    6  C   UNL     1     -10.183  10.629  66.859  1.00  0.00    -0.223 A  
HETATM    7  C   UNL     1     -11.725  12.406  67.246  1.00  0.00    -0.349 A  
HETATM    8  N   UNL     1     -12.071  12.576  65.964  1.00  0.00    -0.612 NA 
HETATM    9  N   UNL     1     -10.742  11.644  69.149  1.00  0.00    -0.360 NA 
HETATM   10  C   UNL     1     -11.404  11.708  65.183  1.00  0.00    -0.156 A  
HETATM   11  C   UNL     1     -11.607  12.603  69.440  1.00  0.00    -0.306 A  
HETATM   12  H   UNL     1     -10.151  11.123  69.797  1.00  0.00     0.000 HD 
HETATM   13  N   UNL     1     -10.509  10.765  65.545  1.00  0.00    -0.230 NA 
HETATM   14  C   UNL     1     -10.816  11.502  67.773  1.00  0.00    -0.221 A  
HETATM   15  N   UNL     1     -12.216  13.095  68.319  1.00  0.00    -0.154 NA 
ENDBRANCH   4   6
ENDBRANCH   1   4
BRANCH   1  16
HETATM   16  C   UNL     1      -9.875   7.487  68.268  1.00  0.00    -0.163 C  
HETATM   17  O   UNL     1     -10.021   4.201  69.701  1.00  0.00    -0.195 OA 
HETATM   18  N   UNL     1     -10.133   8.235  69.306  1.00  0.00    -0.194 NA 
HETATM   19  C   UNL     1     -10.450   7.631  70.528  1.00  0.00    -0.220 A  
HETATM   20  N   UNL     1      -9.872   6.094  68.339  1.00  0.00    -0.122 N  
HETATM   21  C   UNL     1     -10.059   5.423  69.558  1.00  0.00    -0.240 C  
HETATM   22  C   UNL     1     -10.851   8.443  71.596  1.00  0.00    -0.335 A  
HETATM   23  C   UNL     1     -10.376   6.256  70.724  1.00  0.00    -0.256 A  
HETATM   24  C   UNL     1     -11.149   7.890  72.846  1.00  0.00    -0.442 A  
HETATM   25  C   UNL     1     -11.028   6.519  73.042  1.00  0.00    -0.270 A  
HETATM   26  F   UNL     1     -10.537   4.391  72.210  1.00  0.00    -0.253 F  
HETATM   27  C   UNL     1     -10.640   5.707  71.981  1.00  0.00    -0.229 A  
BRANCH  20  28
HETATM   28  C   UNL     1      -9.669   5.263  67.195  1.00  0.00    -0.151 A  
HETATM   29  C   UNL     1      -8.448   4.615  66.977  1.00  0.00    -0.105 A  
HETATM   30  C   UNL     1      -8.293   3.763  65.880  1.00  0.00    -0.109 A  
HETATM   31  C   UNL     1      -9.350   3.563  64.993  1.00  0.00    -0.155 A  
HETATM   32  C   UNL     1     -10.549   4.246  65.174  1.00  0.00    -0.169 A  
HETATM   33  C   UNL     1     -10.701   5.110  66.257  1.00  0.00    -0.272 A  
ENDBRANCH  20  28
ENDBRANCH   1  16
TORSDOF 5
ENDMDL
MODEL      122
REMARK 921   NORMALIZED FREE ENERGY PREDICTED BY IDOCK:   -5.91 KCAL/MOL
REMARK 922        TOTAL FREE ENERGY PREDICTED BY IDOCK:   -7.71 KCAL/MOL
REMARK 923 INTER-LIGAND FREE ENERGY PREDICTED BY IDOCK:   -7.50 KCAL/MOL
REMARK 924 INTRA-LIGAND FREE ENERGY PREDICTED BY IDOCK:   -0.21 KCAL/MOL
REMARK 927      BINDING AFFINITY PREDICTED BY RF-SCORE:    0.00 PKD
ROOT
HETATM    1  C   UNL     1     -10.186  11.048  68.101  1.00  0.00    -0.182 C  
ENDROOT
BRANCH   1   2
HETATM    2  C   UNL     1     -11.725  11.123  68.053  1.00  0.00    -0.288 C  
HETATM    3  C   UNL     1     -12.356  12.122  69.009  1.00  0.00     0.144 C  
ENDBRANCH   1   2
BRANCH   1   4
HETATM    4  N   UNL     1      -9.771  10.655  69.453  1.00  0.00    -0.387 NA 
HETATM    5  H   UNL     1      -9.023  11.178  69.908  1.00  0.00     0.000 HD 
BRANCH   4   6
HETATM    6  C   UNL     1     -10.355   9.605  70.132  1.00  0.00    -0.266 A  
HETATM    7  C   UNL     1     -11.050   7.338  70.379  1.00  0.00    -0.268 A  
HETATM    8  N   UNL     1     -11.650   7.501  71.565  1.00  0.00    -0.264 NA 
HETATM    9  N   UNL     1      -9.907   7.719  68.451  1.00  0.00    -0.164 NA 
HETATM   10  C   UNL     1     -11.547   8.780  71.967  1.00  0.00    -0.366 A  
HETATM   11  C   UNL     1     -10.290   6.453  68.507  1.00  0.00    -0.197 A  
HETATM   12  H   UNL     1      -9.373   8.174  67.710  1.00  0.00     0.000 HD 
HETATM   13  N   UNL     1     -10.956   9.816  71.335  1.00  0.00    -0.290 NA 
HETATM   14  C   UNL     1     -10.390   8.289  69.617  1.00  0.00    -0.218 A  
HETATM   15  N   UNL     1     -10.976   6.180  69.658  1.00  0.00    -0.354 NA 
ENDBRANCH   4   6
ENDBRANCH   1   4
BRANCH   1  16
HETATM   16  C   UNL     1      -9.482  12.417  67.762  1.00  0.00    -0.199 C  
HETATM   17  O   UNL     1      -9.619  15.136  65.425  1.00  0.00    -0.270 OA 
HETATM   18  N   UNL     1      -8.622  12.868  68.634  1.00  0.00    -0.023 NA 
HETATM   19  C   UNL     1      -7.991  14.096  68.408  1.00  0.00    -0.142 A  
HETATM   20  N   UNL     1      -9.823  13.136  66.617  1.00  0.00    -0.254 N  
HETATM   21  C   UNL     1      -9.324  14.428  66.388  1.00  0.00    -0.258 C  
HETATM   22  C   UNL     1      -6.978  14.504  69.284  1.00  0.00    -0.141 A  
HETATM   23  C   UNL     1      -8.336  14.931  67.350  1.00  0.00    -0.213 A  
HETATM   24  C   UNL     1      -6.337  15.736  69.119  1.00  0.00    -0.134 A  
HETATM   25  C   UNL     1      -6.722  16.581  68.083  1.00  0.00    -0.145 A  
HETATM   26  F   UNL     1      -8.062  17.018  66.219  1.00  0.00    -0.258 F  
HETATM   27  C   UNL     1      -7.721  16.176  67.204  1.00  0.00    -0.194 A  
BRANCH  20  28
HETATM   28  C   UNL     1     -10.702  12.621  65.616  1.00  0.00    -0.269 A  
HETATM   29  C   UNL     1     -12.058  12.968  65.593  1.00  0.00    -0.507 A  
HETATM   30  C   UNL     1     -12.884  12.496  64.569  1.00  0.00    -0.352 A  
HETATM   31  C   UNL     1     -12.366  11.669  63.574  1.00  0.00    -0.349 A  
HETATM   32  C   UNL     1     -11.030  11.277  63.620  1.00  0.00    -0.369 A  
HETATM   33  C   UNL     1     -10.208  11.732  64.649  1.00  0.00    -0.326 A  
ENDBRANCH  20  28
ENDBRANCH   1  16
TORSDOF 5
ENDMDL
MODEL      123
REMARK 921   NORMALIZED FREE ENERGY PREDICTED BY IDOCK:   -5.91 KCAL/MOL
REMARK 922        TOTAL FREE ENERGY PREDICTED BY IDOCK:   -7.70 KCAL/MOL
REMARK 923 INTER-LIGAND FREE ENERGY PREDICTED BY IDOCK:   -7.32 KCAL/MOL
REMARK 924 INTRA-LIGAND FREE ENERGY PREDICTED BY IDOCK:   -0.38 KCAL/MOL
REMARK 927      BINDING AFFINITY PREDICTED BY RF-SCORE:    0.00 PKD
ROOT
HETATM    1  C   UNL     1      -9.095  14.297  66.681  1.00  0.00    -0.226 C  
ENDROOT
BRANCH   1   2
HETATM    2  C   UNL     1      -8.157  15.387  67.235  1.00  0.00    -0.228 C  
HETATM    3  C   UNL     1      -7.994  16.613  66.352  1.00  0.00    -0.360 C  
ENDBRANCH   1   2
BRANCH   1   4
HETATM    4  N   UNL     1     -10.474  14.610  67.075  1.00  0.00    -0.267 NA 
HETATM    5  H   UNL     1     -11.208  14.563  66.369  1.00  0.00     0.000 HD 
BRANCH   4   6
HETATM    6  C   UNL     1     -10.814  14.967  68.364  1.00  0.00    -0.256 A  
HETATM    7  C   UNL     1     -11.685  14.546  70.542  1.00  0.00    -0.276 A  
HETATM    8  N   UNL     1     -11.568  15.802  70.989  1.00  0.00    -0.376 NA 
HETATM    9  N   UNL     1     -11.618  12.689  69.231  1.00  0.00    -0.303 NA 
HETATM   10  C   UNL     1     -11.050  16.590  70.030  1.00  0.00    -0.208 A  
HETATM   11  C   UNL     1     -12.141  12.391  70.410  1.00  0.00    -0.297 A  
HETATM   12  H   UNL     1     -11.457  12.059  68.445  1.00  0.00     0.000 HD 
HETATM   13  N   UNL     1     -10.682  16.258  68.775  1.00  0.00    -0.288 NA 
HETATM   14  C   UNL     1     -11.339  14.045  69.298  1.00  0.00    -0.273 A  
HETATM   15  N   UNL     1     -12.192  13.481  71.233  1.00  0.00    -0.225 NA 
ENDBRANCH   4   6
ENDBRANCH   1   4
BRANCH   1  16
HETATM   16  C   UNL     1      -8.760  12.852  67.215  1.00  0.00    -0.204 C  
HETATM   17  O   UNL     1      -9.287   9.388  66.444  1.00  0.00    -0.162 OA 
HETATM   18  N   UNL     1      -7.907  12.772  68.200  1.00  0.00    -0.137 NA 
HETATM   19  C   UNL     1      -7.542  11.515  68.694  1.00  0.00    -0.134 A  
HETATM   20  N   UNL     1      -9.302  11.718  66.609  1.00  0.00    -0.193 N  
HETATM   21  C   UNL     1      -8.888  10.427  66.969  1.00  0.00    -0.136 C  
HETATM   22  C   UNL     1      -6.729  11.449  69.832  1.00  0.00    -0.032 A  
HETATM   23  C   UNL     1      -7.949  10.328  68.093  1.00  0.00    -0.109 A  
HETATM   24  C   UNL     1      -6.311  10.217  70.346  1.00  0.00    -0.127 A  
HETATM   25  C   UNL     1      -6.689   9.039  69.711  1.00  0.00    -0.049 A  
HETATM   26  F   UNL     1      -7.847   7.942  68.004  1.00  0.00    -0.114 F  
HETATM   27  C   UNL     1      -7.505   9.099  68.586  1.00  0.00    -0.080 A  
BRANCH  20  28
HETATM   28  C   UNL     1     -10.294  11.792  65.584  1.00  0.00    -0.252 A  
HETATM   29  C   UNL     1     -11.622  12.118  65.881  1.00  0.00    -0.425 A  
HETATM   30  C   UNL     1     -12.561  12.239  64.852  1.00  0.00    -0.242 A  
HETATM   31  C   UNL     1     -12.181  12.025  63.528  1.00  0.00    -0.653 A  
HETATM   32  C   UNL     1     -10.875  11.648  63.230  1.00  0.00    -0.380 A  
HETATM   33  C   UNL     1      -9.941  11.509  64.255  1.00  0.00    -0.312 A  
ENDBRANCH  20  28
ENDBRANCH   1  16
TORSDOF 5
ENDMDL
MODEL      124
REMARK 921   NORMALIZED FREE ENERGY PREDICTED BY IDOCK:   -5.89 KCAL/MOL
REMARK 922        TOTAL FREE ENERGY PREDICTED BY IDOCK:   -7.68 KCAL/MOL
REMARK 923 INTER-LIGAND FREE ENERGY PREDICTED BY IDOCK:   -6.11 KCAL/MOL
REMARK 924 INTRA-LIGAND FREE ENERGY PREDICTED BY IDOCK:   -1.56 KCAL/MOL
REMARK 927      BINDING AFFINITY PREDICTED BY RF-SCORE:    0.00 PKD
ROOT
HETATM    1  C   UNL     1     -10.800   9.808  69.736  1.00  0.00    -0.257 C  
ENDROOT
BRANCH   1   2
HETATM    2  C   UNL     1     -11.797  10.977  69.605  1.00  0.00    -0.414 C  
HETATM    3  C   UNL     1     -12.493  11.384  70.894  1.00  0.00    -0.478 C  
ENDBRANCH   1   2
BRANCH   1   4
HETATM    4  N   UNL     1     -10.517   9.583  71.159  1.00  0.00    -0.315 NA 
HETATM    5  H   UNL     1     -10.196  10.369  71.725  1.00  0.00     0.000 HD 
BRANCH   4   6
HETATM    6  C   UNL     1     -10.667   8.350  71.759  1.00  0.00    -0.285 A  
HETATM    7  C   UNL     1     -10.033   6.607  73.257  1.00  0.00    -0.191 A  
HETATM    8  N   UNL     1     -10.999   5.752  72.898  1.00  0.00    -0.258 NA 
HETATM    9  N   UNL     1      -8.699   8.442  73.404  1.00  0.00    -0.327 NA 
HETATM   10  C   UNL     1     -11.771   6.297  71.942  1.00  0.00    -0.316 A  
HETATM   11  C   UNL     1      -8.272   7.505  74.236  1.00  0.00    -0.200 A  
HETATM   12  H   UNL     1      -8.304   9.371  73.259  1.00  0.00     0.000 HD 
HETATM   13  N   UNL     1     -11.662   7.511  71.361  1.00  0.00    -0.274 NA 
HETATM   14  C   UNL     1      -9.799   7.884  72.773  1.00  0.00    -0.270 A  
HETATM   15  N   UNL     1      -9.053   6.385  74.184  1.00  0.00    -0.148 NA 
ENDBRANCH   4   6
ENDBRANCH   1   4
BRANCH   1  16
HETATM   16  C   UNL     1      -9.426  10.072  69.010  1.00  0.00    -0.187 C  
HETATM   17  O   UNL     1      -7.051   8.479  66.844  1.00  0.00    -0.073 OA 
HETATM   18  N   UNL     1      -8.968  11.294  69.044  1.00  0.00    -0.038 NA 
HETATM   19  C   UNL     1      -7.772  11.599  68.386  1.00  0.00    -0.130 A  
HETATM   20  N   UNL     1      -8.778   9.056  68.308  1.00  0.00    -0.130 N  
HETATM   21  C   UNL     1      -7.643   9.316  67.525  1.00  0.00    -0.088 C  
HETATM   22  C   UNL     1      -7.226  12.880  68.540  1.00  0.00    -0.107 A  
HETATM   23  C   UNL     1      -7.106  10.681  67.579  1.00  0.00    -0.089 A  
HETATM   24  C   UNL     1      -6.049  13.243  67.879  1.00  0.00    -0.143 A  
HETATM   25  C   UNL     1      -5.417  12.331  67.040  1.00  0.00    -0.020 A  
HETATM   26  F   UNL     1      -5.310  10.205  66.077  1.00  0.00    -0.039 F  
HETATM   27  C   UNL     1      -5.949  11.055  66.892  1.00  0.00    -0.088 A  
BRANCH  20  28
HETATM   28  C   UNL     1      -9.225   7.699  68.326  1.00  0.00    -0.139 A  
HETATM   29  C   UNL     1      -8.673   6.765  69.210  1.00  0.00    -0.135 A  
HETATM   30  C   UNL     1      -9.168   5.458  69.247  1.00  0.00    -0.149 A  
HETATM   31  C   UNL     1     -10.205   5.077  68.397  1.00  0.00    -0.143 A  
HETATM   32  C   UNL     1     -10.723   5.987  67.479  1.00  0.00    -0.383 A  
HETATM   33  C   UNL     1     -10.220   7.285  67.428  1.00  0.00    -0.304 A  
ENDBRANCH  20  28
ENDBRANCH   1  16
TORSDOF 5
ENDMDL
MODEL      125
REMARK 921   NORMALIZED FREE ENERGY PREDICTED BY IDOCK:   -5.87 KCAL/MOL
REMARK 922        TOTAL FREE ENERGY PREDICTED BY IDOCK:   -7.65 KCAL/MOL
REMARK 923 INTER-LIGAND FREE ENERGY PREDICTED BY IDOCK:   -7.31 KCAL/MOL
REMARK 924 INTRA-LIGAND FREE ENERGY PREDICTED BY IDOCK:   -0.34 KCAL/MOL
REMARK 927      BINDING AFFINITY PREDICTED BY RF-SCORE:    0.00 PKD
ROOT
HETATM    1  C   UNL     1     -10.299  10.905  68.300  1.00  0.00    -0.173 C  
ENDROOT
BRANCH   1   2
HETATM    2  C   UNL     1     -11.713  10.387  68.629  1.00  0.00    -0.076 C  
HETATM    3  C   UNL     1     -12.341  10.968  69.885  1.00  0.00    -0.356 C  
ENDBRANCH   1   2
BRANCH   1   4
HETATM    4  N   UNL     1      -9.441  10.726  69.478  1.00  0.00    -0.425 NA 
HETATM    5  H   UNL     1      -8.973  11.542  69.872  1.00  0.00     0.000 HD 
BRANCH   4   6
HETATM    6  C   UNL     1      -9.244   9.496  70.071  1.00  0.00    -0.234 A  
HETATM    7  C   UNL     1      -8.649   7.187  70.065  1.00  0.00    -0.141 A  
HETATM    8  N   UNL     1      -8.936   6.962  71.353  1.00  0.00    -0.141 NA 
HETATM    9  N   UNL     1      -8.360   8.191  68.046  1.00  0.00    -0.128 NA 
HETATM   10  C   UNL     1      -9.379   8.091  71.935  1.00  0.00    -0.167 A  
HETATM   11  C   UNL     1      -8.043   6.908  67.962  1.00  0.00    -0.115 A  
HETATM   12  H   UNL     1      -8.322   8.890  67.304  1.00  0.00     0.000 HD 
HETATM   13  N   UNL     1      -9.551   9.311  71.384  1.00  0.00    -0.257 NA 
HETATM   14  C   UNL     1      -8.754   8.376  69.361  1.00  0.00    -0.137 A  
HETATM   15  N   UNL     1      -8.197   6.268  69.160  1.00  0.00    -0.113 NA 
ENDBRANCH   4   6
ENDBRANCH   1   4
BRANCH   1  16
HETATM   16  C   UNL     1     -10.266  12.432  67.911  1.00  0.00    -0.213 C  
HETATM   17  O   UNL     1     -10.173  14.594  65.049  1.00  0.00    -0.401 OA 
HETATM   18  N   UNL     1     -10.453  13.290  68.878  1.00  0.00    -0.158 NA 
HETATM   19  C   UNL     1     -10.471  14.659  68.590  1.00  0.00    -0.244 A  
HETATM   20  N   UNL     1     -10.115  12.833  66.584  1.00  0.00    -0.239 N  
HETATM   21  C   UNL     1     -10.246  14.178  66.205  1.00  0.00    -0.295 C  
HETATM   22  C   UNL     1     -10.542  15.569  69.652  1.00  0.00    -0.285 A  
HETATM   23  C   UNL     1     -10.430  15.151  67.289  1.00  0.00    -0.271 A  
HETATM   24  C   UNL     1     -10.594  16.947  69.415  1.00  0.00    -0.292 A  
HETATM   25  C   UNL     1     -10.596  17.424  68.109  1.00  0.00    -0.376 A  
HETATM   26  F   UNL     1     -10.519  17.024  65.808  1.00  0.00    -0.338 F  
HETATM   27  C   UNL     1     -10.516  16.524  67.051  1.00  0.00    -0.289 A  
BRANCH  20  28
HETATM   28  C   UNL     1      -9.833  11.913  65.528  1.00  0.00    -0.232 A  
HETATM   29  C   UNL     1     -10.736  11.716  64.477  1.00  0.00    -0.378 A  
HETATM   30  C   UNL     1     -10.411  10.853  63.427  1.00  0.00    -0.299 A  
HETATM   31  C   UNL     1      -9.191  10.177  63.427  1.00  0.00    -0.324 A  
HETATM   32  C   UNL     1      -8.312  10.327  64.495  1.00  0.00    -0.168 A  
HETATM   33  C   UNL     1      -8.641  11.173  65.552  1.00  0.00    -0.045 A  
ENDBRANCH  20  28
ENDBRANCH   1  16
TORSDOF 5
ENDMDL
MODEL      126
REMARK 921   NORMALIZED FREE ENERGY PREDICTED BY IDOCK:   -5.82 KCAL/MOL
REMARK 922        TOTAL FREE ENERGY PREDICTED BY IDOCK:   -7.58 KCAL/MOL
REMARK 923 INTER-LIGAND FREE ENERGY PREDICTED BY IDOCK:   -7.57 KCAL/MOL
REMARK 924 INTRA-LIGAND FREE ENERGY PREDICTED BY IDOCK:   -0.02 KCAL/MOL
REMARK 927      BINDING AFFINITY PREDICTED BY RF-SCORE:    0.00 PKD
ROOT
HETATM    1  C   UNL     1     -10.132   9.831  69.044  1.00  0.00    -0.187 C  
ENDROOT
BRANCH   1   2
HETATM    2  C   UNL     1      -8.636   9.672  69.382  1.00  0.00    -0.160 C  
HETATM    3  C   UNL     1      -7.812  10.947  69.292  1.00  0.00    -0.096 C  
ENDBRANCH   1   2
BRANCH   1   4
HETATM    4  N   UNL     1     -10.739   8.498  68.941  1.00  0.00    -0.405 NA 
HETATM    5  H   UNL     1     -10.981   8.140  68.017  1.00  0.00     0.000 HD 
BRANCH   4   6
HETATM    6  C   UNL     1     -10.994   7.711  70.046  1.00  0.00    -0.228 A  
HETATM    7  C   UNL     1     -10.591   5.864  71.497  1.00  0.00    -0.245 A  
HETATM    8  N   UNL     1     -11.635   6.086  72.305  1.00  0.00    -0.312 NA 
HETATM    9  N   UNL     1      -9.060   6.039  69.825  1.00  0.00    -0.139 NA 
HETATM   10  C   UNL     1     -12.317   7.170  71.896  1.00  0.00    -0.317 A  
HETATM   11  C   UNL     1      -8.795   4.977  70.570  1.00  0.00    -0.121 A  
HETATM   12  H   UNL     1      -8.542   6.372  69.012  1.00  0.00     0.000 HD 
HETATM   13  N   UNL     1     -12.070   7.971  70.838  1.00  0.00    -0.215 NA 
HETATM   14  C   UNL     1     -10.194   6.598  70.391  1.00  0.00    -0.188 A  
HETATM   15  N   UNL     1      -9.691   4.840  71.595  1.00  0.00    -0.161 NA 
ENDBRANCH   4   6
ENDBRANCH   1   4
BRANCH   1  16
HETATM   16  C   UNL     1     -10.390  10.582  67.684  1.00  0.00    -0.217 C  
HETATM   17  O   UNL     1      -9.935  10.206  64.144  1.00  0.00    -0.278 OA 
HETATM   18  N   UNL     1     -11.119  11.663  67.737  1.00  0.00    -0.231 NA 
HETATM   19  C   UNL     1     -11.415  12.354  66.558  1.00  0.00    -0.371 A  
HETATM   20  N   UNL     1      -9.916  10.066  66.477  1.00  0.00    -0.214 N  
HETATM   21  C   UNL     1     -10.276  10.636  65.246  1.00  0.00    -0.282 C  
HETATM   22  C   UNL     1     -12.086  13.580  66.645  1.00  0.00    -0.447 A  
HETATM   23  C   UNL     1     -11.074  11.867  65.300  1.00  0.00    -0.354 A  
HETATM   24  C   UNL     1     -12.431  14.295  65.494  1.00  0.00    -0.434 A  
HETATM   25  C   UNL     1     -12.124  13.776  64.240  1.00  0.00    -0.481 A  
HETATM   26  F   UNL     1     -11.169  12.099  62.923  1.00  0.00    -0.329 F  
HETATM   27  C   UNL     1     -11.448  12.564  64.148  1.00  0.00    -0.385 A  
BRANCH  20  28
HETATM   28  C   UNL     1      -9.054   8.930  66.409  1.00  0.00    -0.174 A  
HETATM   29  C   UNL     1      -7.664   9.077  66.337  1.00  0.00    -0.099 A  
HETATM   30  C   UNL     1      -6.840   7.948  66.330  1.00  0.00    -0.058 A  
HETATM   31  C   UNL     1      -7.398   6.672  66.383  1.00  0.00    -0.073 A  
HETATM   32  C   UNL     1      -8.782   6.517  66.402  1.00  0.00    -0.142 A  
HETATM   33  C   UNL     1      -9.607   7.640  66.391  1.00  0.00    -0.223 A  
ENDBRANCH  20  28
ENDBRANCH   1  16
TORSDOF 5
ENDMDL
MODEL      127
REMARK 921   NORMALIZED FREE ENERGY PREDICTED BY IDOCK:   -5.80 KCAL/MOL
REMARK 922        TOTAL FREE ENERGY PREDICTED BY IDOCK:   -7.56 KCAL/MOL
REMARK 923 INTER-LIGAND FREE ENERGY PREDICTED BY IDOCK:   -6.41 KCAL/MOL
REMARK 924 INTRA-LIGAND FREE ENERGY PREDICTED BY IDOCK:   -1.15 KCAL/MOL
REMARK 927      BINDING AFFINITY PREDICTED BY RF-SCORE:    0.00 PKD
ROOT
HETATM    1  C   UNL     1     -10.910  11.503  66.249  1.00  0.00    -0.282 C  
ENDROOT
BRANCH   1   2
HETATM    2  C   UNL     1     -11.156  11.422  64.730  1.00  0.00    -0.258 C  
HETATM    3  C   UNL     1     -12.460  12.040  64.250  1.00  0.00    -0.388 C  
ENDBRANCH   1   2
BRANCH   1   4
HETATM    4  N   UNL     1     -12.166  11.869  66.915  1.00  0.00    -0.246 NA 
HETATM    5  H   UNL     1     -13.037  11.807  66.388  1.00  0.00     0.000 HD 
BRANCH   4   6
HETATM    6  C   UNL     1     -12.213  12.295  68.227  1.00  0.00     0.215 A  
HETATM    7  C   UNL     1     -12.394  11.962  70.580  1.00  0.00    -0.313 A  
HETATM    8  N   UNL     1     -12.386  13.259  70.910  1.00  0.00    -0.368 NA 
HETATM    9  N   UNL     1     -12.348  10.018  69.402  1.00  0.00    -0.283 NA 
HETATM   10  C   UNL     1     -12.285  14.019  69.805  1.00  0.00    -0.341 A  
HETATM   11  C   UNL     1     -12.482   9.760  70.694  1.00  0.00    -0.142 A  
HETATM   12  H   UNL     1     -12.290   9.345  68.637  1.00  0.00     0.000 HD 
HETATM   13  N   UNL     1     -12.206  13.625  68.516  1.00  0.00    -0.270 NA 
HETATM   14  C   UNL     1     -12.304  11.400  69.317  1.00  0.00    -0.082 A  
HETATM   15  N   UNL     1     -12.506  10.905  71.440  1.00  0.00    -0.369 NA 
ENDBRANCH   4   6
ENDBRANCH   1   4
BRANCH   1  16
HETATM   16  C   UNL     1      -9.824  12.571  66.652  1.00  0.00    -0.241 C  
HETATM   17  O   UNL     1      -6.545  12.831  68.086  1.00  0.00    -0.070 OA 
HETATM   18  N   UNL     1     -10.037  13.801  66.269  1.00  0.00    -0.292 NA 
HETATM   19  C   UNL     1      -9.092  14.788  66.564  1.00  0.00    -0.260 A  
HETATM   20  N   UNL     1      -8.660  12.195  67.324  1.00  0.00    -0.173 N  
HETATM   21  C   UNL     1      -7.615  13.106  67.544  1.00  0.00    -0.163 C  
HETATM   22  C   UNL     1      -9.394  16.122  66.263  1.00  0.00    -0.351 A  
HETATM   23  C   UNL     1      -7.859  14.496  67.140  1.00  0.00    -0.131 A  
HETATM   24  C   UNL     1      -8.470  17.142  66.511  1.00  0.00    -0.309 A  
HETATM   25  C   UNL     1      -7.224  16.831  67.045  1.00  0.00    -0.236 A  
HETATM   26  F   UNL     1      -5.713  15.251  67.871  1.00  0.00    -0.113 F  
HETATM   27  C   UNL     1      -6.923  15.509  67.356  1.00  0.00    -0.198 A  
BRANCH  20  28
HETATM   28  C   UNL     1      -8.448  10.872  67.817  1.00  0.00    -0.124 A  
HETATM   29  C   UNL     1      -7.857   9.886  67.019  1.00  0.00    -0.102 A  
HETATM   30  C   UNL     1      -7.609   8.615  67.544  1.00  0.00    -0.094 A  
HETATM   31  C   UNL     1      -7.958   8.320  68.861  1.00  0.00    -0.113 A  
HETATM   32  C   UNL     1      -8.594   9.279  69.644  1.00  0.00    -0.151 A  
HETATM   33  C   UNL     1      -8.859  10.542  69.118  1.00  0.00    -0.161 A  
ENDBRANCH  20  28
ENDBRANCH   1  16
TORSDOF 5
ENDMDL
MODEL      128
REMARK 921   NORMALIZED FREE ENERGY PREDICTED BY IDOCK:   -5.79 KCAL/MOL
REMARK 922        TOTAL FREE ENERGY PREDICTED BY IDOCK:   -7.55 KCAL/MOL
REMARK 923 INTER-LIGAND FREE ENERGY PREDICTED BY IDOCK:   -6.62 KCAL/MOL
REMARK 924 INTRA-LIGAND FREE ENERGY PREDICTED BY IDOCK:   -0.93 KCAL/MOL
REMARK 927      BINDING AFFINITY PREDICTED BY RF-SCORE:    0.00 PKD
ROOT
HETATM    1  C   UNL     1      -7.669  14.510  67.549  1.00  0.00    -0.188 C  
ENDROOT
BRANCH   1   2
HETATM    2  C   UNL     1      -6.156  14.805  67.540  1.00  0.00     0.017 C  
HETATM    3  C   UNL     1      -5.544  15.100  68.900  1.00  0.00    -0.098 C  
ENDBRANCH   1   2
BRANCH   1   4
HETATM    4  N   UNL     1      -8.331  15.454  68.458  1.00  0.00    -0.144 NA 
HETATM    5  H   UNL     1      -8.407  15.211  69.446  1.00  0.00     0.000 HD 
BRANCH   4   6
HETATM    6  C   UNL     1      -8.856  16.655  68.028  1.00  0.00    -0.206 A  
HETATM    7  C   UNL     1      -8.908  19.033  67.867  1.00  0.00    -0.301 A  
HETATM    8  N   UNL     1     -10.047  19.104  67.167  1.00  0.00    -0.349 NA 
HETATM    9  N   UNL     1      -7.102  18.253  69.007  1.00  0.00    -0.263 NA 
HETATM   10  C   UNL     1     -10.529  17.870  66.936  1.00  0.00    -0.329 A  
HETATM   11  C   UNL     1      -7.084  19.576  68.984  1.00  0.00    -0.364 A  
HETATM   12  H   UNL     1      -6.418  17.630  69.437  1.00  0.00     0.000 HD 
HETATM   13  N   UNL     1     -10.018  16.681  67.320  1.00  0.00    -0.264 NA 
HETATM   14  C   UNL     1      -8.251  17.900  68.318  1.00  0.00    -0.290 A  
HETATM   15  N   UNL     1      -8.153  20.087  68.300  1.00  0.00    -0.221 NA 
ENDBRANCH   4   6
ENDBRANCH   1   4
BRANCH   1  16
HETATM   16  C   UNL     1      -8.020  13.052  68.032  1.00  0.00    -0.155 C  
HETATM   17  O   UNL     1     -10.373  10.403  67.466  1.00  0.00    -0.197 OA 
HETATM   18  N   UNL     1      -7.156  12.468  68.817  1.00  0.00    -0.097 NA 
HETATM   19  C   UNL     1      -7.393  11.159  69.250  1.00  0.00    -0.097 A  
HETATM   20  N   UNL     1      -9.168  12.401  67.579  1.00  0.00    -0.177 N  
HETATM   21  C   UNL     1      -9.408  11.050  67.872  1.00  0.00    -0.158 C  
HETATM   22  C   UNL     1      -6.525  10.594  70.192  1.00  0.00    -0.152 A  
HETATM   23  C   UNL     1      -8.454  10.395  68.775  1.00  0.00    -0.132 A  
HETATM   24  C   UNL     1      -6.702   9.278  70.634  1.00  0.00    -0.085 A  
HETATM   25  C   UNL     1      -7.740   8.510  70.119  1.00  0.00    -0.086 A  
HETATM   26  F   UNL     1      -9.599   8.298  68.719  1.00  0.00    -0.146 F  
HETATM   27  C   UNL     1      -8.611   9.070  69.190  1.00  0.00    -0.133 A  
BRANCH  20  28
HETATM   28  C   UNL     1     -10.161  13.053  66.785  1.00  0.00    -0.247 A  
HETATM   29  C   UNL     1     -11.339  13.546  67.356  1.00  0.00    -0.338 A  
HETATM   30  C   UNL     1     -12.268  14.230  66.567  1.00  0.00    -0.419 A  
HETATM   31  C   UNL     1     -12.030  14.414  65.206  1.00  0.00    -0.382 A  
HETATM   32  C   UNL     1     -10.886  13.880  64.620  1.00  0.00    -0.420 A  
HETATM   33  C   UNL     1      -9.966  13.183  65.401  1.00  0.00    -0.203 A  
ENDBRANCH  20  28
ENDBRANCH   1  16
TORSDOF 5
ENDMDL
MODEL      129
REMARK 921   NORMALIZED FREE ENERGY PREDICTED BY IDOCK:   -5.75 KCAL/MOL
REMARK 922        TOTAL FREE ENERGY PREDICTED BY IDOCK:   -7.49 KCAL/MOL
REMARK 923 INTER-LIGAND FREE ENERGY PREDICTED BY IDOCK:   -7.47 KCAL/MOL
REMARK 924 INTRA-LIGAND FREE ENERGY PREDICTED BY IDOCK:   -0.02 KCAL/MOL
REMARK 927      BINDING AFFINITY PREDICTED BY RF-SCORE:    0.00 PKD
ROOT
HETATM    1  C   UNL     1      -9.662   9.357  67.874  1.00  0.00    -0.152 C  
ENDROOT
BRANCH   1   2
HETATM    2  C   UNL     1      -8.663   9.956  68.883  1.00  0.00    -0.140 C  
HETATM    3  C   UNL     1      -7.202   9.625  68.625  1.00  0.00    -0.073 C  
ENDBRANCH   1   2
BRANCH   1   4
HETATM    4  N   UNL     1     -11.027   9.660  68.319  1.00  0.00    -0.458 NA 
HETATM    5  H   UNL     1     -11.710   8.903  68.357  1.00  0.00     0.000 HD 
BRANCH   4   6
HETATM    6  C   UNL     1     -11.423  10.930  68.689  1.00  0.00    -0.311 A  
HETATM    7  C   UNL     1     -11.990  13.205  68.260  1.00  0.00    -0.291 A  
HETATM    8  N   UNL     1     -12.165  13.553  69.541  1.00  0.00    -0.280 NA 
HETATM    9  N   UNL     1     -11.563  12.017  66.369  1.00  0.00    -0.500 NA 
HETATM   10  C   UNL     1     -11.943  12.497  70.344  1.00  0.00    -0.251 A  
HETATM   11  C   UNL     1     -11.838  13.275  66.060  1.00  0.00    -0.395 A  
HETATM   12  H   UNL     1     -11.341  11.255  65.729  1.00  0.00     0.000 HD 
HETATM   13  N   UNL     1     -11.586  11.241  70.004  1.00  0.00    -0.317 NA 
HETATM   14  C   UNL     1     -11.644  11.964  67.751  1.00  0.00    -0.323 A  
HETATM   15  N   UNL     1     -12.108  14.023  67.172  1.00  0.00    -0.429 NA 
ENDBRANCH   4   6
ENDBRANCH   1   4
BRANCH   1  16
HETATM   16  C   UNL     1      -9.542   7.793  67.727  1.00  0.00    -0.146 C  
HETATM   17  O   UNL     1     -10.319   4.748  69.461  1.00  0.00    -0.196 OA 
HETATM   18  N   UNL     1      -9.150   7.338  66.568  1.00  0.00    -0.150 NA 
HETATM   19  C   UNL     1      -9.058   5.957  66.365  1.00  0.00    -0.149 A  
HETATM   20  N   UNL     1      -9.908   6.943  68.772  1.00  0.00    -0.147 N  
HETATM   21  C   UNL     1      -9.960   5.551  68.599  1.00  0.00    -0.166 C  
HETATM   22  C   UNL     1      -8.513   5.488  65.163  1.00  0.00    -0.147 A  
HETATM   23  C   UNL     1      -9.495   5.031  67.308  1.00  0.00    -0.149 A  
HETATM   24  C   UNL     1      -8.428   4.117  64.900  1.00  0.00    -0.115 A  
HETATM   25  C   UNL     1      -8.909   3.203  65.831  1.00  0.00    -0.139 A  
HETATM   26  F   UNL     1      -9.892   2.751  67.902  1.00  0.00    -0.232 F  
HETATM   27  C   UNL     1      -9.441   3.664  67.031  1.00  0.00    -0.190 A  
BRANCH  20  28
HETATM   28  C   UNL     1     -10.264   7.424  70.069  1.00  0.00    -0.209 A  
HETATM   29  C   UNL     1      -9.286   7.773  71.007  1.00  0.00    -0.160 A  
HETATM   30  C   UNL     1      -9.661   8.295  72.248  1.00  0.00    -0.362 A  
HETATM   31  C   UNL     1     -11.010   8.461  72.561  1.00  0.00    -0.388 A  
HETATM   32  C   UNL     1     -11.989   8.066  71.653  1.00  0.00    -0.336 A  
HETATM   33  C   UNL     1     -11.619   7.529  70.422  1.00  0.00    -0.172 A  
ENDBRANCH  20  28
ENDBRANCH   1  16
TORSDOF 5
ENDMDL
MODEL      130
REMARK 921   NORMALIZED FREE ENERGY PREDICTED BY IDOCK:   -5.67 KCAL/MOL
REMARK 922        TOTAL FREE ENERGY PREDICTED BY IDOCK:   -7.39 KCAL/MOL
REMARK 923 INTER-LIGAND FREE ENERGY PREDICTED BY IDOCK:   -6.28 KCAL/MOL
REMARK 924 INTRA-LIGAND FREE ENERGY PREDICTED BY IDOCK:   -1.10 KCAL/MOL
REMARK 927      BINDING AFFINITY PREDICTED BY RF-SCORE:    0.00 PKD
ROOT
HETATM    1  C   UNL     1      -9.474  10.533  69.166  1.00  0.00    -0.191 C  
ENDROOT
BRANCH   1   2
HETATM    2  C   UNL     1      -9.637   9.155  69.838  1.00  0.00    -0.206 C  
HETATM    3  C   UNL     1      -9.137   9.070  71.271  1.00  0.00    -0.302 C  
ENDBRANCH   1   2
BRANCH   1   4
HETATM    4  N   UNL     1     -10.805  11.076  68.868  1.00  0.00    -0.202 NA 
HETATM    5  H   UNL     1     -11.155  11.019  67.911  1.00  0.00     0.000 HD 
BRANCH   4   6
HETATM    6  C   UNL     1     -11.601  11.662  69.831  1.00  0.00    -0.288 A  
HETATM    7  C   UNL     1     -12.596  13.519  70.946  1.00  0.00    -0.337 A  
HETATM    8  N   UNL     1     -13.199  12.804  71.904  1.00  0.00    -0.445 NA 
HETATM    9  N   UNL     1     -11.376  14.118  69.124  1.00  0.00    -0.265 NA 
HETATM   10  C   UNL     1     -12.941  11.495  71.740  1.00  0.00    -0.394 A  
HETATM   11  C   UNL     1     -11.871  15.197  69.710  1.00  0.00    -0.333 A  
HETATM   12  H   UNL     1     -10.798  14.078  68.284  1.00  0.00     0.000 HD 
HETATM   13  N   UNL     1     -12.192  10.897  70.789  1.00  0.00    -0.353 NA 
HETATM   14  C   UNL     1     -11.815  13.057  69.899  1.00  0.00    -0.307 A  
HETATM   15  N   UNL     1     -12.619  14.879  70.809  1.00  0.00    -0.331 NA 
ENDBRANCH   4   6
ENDBRANCH   1   4
BRANCH   1  16
HETATM   16  C   UNL     1      -8.665  10.479  67.814  1.00  0.00    -0.122 C  
HETATM   17  O   UNL     1      -5.713  11.801  66.262  1.00  0.00    -0.233 OA 
HETATM   18  N   UNL     1      -9.044   9.591  66.936  1.00  0.00    -0.133 NA 
HETATM   19  C   UNL     1      -8.342   9.469  65.732  1.00  0.00    -0.128 A  
HETATM   20  N   UNL     1      -7.555  11.298  67.609  1.00  0.00    -0.102 N  
HETATM   21  C   UNL     1      -6.732  11.147  66.482  1.00  0.00    -0.128 C  
HETATM   22  C   UNL     1      -8.838   8.605  64.748  1.00  0.00    -0.036 A  
HETATM   23  C   UNL     1      -7.167  10.169  65.478  1.00  0.00    -0.142 A  
HETATM   24  C   UNL     1      -8.157   8.425  63.540  1.00  0.00    -0.143 A  
HETATM   25  C   UNL     1      -6.959   9.097  63.316  1.00  0.00    -0.089 A  
HETATM   26  F   UNL     1      -5.313  10.593  64.031  1.00  0.00    -0.128 F  
HETATM   27  C   UNL     1      -6.468   9.964  64.286  1.00  0.00    -0.126 A  
BRANCH  20  28
HETATM   28  C   UNL     1      -7.175  12.327  68.524  1.00  0.00    -0.103 A  
HETATM   29  C   UNL     1      -6.277  12.074  69.568  1.00  0.00    -0.117 A  
HETATM   30  C   UNL     1      -5.878  13.111  70.415  1.00  0.00    -0.156 A  
HETATM   31  C   UNL     1      -6.379  14.399  70.232  1.00  0.00    -0.158 A  
HETATM   32  C   UNL     1      -7.313  14.646  69.229  1.00  0.00    -0.149 A  
HETATM   33  C   UNL     1      -7.726  13.611  68.394  1.00  0.00    -0.138 A  
ENDBRANCH  20  28
ENDBRANCH   1  16
TORSDOF 5
ENDMDL
MODEL      131
REMARK 921   NORMALIZED FREE ENERGY PREDICTED BY IDOCK:   -5.62 KCAL/MOL
REMARK 922        TOTAL FREE ENERGY PREDICTED BY IDOCK:   -7.33 KCAL/MOL
REMARK 923 INTER-LIGAND FREE ENERGY PREDICTED BY IDOCK:   -6.53 KCAL/MOL
REMARK 924 INTRA-LIGAND FREE ENERGY PREDICTED BY IDOCK:   -0.79 KCAL/MOL
REMARK 927      BINDING AFFINITY PREDICTED BY RF-SCORE:    0.00 PKD
ROOT
HETATM    1  C   UNL     1      -9.793   8.562  68.447  1.00  0.00    -0.173 C  
ENDROOT
BRANCH   1   2
HETATM    2  C   UNL     1      -8.850   9.652  68.995  1.00  0.00    -0.147 C  
HETATM    3  C   UNL     1      -8.283   9.384  70.380  1.00  0.00    -0.214 C  
ENDBRANCH   1   2
BRANCH   1   4
HETATM    4  N   UNL     1     -11.158   9.099  68.391  1.00  0.00    -0.463 NA 
HETATM    5  H   UNL     1     -11.899   8.514  68.007  1.00  0.00     0.000 HD 
BRANCH   4   6
HETATM    6  C   UNL     1     -11.476  10.366  68.838  1.00  0.00    -0.186 A  
HETATM    7  C   UNL     1     -11.711  12.725  68.593  1.00  0.00    -0.324 A  
HETATM    8  N   UNL     1     -12.076  12.965  69.858  1.00  0.00    -0.296 NA 
HETATM    9  N   UNL     1     -11.079  11.685  66.672  1.00  0.00    -0.300 NA 
HETATM   10  C   UNL     1     -12.116  11.816  70.556  1.00  0.00    -0.347 A  
HETATM   11  C   UNL     1     -11.159  12.991  66.473  1.00  0.00    -0.288 A  
HETATM   12  H   UNL     1     -10.828  10.967  65.992  1.00  0.00     0.000 HD 
HETATM   13  N   UNL     1     -11.839  10.564  70.134  1.00  0.00    -0.296 NA 
HETATM   14  C   UNL     1     -11.413  11.507  68.005  1.00  0.00    -0.311 A  
HETATM   15  N   UNL     1     -11.544  13.655  67.605  1.00  0.00    -0.325 NA 
ENDBRANCH   4   6
ENDBRANCH   1   4
BRANCH   1  16
HETATM   16  C   UNL     1      -9.826   7.260  69.334  1.00  0.00    -0.163 C  
HETATM   17  O   UNL     1      -8.268   4.042  69.646  1.00  0.00    -0.058 OA 
HETATM   18  N   UNL     1     -10.543   7.308  70.424  1.00  0.00    -0.221 NA 
HETATM   19  C   UNL     1     -10.583   6.196  71.271  1.00  0.00    -0.243 A  
HETATM   20  N   UNL     1      -9.064   6.141  68.996  1.00  0.00    -0.124 N  
HETATM   21  C   UNL     1      -8.959   5.039  69.858  1.00  0.00    -0.106 C  
HETATM   22  C   UNL     1     -11.456   6.214  72.366  1.00  0.00    -0.349 A  
HETATM   23  C   UNL     1      -9.783   5.074  71.073  1.00  0.00    -0.249 A  
HETATM   24  C   UNL     1     -11.511   5.139  73.259  1.00  0.00    -0.302 A  
HETATM   25  C   UNL     1     -10.674   4.043  73.075  1.00  0.00    -0.251 A  
HETATM   26  F   UNL     1      -9.024   2.942  71.840  1.00  0.00    -0.097 F  
HETATM   27  C   UNL     1      -9.813   4.016  71.983  1.00  0.00    -0.172 A  
BRANCH  20  28
HETATM   28  C   UNL     1      -8.337   6.045  67.770  1.00  0.00    -0.112 A  
HETATM   29  C   UNL     1      -8.939   5.554  66.605  1.00  0.00    -0.118 A  
HETATM   30  C   UNL     1      -8.223   5.524  65.406  1.00  0.00    -0.133 A  
HETATM   31  C   UNL     1      -6.904   5.971  65.365  1.00  0.00    -0.052 A  
HETATM   32  C   UNL     1      -6.281   6.411  66.531  1.00  0.00    -0.037 A  
HETATM   33  C   UNL     1      -6.987   6.425  67.732  1.00  0.00    -0.075 A  
ENDBRANCH  20  28
ENDBRANCH   1  16
TORSDOF 5
ENDMDL
MODEL      132
REMARK 921   NORMALIZED FREE ENERGY PREDICTED BY IDOCK:   -5.60 KCAL/MOL
REMARK 922        TOTAL FREE ENERGY PREDICTED BY IDOCK:   -7.31 KCAL/MOL
REMARK 923 INTER-LIGAND FREE ENERGY PREDICTED BY IDOCK:   -6.13 KCAL/MOL
REMARK 924 INTRA-LIGAND FREE ENERGY PREDICTED BY IDOCK:   -1.17 KCAL/MOL
REMARK 927      BINDING AFFINITY PREDICTED BY RF-SCORE:    0.00 PKD
ROOT
HETATM    1  C   UNL     1      -8.795   9.521  67.230  1.00  0.00    -0.128 C  
ENDROOT
BRANCH   1   2
HETATM    2  C   UNL     1      -8.976   8.314  66.289  1.00  0.00    -0.221 C  
HETATM    3  C   UNL     1      -8.073   8.304  65.066  1.00  0.00    -0.148 C  
ENDBRANCH   1   2
BRANCH   1   4
HETATM    4  N   UNL     1      -7.364   9.700  67.504  1.00  0.00    -0.090 NA 
HETATM    5  H   UNL     1      -6.687   9.306  66.850  1.00  0.00     0.000 HD 
BRANCH   4   6
HETATM    6  C   UNL     1      -6.899  10.379  68.612  1.00  0.00    -0.058 A  
HETATM    7  C   UNL     1      -6.015  10.520  70.821  1.00  0.00    -0.073 A  
HETATM    8  N   UNL     1      -6.028  11.857  70.895  1.00  0.00    -0.320 NA 
HETATM    9  N   UNL     1      -6.236   8.382  70.080  1.00  0.00    -0.031 NA 
HETATM   10  C   UNL     1      -6.504  12.381  69.752  1.00  0.00    -0.025 A  
HETATM   11  C   UNL     1      -5.772   8.385  71.320  1.00  0.00    -0.035 A  
HETATM   12  H   UNL     1      -6.427   7.572  69.491  1.00  0.00     0.000 HD 
HETATM   13  N   UNL     1      -6.934  11.739  68.646  1.00  0.00    -0.086 NA 
HETATM   14  C   UNL     1      -6.404   9.719  69.759  1.00  0.00    -0.050 A  
HETATM   15  N   UNL     1      -5.617   9.655  71.802  1.00  0.00    -0.163 NA 
ENDBRANCH   4   6
ENDBRANCH   1   4
BRANCH   1  16
HETATM   16  C   UNL     1      -9.531   9.352  68.614  1.00  0.00    -0.146 C  
HETATM   17  O   UNL     1     -12.095  10.852  70.626  1.00  0.00    -0.312 OA 
HETATM   18  N   UNL     1      -9.284   8.258  69.282  1.00  0.00    -0.151 NA 
HETATM   19  C   UNL     1      -9.934   8.032  70.499  1.00  0.00    -0.190 A  
HETATM   20  N   UNL     1     -10.453  10.300  69.058  1.00  0.00    -0.203 N  
HETATM   21  C   UNL     1     -11.231  10.082  70.205  1.00  0.00    -0.304 C  
HETATM   22  C   UNL     1      -9.564   6.920  71.265  1.00  0.00    -0.165 A  
HETATM   23  C   UNL     1     -10.941   8.867  70.975  1.00  0.00    -0.341 A  
HETATM   24  C   UNL     1     -10.205   6.635  72.475  1.00  0.00    -0.203 A  
HETATM   25  C   UNL     1     -11.240   7.452  72.919  1.00  0.00    -0.368 A  
HETATM   26  F   UNL     1     -12.604   9.326  72.628  1.00  0.00    -0.409 F  
HETATM   27  C   UNL     1     -11.604   8.564  72.166  1.00  0.00    -0.377 A  
BRANCH  20  28
HETATM   28  C   UNL     1     -10.676  11.536  68.378  1.00  0.00    -0.208 A  
HETATM   29  C   UNL     1     -10.248  12.752  68.924  1.00  0.00    -0.003 A  
HETATM   30  C   UNL     1     -10.428  13.941  68.213  1.00  0.00    -0.252 A  
HETATM   31  C   UNL     1     -11.043  13.924  66.962  1.00  0.00    -0.311 A  
HETATM   32  C   UNL     1     -11.518  12.725  66.436  1.00  0.00    -0.409 A  
HETATM   33  C   UNL     1     -11.356  11.540  67.151  1.00  0.00    -0.354 A  
ENDBRANCH  20  28
ENDBRANCH   1  16
TORSDOF 5
ENDMDL
MODEL      133
REMARK 921   NORMALIZED FREE ENERGY PREDICTED BY IDOCK:   -5.58 KCAL/MOL
REMARK 922        TOTAL FREE ENERGY PREDICTED BY IDOCK:   -7.28 KCAL/MOL
REMARK 923 INTER-LIGAND FREE ENERGY PREDICTED BY IDOCK:   -7.14 KCAL/MOL
REMARK 924 INTRA-LIGAND FREE ENERGY PREDICTED BY IDOCK:   -0.13 KCAL/MOL
REMARK 927      BINDING AFFINITY PREDICTED BY RF-SCORE:    0.00 PKD
ROOT
HETATM    1  C   UNL     1      -8.829  13.915  66.938  1.00  0.00    -0.193 C  
ENDROOT
BRANCH   1   2
HETATM    2  C   UNL     1      -7.743  14.664  67.735  1.00  0.00    -0.169 C  
HETATM    3  C   UNL     1      -7.002  15.744  66.964  1.00  0.00    -0.128 C  
ENDBRANCH   1   2
BRANCH   1   4
HETATM    4  N   UNL     1     -10.119  14.584  67.148  1.00  0.00    -0.250 NA 
HETATM    5  H   UNL     1     -10.958  14.167  66.746  1.00  0.00     0.000 HD 
BRANCH   4   6
HETATM    6  C   UNL     1     -10.239  15.756  67.866  1.00  0.00    -0.242 A  
HETATM    7  C   UNL     1     -10.390  18.125  68.089  1.00  0.00    -0.379 A  
HETATM    8  N   UNL     1     -10.408  18.142  69.427  1.00  0.00     0.014 NA 
HETATM    9  N   UNL     1     -10.327  17.431  65.924  1.00  0.00    -0.539 NA 
HETATM   10  C   UNL     1     -10.337  16.888  69.909  1.00  0.00     0.094 A  
HETATM   11  C   UNL     1     -10.377  18.753  65.974  1.00  0.00    -0.422 A  
HETATM   12  H   UNL     1     -10.298  16.842  65.092  1.00  0.00     0.000 HD 
HETATM   13  N   UNL     1     -10.250  15.727  69.227  1.00  0.00    -0.230 NA 
HETATM   14  C   UNL     1     -10.322  17.025  67.249  1.00  0.00    -0.311 A  
HETATM   15  N   UNL     1     -10.424  19.212  67.261  1.00  0.00    -0.428 NA 
ENDBRANCH   4   6
ENDBRANCH   1   4
BRANCH   1  16
HETATM   16  C   UNL     1      -8.995  12.408  67.370  1.00  0.00    -0.185 C  
HETATM   17  O   UNL     1     -10.459   9.323  66.269  1.00  0.00    -0.188 OA 
HETATM   18  N   UNL     1      -8.304  12.013  68.404  1.00  0.00    -0.163 NA 
HETATM   19  C   UNL     1      -8.380  10.678  68.815  1.00  0.00    -0.144 A  
HETATM   20  N   UNL     1      -9.791  11.532  66.631  1.00  0.00    -0.199 N  
HETATM   21  C   UNL     1      -9.819  10.157  66.909  1.00  0.00    -0.195 C  
HETATM   22  C   UNL     1      -7.737  10.299  69.999  1.00  0.00    -0.090 A  
HETATM   23  C   UNL     1      -9.065   9.710  68.087  1.00  0.00    -0.123 A  
HETATM   24  C   UNL     1      -7.759   8.971  70.436  1.00  0.00    -0.110 A  
HETATM   25  C   UNL     1      -8.409   8.004  69.676  1.00  0.00    -0.126 A  
HETATM   26  F   UNL     1      -9.674   7.416  67.802  1.00  0.00    -0.139 F  
HETATM   27  C   UNL     1      -9.058   8.377  68.504  1.00  0.00    -0.136 A  
BRANCH  20  28
HETATM   28  C   UNL     1     -10.612  11.966  65.546  1.00  0.00    -0.269 A  
HETATM   29  C   UNL     1     -11.903  12.462  65.766  1.00  0.00    -0.467 A  
HETATM   30  C   UNL     1     -12.664  12.933  64.693  1.00  0.00    -0.403 A  
HETATM   31  C   UNL     1     -12.147  12.901  63.398  1.00  0.00    -0.610 A  
HETATM   32  C   UNL     1     -10.885  12.360  63.166  1.00  0.00    -0.090 A  
HETATM   33  C   UNL     1     -10.131  11.873  64.231  1.00  0.00    -0.325 A  
ENDBRANCH  20  28
ENDBRANCH   1  16
TORSDOF 5
ENDMDL
MODEL      134
REMARK 921   NORMALIZED FREE ENERGY PREDICTED BY IDOCK:   -5.58 KCAL/MOL
REMARK 922        TOTAL FREE ENERGY PREDICTED BY IDOCK:   -7.27 KCAL/MOL
REMARK 923 INTER-LIGAND FREE ENERGY PREDICTED BY IDOCK:   -5.76 KCAL/MOL
REMARK 924 INTRA-LIGAND FREE ENERGY PREDICTED BY IDOCK:   -1.51 KCAL/MOL
REMARK 927      BINDING AFFINITY PREDICTED BY RF-SCORE:    0.00 PKD
ROOT
HETATM    1  C   UNL     1     -10.377   6.957  68.494  1.00  0.00    -0.186 C  
ENDROOT
BRANCH   1   2
HETATM    2  C   UNL     1     -11.421   6.388  69.475  1.00  0.00    -0.412 C  
HETATM    3  C   UNL     1     -11.436   7.031  70.852  1.00  0.00    -0.349 C  
ENDBRANCH   1   2
BRANCH   1   4
HETATM    4  N   UNL     1     -11.074   7.695  67.434  1.00  0.00    -0.511 NA 
HETATM    5  H   UNL     1     -11.919   7.290  67.030  1.00  0.00     0.000 HD 
BRANCH   4   6
HETATM    6  C   UNL     1     -10.630   8.913  66.961  1.00  0.00    -0.209 A  
HETATM    7  C   UNL     1     -10.548  11.295  66.929  1.00  0.00    -0.257 A  
HETATM    8  N   UNL     1      -9.727  11.396  65.877  1.00  0.00    -0.218 NA 
HETATM    9  N   UNL     1     -11.854  10.467  68.596  1.00  0.00    -0.716 NA 
HETATM   10  C   UNL     1      -9.401  10.172  65.423  1.00  0.00    -0.216 A  
HETATM   11  C   UNL     1     -11.880  11.790  68.617  1.00  0.00    -0.310 A  
HETATM   12  H   UNL     1     -12.336   9.826  69.226  1.00  0.00     0.000 HD 
HETATM   13  N   UNL     1      -9.798   8.969  65.886  1.00  0.00    -0.255 NA 
HETATM   14  C   UNL     1     -11.029  10.143  67.531  1.00  0.00    -0.255 A  
HETATM   15  N   UNL     1     -11.099  12.329  67.632  1.00  0.00    -0.253 NA 
ENDBRANCH   4   6
ENDBRANCH   1   4
BRANCH   1  16
HETATM   16  C   UNL     1      -9.494   5.848  67.806  1.00  0.00    -0.113 C  
HETATM   17  O   UNL     1      -6.468   3.979  68.285  1.00  0.00    -0.036 OA 
HETATM   18  N   UNL     1     -10.004   5.252  66.763  1.00  0.00    -0.176 NA 
HETATM   19  C   UNL     1      -9.284   4.233  66.131  1.00  0.00    -0.145 A  
HETATM   20  N   UNL     1      -8.258   5.480  68.339  1.00  0.00    -0.099 N  
HETATM   21  C   UNL     1      -7.538   4.387  67.833  1.00  0.00    -0.076 C  
HETATM   22  C   UNL     1      -9.784   3.695  64.939  1.00  0.00    -0.172 A  
HETATM   23  C   UNL     1      -8.093   3.729  66.644  1.00  0.00    -0.096 A  
HETATM   24  C   UNL     1      -9.117   2.654  64.285  1.00  0.00    -0.120 A  
HETATM   25  C   UNL     1      -7.951   2.128  64.832  1.00  0.00    -0.078 A  
HETATM   26  F   UNL     1      -6.318   2.135  66.503  1.00  0.00    -0.022 F  
HETATM   27  C   UNL     1      -7.445   2.667  66.010  1.00  0.00    -0.068 A  
BRANCH  20  28
HETATM   28  C   UNL     1      -7.652   6.173  69.432  1.00  0.00    -0.098 A  
HETATM   29  C   UNL     1      -6.793   7.257  69.217  1.00  0.00    -0.054 A  
HETATM   30  C   UNL     1      -6.259   7.954  70.304  1.00  0.00    -0.033 A  
HETATM   31  C   UNL     1      -6.570   7.566  71.607  1.00  0.00    -0.042 A  
HETATM   32  C   UNL     1      -7.381   6.457  71.828  1.00  0.00    -0.088 A  
HETATM   33  C   UNL     1      -7.901   5.749  70.746  1.00  0.00    -0.101 A  
ENDBRANCH  20  28
ENDBRANCH   1  16
TORSDOF 5
ENDMDL
MODEL      135
REMARK 921   NORMALIZED FREE ENERGY PREDICTED BY IDOCK:   -5.57 KCAL/MOL
REMARK 922        TOTAL FREE ENERGY PREDICTED BY IDOCK:   -7.26 KCAL/MOL
REMARK 923 INTER-LIGAND FREE ENERGY PREDICTED BY IDOCK:   -6.29 KCAL/MOL
REMARK 924 INTRA-LIGAND FREE ENERGY PREDICTED BY IDOCK:   -0.97 KCAL/MOL
REMARK 927      BINDING AFFINITY PREDICTED BY RF-SCORE:    0.00 PKD
ROOT
HETATM    1  C   UNL     1      -8.951   8.574  68.757  1.00  0.00    -0.139 C  
ENDROOT
BRANCH   1   2
HETATM    2  C   UNL     1      -7.598   9.145  68.290  1.00  0.00    -0.083 C  
HETATM    3  C   UNL     1      -6.547   9.295  69.378  1.00  0.00    -0.044 C  
ENDBRANCH   1   2
BRANCH   1   4
HETATM    4  N   UNL     1      -9.584   7.872  67.634  1.00  0.00    -0.147 NA 
HETATM    5  H   UNL     1     -10.048   8.422  66.911  1.00  0.00     0.000 HD 
BRANCH   4   6
HETATM    6  C   UNL     1      -9.574   6.497  67.517  1.00  0.00    -0.124 A  
HETATM    7  C   UNL     1      -9.080   4.289  68.268  1.00  0.00    -0.131 A  
HETATM    8  N   UNL     1      -9.518   3.663  67.168  1.00  0.00    -0.202 NA 
HETATM    9  N   UNL     1      -8.538   5.892  69.786  1.00  0.00    -0.127 NA 
HETATM   10  C   UNL     1      -9.979   4.558  66.276  1.00  0.00    -0.247 A  
HETATM   11  C   UNL     1      -8.208   4.698  70.253  1.00  0.00    -0.075 A  
HETATM   12  H   UNL     1      -8.421   6.794  70.249  1.00  0.00     0.000 HD 
HETATM   13  N   UNL     1     -10.027   5.902  66.380  1.00  0.00    -0.146 NA 
HETATM   14  C   UNL     1      -9.076   5.649  68.533  1.00  0.00    -0.114 A  
HETATM   15  N   UNL     1      -8.525   3.703  69.371  1.00  0.00    -0.063 NA 
ENDBRANCH   4   6
ENDBRANCH   1   4
BRANCH   1  16
HETATM   16  C   UNL     1      -9.957   9.678  69.260  1.00  0.00    -0.191 C  
HETATM   17  O   UNL     1     -12.170  10.420  71.986  1.00  0.00    -0.132 OA 
HETATM   18  N   UNL     1      -9.980  10.800  68.595  1.00  0.00    -0.174 NA 
HETATM   19  C   UNL     1     -10.825  11.833  69.015  1.00  0.00    -0.195 A  
HETATM   20  N   UNL     1     -10.729   9.479  70.406  1.00  0.00    -0.260 N  
HETATM   21  C   UNL     1     -11.505  10.511  70.954  1.00  0.00    -0.215 C  
HETATM   22  C   UNL     1     -10.935  12.979  68.218  1.00  0.00    -0.285 A  
HETATM   23  C   UNL     1     -11.556  11.768  70.197  1.00  0.00    -0.281 A  
HETATM   24  C   UNL     1     -11.743  14.052  68.609  1.00  0.00    -0.389 A  
HETATM   25  C   UNL     1     -12.434  13.993  69.815  1.00  0.00    -0.255 A  
HETATM   26  F   UNL     1     -13.019  12.833  71.758  1.00  0.00    -0.448 F  
HETATM   27  C   UNL     1     -12.337  12.852  70.605  1.00  0.00    -0.302 A  
BRANCH  20  28
HETATM   28  C   UNL     1     -10.773   8.230  71.098  1.00  0.00    -0.226 A  
HETATM   29  C   UNL     1      -9.841   7.920  72.095  1.00  0.00    -0.264 A  
HETATM   30  C   UNL     1      -9.941   6.716  72.797  1.00  0.00    -0.187 A  
HETATM   31  C   UNL     1     -10.962   5.814  72.501  1.00  0.00    -0.309 A  
HETATM   32  C   UNL     1     -11.861   6.092  71.475  1.00  0.00    -0.204 A  
HETATM   33  C   UNL     1     -11.753   7.284  70.761  1.00  0.00    -0.333 A  
ENDBRANCH  20  28
ENDBRANCH   1  16
TORSDOF 5
ENDMDL
MODEL      136
REMARK 921   NORMALIZED FREE ENERGY PREDICTED BY IDOCK:   -5.54 KCAL/MOL
REMARK 922        TOTAL FREE ENERGY PREDICTED BY IDOCK:   -7.23 KCAL/MOL
REMARK 923 INTER-LIGAND FREE ENERGY PREDICTED BY IDOCK:   -6.10 KCAL/MOL
REMARK 924 INTRA-LIGAND FREE ENERGY PREDICTED BY IDOCK:   -1.12 KCAL/MOL
REMARK 927      BINDING AFFINITY PREDICTED BY RF-SCORE:    0.00 PKD
ROOT
HETATM    1  C   UNL     1      -8.100   8.773  68.657  1.00  0.00    -0.116 C  
ENDROOT
BRANCH   1   2
HETATM    2  C   UNL     1      -6.648   9.278  68.769  1.00  0.00    -0.052 C  
HETATM    3  C   UNL     1      -6.160   9.541  70.184  1.00  0.00    -0.049 C  
ENDBRANCH   1   2
BRANCH   1   4
HETATM    4  N   UNL     1      -8.248   8.027  67.401  1.00  0.00    -0.121 NA 
HETATM    5  H   UNL     1      -8.956   7.295  67.347  1.00  0.00     0.000 HD 
BRANCH   4   6
HETATM    6  C   UNL     1      -7.466   8.277  66.293  1.00  0.00    -0.079 A  
HETATM    7  C   UNL     1      -7.036   9.218  64.145  1.00  0.00    -0.095 A  
HETATM    8  N   UNL     1      -5.817   8.684  63.996  1.00  0.00    -0.069 NA 
HETATM    9  N   UNL     1      -9.067   9.799  64.986  1.00  0.00    -0.214 NA 
HETATM   10  C   UNL     1      -5.499   7.945  65.073  1.00  0.00    -0.033 A  
HETATM   11  C   UNL     1      -8.909  10.327  63.783  1.00  0.00    -0.221 A  
HETATM   12  H   UNL     1      -9.872   9.894  65.605  1.00  0.00     0.000 HD 
HETATM   13  N   UNL     1      -6.234   7.710  66.181  1.00  0.00    -0.041 NA 
HETATM   14  C   UNL     1      -7.900   9.089  65.220  1.00  0.00    -0.102 A  
HETATM   15  N   UNL     1      -7.693  10.007  63.243  1.00  0.00    -0.143 NA 
ENDBRANCH   4   6
ENDBRANCH   1   4
BRANCH   1  16
HETATM   16  C   UNL     1      -9.168   9.932  68.655  1.00  0.00    -0.139 C  
HETATM   17  O   UNL     1     -12.092  11.052  70.407  1.00  0.00    -0.311 OA 
HETATM   18  N   UNL     1      -8.936  10.945  67.864  1.00  0.00    -0.138 NA 
HETATM   19  C   UNL     1      -9.828  12.022  67.844  1.00  0.00    -0.196 A  
HETATM   20  N   UNL     1     -10.267   9.899  69.513  1.00  0.00    -0.209 N  
HETATM   21  C   UNL     1     -11.133  10.995  69.636  1.00  0.00    -0.256 C  
HETATM   22  C   UNL     1      -9.637  13.038  66.900  1.00  0.00    -0.243 A  
HETATM   23  C   UNL     1     -10.894  12.126  68.732  1.00  0.00    -0.265 A  
HETATM   24  C   UNL     1     -10.483  14.150  66.859  1.00  0.00    -0.272 A  
HETATM   25  C   UNL     1     -11.519  14.265  67.780  1.00  0.00    -0.354 A  
HETATM   26  F   UNL     1     -12.728  13.400  69.583  1.00  0.00    -0.209 F  
HETATM   27  C   UNL     1     -11.719  13.253  68.714  1.00  0.00    -0.329 A  
BRANCH  20  28
HETATM   28  C   UNL     1     -10.576   8.766  70.326  1.00  0.00    -0.216 A  
HETATM   29  C   UNL     1     -10.300   8.760  71.698  1.00  0.00    -0.391 A  
HETATM   30  C   UNL     1     -10.664   7.661  72.481  1.00  0.00    -0.350 A  
HETATM   31  C   UNL     1     -11.294   6.563  71.899  1.00  0.00    -0.327 A  
HETATM   32  C   UNL     1     -11.524   6.539  70.526  1.00  0.00    -0.448 A  
HETATM   33  C   UNL     1     -11.146   7.625  69.739  1.00  0.00    -0.115 A  
ENDBRANCH  20  28
ENDBRANCH   1  16
TORSDOF 5
ENDMDL
MODEL      137
REMARK 921   NORMALIZED FREE ENERGY PREDICTED BY IDOCK:   -5.54 KCAL/MOL
REMARK 922        TOTAL FREE ENERGY PREDICTED BY IDOCK:   -7.23 KCAL/MOL
REMARK 923 INTER-LIGAND FREE ENERGY PREDICTED BY IDOCK:   -6.18 KCAL/MOL
REMARK 924 INTRA-LIGAND FREE ENERGY PREDICTED BY IDOCK:   -1.05 KCAL/MOL
REMARK 927      BINDING AFFINITY PREDICTED BY RF-SCORE:    0.00 PKD
ROOT
HETATM    1  C   UNL     1      -8.420  11.471  68.226  1.00  0.00    -0.159 C  
ENDROOT
BRANCH   1   2
HETATM    2  C   UNL     1      -7.342  12.561  68.066  1.00  0.00    -0.111 C  
HETATM    3  C   UNL     1      -7.869  13.956  67.767  1.00  0.00    -0.172 C  
ENDBRANCH   1   2
BRANCH   1   4
HETATM    4  N   UNL     1      -8.191  10.759  69.489  1.00  0.00    -0.383 NA 
HETATM    5  H   UNL     1      -7.290  10.865  69.955  1.00  0.00     0.000 HD 
BRANCH   4   6
HETATM    6  C   UNL     1      -9.147   9.951  70.070  1.00  0.00    -0.178 A  
HETATM    7  C   UNL     1     -11.302   9.503  70.986  1.00  0.00    -0.352 A  
HETATM    8  N   UNL     1     -11.045   8.239  71.344  1.00  0.00    -0.243 NA 
HETATM    9  N   UNL     1     -11.101  11.612  70.159  1.00  0.00    -0.411 NA 
HETATM   10  C   UNL     1      -9.784   7.910  71.016  1.00  0.00    -0.159 A  
HETATM   11  C   UNL     1     -12.307  11.444  70.679  1.00  0.00    -0.373 A  
HETATM   12  H   UNL     1     -10.730  12.449  69.711  1.00  0.00     0.000 HD 
HETATM   13  N   UNL     1      -8.842   8.672  70.421  1.00  0.00    -0.147 NA 
HETATM   14  C   UNL     1     -10.456  10.402  70.357  1.00  0.00     0.048 A  
HETATM   15  N   UNL     1     -12.472  10.183  71.182  1.00  0.00    -0.354 NA 
ENDBRANCH   4   6
ENDBRANCH   1   4
BRANCH   1  16
HETATM   16  C   UNL     1      -8.411  10.405  67.066  1.00  0.00    -0.127 C  
HETATM   17  O   UNL     1      -9.505   9.938  63.681  1.00  0.00    -0.262 OA 
HETATM   18  N   UNL     1      -7.679   9.340  67.251  1.00  0.00    -0.095 NA 
HETATM   19  C   UNL     1      -7.600   8.375  66.242  1.00  0.00    -0.086 A  
HETATM   20  N   UNL     1      -9.099  10.634  65.874  1.00  0.00    -0.173 N  
HETATM   21  C   UNL     1      -8.967   9.772  64.775  1.00  0.00    -0.225 C  
HETATM   22  C   UNL     1      -6.918   7.180  66.504  1.00  0.00    -0.076 A  
HETATM   23  C   UNL     1      -8.167   8.559  64.984  1.00  0.00    -0.160 A  
HETATM   24  C   UNL     1      -6.786   6.197  65.519  1.00  0.00    -0.048 A  
HETATM   25  C   UNL     1      -7.319   6.411  64.252  1.00  0.00    -0.075 A  
HETATM   26  F   UNL     1      -8.506   7.760  62.758  1.00  0.00    -0.136 F  
HETATM   27  C   UNL     1      -8.006   7.592  63.989  1.00  0.00    -0.091 A  
BRANCH  20  28
HETATM   28  C   UNL     1      -9.964  11.755  65.686  1.00  0.00    -0.240 A  
HETATM   29  C   UNL     1      -9.629  12.793  64.809  1.00  0.00     0.218 A  
HETATM   30  C   UNL     1     -10.519  13.849  64.601  1.00  0.00    -0.419 A  
HETATM   31  C   UNL     1     -11.740  13.881  65.273  1.00  0.00    -0.347 A  
HETATM   32  C   UNL     1     -12.058  12.879  66.187  1.00  0.00    -0.458 A  
HETATM   33  C   UNL     1     -11.164  11.834  66.410  1.00  0.00    -0.382 A  
ENDBRANCH  20  28
ENDBRANCH   1  16
TORSDOF 5
ENDMDL
MODEL      138
REMARK 921   NORMALIZED FREE ENERGY PREDICTED BY IDOCK:   -5.54 KCAL/MOL
REMARK 922        TOTAL FREE ENERGY PREDICTED BY IDOCK:   -7.22 KCAL/MOL
REMARK 923 INTER-LIGAND FREE ENERGY PREDICTED BY IDOCK:   -6.00 KCAL/MOL
REMARK 924 INTRA-LIGAND FREE ENERGY PREDICTED BY IDOCK:   -1.22 KCAL/MOL
REMARK 927      BINDING AFFINITY PREDICTED BY RF-SCORE:    0.00 PKD
ROOT
HETATM    1  C   UNL     1      -9.093   8.662  68.651  1.00  0.00    -0.138 C  
ENDROOT
BRANCH   1   2
HETATM    2  C   UNL     1      -8.012   8.307  69.690  1.00  0.00    -0.111 C  
HETATM    3  C   UNL     1      -7.431   9.489  70.450  1.00  0.00    -0.158 C  
ENDBRANCH   1   2
BRANCH   1   4
HETATM    4  N   UNL     1     -10.353   8.014  69.036  1.00  0.00    -0.217 NA 
HETATM    5  H   UNL     1     -10.657   7.188  68.520  1.00  0.00     0.000 HD 
BRANCH   4   6
HETATM    6  C   UNL     1     -11.141   8.479  70.069  1.00  0.00    -0.151 A  
HETATM    7  C   UNL     1     -12.322  10.168  71.266  1.00  0.00    -0.400 A  
HETATM    8  N   UNL     1     -12.705   9.383  72.281  1.00  0.00    -0.366 NA 
HETATM    9  N   UNL     1     -11.395  10.925  69.333  1.00  0.00    -0.254 NA 
HETATM   10  C   UNL     1     -12.250   8.131  72.098  1.00  0.00    -0.350 A  
HETATM   11  C   UNL     1     -12.005  11.918  69.960  1.00  0.00    -0.332 A  
HETATM   12  H   UNL     1     -10.899  10.964  68.443  1.00  0.00     0.000 HD 
HETATM   13  N   UNL     1     -11.504   7.646  71.082  1.00  0.00    -0.270 NA 
HETATM   14  C   UNL     1     -11.577   9.821  70.151  1.00  0.00    -0.182 A  
HETATM   15  N   UNL     1     -12.584  11.503  71.127  1.00  0.00    -0.390 NA 
ENDBRANCH   4   6
ENDBRANCH   1   4
BRANCH   1  16
HETATM   16  C   UNL     1      -8.738   8.187  67.190  1.00  0.00    -0.127 C  
HETATM   17  O   UNL     1      -8.303   9.453  63.861  1.00  0.00    -0.153 OA 
HETATM   18  N   UNL     1      -8.328   6.955  67.055  1.00  0.00    -0.119 NA 
HETATM   19  C   UNL     1      -7.962   6.486  65.789  1.00  0.00    -0.115 A  
HETATM   20  N   UNL     1      -8.795   9.072  66.113  1.00  0.00    -0.154 N  
HETATM   21  C   UNL     1      -8.327   8.709  64.841  1.00  0.00    -0.164 C  
HETATM   22  C   UNL     1      -7.650   5.130  65.637  1.00  0.00    -0.086 A  
HETATM   23  C   UNL     1      -7.890   7.317  64.675  1.00  0.00    -0.123 A  
HETATM   24  C   UNL     1      -7.250   4.618  64.399  1.00  0.00    -0.055 A  
HETATM   25  C   UNL     1      -7.138   5.468  63.303  1.00  0.00    -0.043 A  
HETATM   26  F   UNL     1      -7.339   7.599  62.367  1.00  0.00    -0.078 F  
HETATM   27  C   UNL     1      -7.457   6.814  63.446  1.00  0.00    -0.084 A  
BRANCH  20  28
HETATM   28  C   UNL     1      -9.314  10.398  66.231  1.00  0.00    -0.166 A  
HETATM   29  C   UNL     1      -8.564  11.421  66.822  1.00  0.00    -0.166 A  
HETATM   30  C   UNL     1      -9.072  12.722  66.874  1.00  0.00    -0.221 A  
HETATM   31  C   UNL     1     -10.331  13.004  66.347  1.00  0.00    -0.287 A  
HETATM   32  C   UNL     1     -11.105  11.981  65.805  1.00  0.00    -0.371 A  
HETATM   33  C   UNL     1     -10.608  10.680  65.768  1.00  0.00    -0.168 A  
ENDBRANCH  20  28
ENDBRANCH   1  16
TORSDOF 5
ENDMDL
MODEL      139
REMARK 921   NORMALIZED FREE ENERGY PREDICTED BY IDOCK:   -5.51 KCAL/MOL
REMARK 922        TOTAL FREE ENERGY PREDICTED BY IDOCK:   -7.19 KCAL/MOL
REMARK 923 INTER-LIGAND FREE ENERGY PREDICTED BY IDOCK:   -7.24 KCAL/MOL
REMARK 924 INTRA-LIGAND FREE ENERGY PREDICTED BY IDOCK:    0.05 KCAL/MOL
REMARK 927      BINDING AFFINITY PREDICTED BY RF-SCORE:    0.00 PKD
ROOT
HETATM    1  C   UNL     1      -7.723  10.881  67.119  1.00  0.00    -0.123 C  
ENDROOT
BRANCH   1   2
HETATM    2  C   UNL     1      -7.024  12.250  67.238  1.00  0.00    -0.142 C  
HETATM    3  C   UNL     1      -6.849  12.768  68.656  1.00  0.00    -0.099 C  
ENDBRANCH   1   2
BRANCH   1   4
HETATM    4  N   UNL     1      -8.277  10.747  65.766  1.00  0.00    -0.193 NA 
HETATM    5  H   UNL     1      -9.032  11.371  65.481  1.00  0.00     0.000 HD 
BRANCH   4   6
HETATM    6  C   UNL     1      -7.816   9.808  64.865  1.00  0.00    -0.133 A  
HETATM    7  C   UNL     1      -7.597   7.597  64.002  1.00  0.00    -0.114 A  
HETATM    8  N   UNL     1      -6.759   7.914  63.008  1.00  0.00    -0.079 NA 
HETATM    9  N   UNL     1      -8.980   7.722  65.802  1.00  0.00    -0.344 NA 
HETATM   10  C   UNL     1      -6.501   9.234  63.020  1.00  0.00    -0.094 A  
HETATM   11  C   UNL     1      -8.879   6.466  65.396  1.00  0.00     0.041 A  
HETATM   12  H   UNL     1      -9.535   8.081  66.579  1.00  0.00     0.000 HD 
HETATM   13  N   UNL     1      -6.962  10.174  63.870  1.00  0.00    -0.125 NA 
HETATM   14  C   UNL     1      -8.168   8.441  64.940  1.00  0.00    -0.153 A  
HETATM   15  N   UNL     1      -8.060   6.348  64.308  1.00  0.00    -0.100 NA 
ENDBRANCH   4   6
ENDBRANCH   1   4
BRANCH   1  16
HETATM   16  C   UNL     1      -8.905  10.690  68.142  1.00  0.00    -0.134 C  
HETATM   17  O   UNL     1     -12.383  11.459  68.581  1.00  0.00    -0.491 OA 
HETATM   18  N   UNL     1      -8.686   9.895  69.154  1.00  0.00    -0.148 NA 
HETATM   19  C   UNL     1      -9.709   9.656  70.077  1.00  0.00    -0.241 A  
HETATM   20  N   UNL     1     -10.146  11.293  67.928  1.00  0.00    -0.174 N  
HETATM   21  C   UNL     1     -11.251  11.002  68.742  1.00  0.00    -0.266 C  
HETATM   22  C   UNL     1      -9.421   8.907  71.224  1.00  0.00    -0.343 A  
HETATM   23  C   UNL     1     -11.006  10.129  69.896  1.00  0.00    -0.344 A  
HETATM   24  C   UNL     1     -10.416   8.615  72.162  1.00  0.00    -0.411 A  
HETATM   25  C   UNL     1     -11.718   9.056  71.948  1.00  0.00    -0.445 A  
HETATM   26  F   UNL     1     -13.273  10.217  70.646  1.00  0.00    -0.427 F  
HETATM   27  C   UNL     1     -12.008   9.810  70.815  1.00  0.00    -0.299 A  
BRANCH  20  28
HETATM   28  C   UNL     1     -10.377  12.226  66.871  1.00  0.00    -0.216 A  
HETATM   29  C   UNL     1     -10.856  11.806  65.625  1.00  0.00    -0.342 A  
HETATM   30  C   UNL     1     -11.129  12.745  64.627  1.00  0.00    -0.349 A  
HETATM   31  C   UNL     1     -10.915  14.102  64.864  1.00  0.00    -0.405 A  
HETATM   32  C   UNL     1     -10.389  14.522  66.083  1.00  0.00    -0.305 A  
HETATM   33  C   UNL     1     -10.100  13.586  67.074  1.00  0.00    -0.244 A  
ENDBRANCH  20  28
ENDBRANCH   1  16
TORSDOF 5
ENDMDL
MODEL      140
REMARK 921   NORMALIZED FREE ENERGY PREDICTED BY IDOCK:   -5.49 KCAL/MOL
REMARK 922        TOTAL FREE ENERGY PREDICTED BY IDOCK:   -7.16 KCAL/MOL
REMARK 923 INTER-LIGAND FREE ENERGY PREDICTED BY IDOCK:   -6.55 KCAL/MOL
REMARK 924 INTRA-LIGAND FREE ENERGY PREDICTED BY IDOCK:   -0.60 KCAL/MOL
REMARK 927      BINDING AFFINITY PREDICTED BY RF-SCORE:    0.00 PKD
ROOT
HETATM    1  C   UNL     1      -9.439  11.828  68.257  1.00  0.00    -0.193 C  
ENDROOT
BRANCH   1   2
HETATM    2  C   UNL     1      -9.873  11.558  66.803  1.00  0.00    -0.227 C  
HETATM    3  C   UNL     1     -10.988  10.538  66.637  1.00  0.00    -0.102 C  
ENDBRANCH   1   2
BRANCH   1   4
HETATM    4  N   UNL     1      -8.098  11.268  68.464  1.00  0.00    -0.142 NA 
HETATM    5  H   UNL     1      -7.651  11.389  69.374  1.00  0.00     0.000 HD 
BRANCH   4   6
HETATM    6  C   UNL     1      -7.418  10.586  67.477  1.00  0.00    -0.093 A  
HETATM    7  C   UNL     1      -6.789   8.626  66.274  1.00  0.00    -0.070 A  
HETATM    8  N   UNL     1      -5.915   9.232  65.460  1.00  0.00    -0.058 NA 
HETATM    9  N   UNL     1      -8.343   8.227  67.885  1.00  0.00    -0.127 NA 
HETATM   10  C   UNL     1      -5.859  10.548  65.734  1.00  0.00    -0.126 A  
HETATM   11  C   UNL     1      -8.017   7.095  67.281  1.00  0.00    -0.111 A  
HETATM   12  H   UNL     1      -9.017   8.357  68.639  1.00  0.00     0.000 HD 
HETATM   13  N   UNL     1      -6.536  11.241  66.673  1.00  0.00    -0.140 NA 
HETATM   14  C   UNL     1      -7.568   9.196  67.268  1.00  0.00    -0.088 A  
HETATM   15  N   UNL     1      -7.088   7.293  66.298  1.00  0.00    -0.075 NA 
ENDBRANCH   4   6
ENDBRANCH   1   4
BRANCH   1  16
HETATM   16  C   UNL     1     -10.399  11.181  69.327  1.00  0.00    -0.120 C  
HETATM   17  O   UNL     1     -13.375  11.879  71.206  1.00  0.00    -0.109 OA 
HETATM   18  N   UNL     1     -10.206   9.921  69.606  1.00  0.00    -0.221 NA 
HETATM   19  C   UNL     1     -11.048   9.280  70.520  1.00  0.00    -0.265 A  
HETATM   20  N   UNL     1     -11.445  11.913  69.889  1.00  0.00    -0.235 N  
HETATM   21  C   UNL     1     -12.402  11.305  70.717  1.00  0.00    -0.398 C  
HETATM   22  C   UNL     1     -10.750   7.968  70.906  1.00  0.00    -0.240 A  
HETATM   23  C   UNL     1     -12.176   9.895  71.056  1.00  0.00    -0.446 A  
HETATM   24  C   UNL     1     -11.578   7.274  71.794  1.00  0.00    -0.309 A  
HETATM   25  C   UNL     1     -12.727   7.884  72.288  1.00  0.00    -0.191 A  
HETATM   26  F   UNL     1     -14.136   9.743  72.415  1.00  0.00    -0.385 F  
HETATM   27  C   UNL     1     -13.022   9.191  71.916  1.00  0.00    -0.404 A  
BRANCH  20  28
HETATM   28  C   UNL     1     -11.622  13.311  69.654  1.00  0.00    -0.261 A  
HETATM   29  C   UNL     1     -11.546  14.238  70.700  1.00  0.00    -0.209 A  
HETATM   30  C   UNL     1     -11.666  15.605  70.434  1.00  0.00    -0.379 A  
HETATM   31  C   UNL     1     -11.873  16.050  69.129  1.00  0.00    -0.268 A  
HETATM   32  C   UNL     1     -12.003  15.131  68.092  1.00  0.00    -0.151 A  
HETATM   33  C   UNL     1     -11.901  13.766  68.356  1.00  0.00    -0.411 A  
ENDBRANCH  20  28
ENDBRANCH   1  16
TORSDOF 5
ENDMDL
MODEL      141
REMARK 921   NORMALIZED FREE ENERGY PREDICTED BY IDOCK:   -5.49 KCAL/MOL
REMARK 922        TOTAL FREE ENERGY PREDICTED BY IDOCK:   -7.16 KCAL/MOL
REMARK 923 INTER-LIGAND FREE ENERGY PREDICTED BY IDOCK:   -7.79 KCAL/MOL
REMARK 924 INTRA-LIGAND FREE ENERGY PREDICTED BY IDOCK:    0.63 KCAL/MOL
REMARK 927      BINDING AFFINITY PREDICTED BY RF-SCORE:    0.00 PKD
ROOT
HETATM    1  C   UNL     1     -11.289  11.096  70.122  1.00  0.00    -0.209 C  
ENDROOT
BRANCH   1   2
HETATM    2  C   UNL     1     -12.102  10.347  71.197  1.00  0.00    -0.487 C  
HETATM    3  C   UNL     1     -13.531  10.007  70.809  1.00  0.00    -0.089 C  
ENDBRANCH   1   2
BRANCH   1   4
HETATM    4  N   UNL     1     -12.187  11.996  69.389  1.00  0.00    -0.165 NA 
HETATM    5  H   UNL     1     -13.164  11.725  69.271  1.00  0.00     0.000 HD 
BRANCH   4   6
HETATM    6  C   UNL     1     -11.762  13.194  68.852  1.00  0.00    -0.326 A  
HETATM    7  C   UNL     1     -11.331  14.702  67.057  1.00  0.00    -0.355 A  
HETATM    8  N   UNL     1     -10.788  15.668  67.809  1.00  0.00    -0.301 NA 
HETATM    9  N   UNL     1     -12.311  12.765  66.382  1.00  0.00    -0.462 NA 
HETATM   10  C   UNL     1     -10.775  15.299  69.102  1.00  0.00    -0.251 A  
HETATM   11  C   UNL     1     -12.071  13.538  65.335  1.00  0.00    -0.415 A  
HETATM   12  H   UNL     1     -12.748  11.843  66.386  1.00  0.00     0.000 HD 
HETATM   13  N   UNL     1     -11.213  14.147  69.654  1.00  0.00    -0.227 NA 
HETATM   14  C   UNL     1     -11.838  13.481  67.470  1.00  0.00    -0.368 A  
HETATM   15  N   UNL     1     -11.487  14.720  65.699  1.00  0.00    -0.346 NA 
ENDBRANCH   4   6
ENDBRANCH   1   4
BRANCH   1  16
HETATM   16  C   UNL     1     -10.607  10.139  69.072  1.00  0.00    -0.223 C  
HETATM   17  O   UNL     1      -9.399   6.779  68.714  1.00  0.00    -0.134 OA 
HETATM   18  N   UNL     1     -10.514  10.580  67.847  1.00  0.00    -0.195 NA 
HETATM   19  C   UNL     1      -9.952   9.762  66.862  1.00  0.00    -0.211 A  
HETATM   20  N   UNL     1     -10.192   8.856  69.432  1.00  0.00    -0.203 N  
HETATM   21  C   UNL     1      -9.734   7.939  68.474  1.00  0.00    -0.161 C  
HETATM   22  C   UNL     1      -9.739  10.295  65.584  1.00  0.00    -0.308 A  
HETATM   23  C   UNL     1      -9.602   8.436  67.100  1.00  0.00    -0.233 A  
HETATM   24  C   UNL     1      -9.208   9.509  64.556  1.00  0.00    -0.223 A  
HETATM   25  C   UNL     1      -8.904   8.173  64.795  1.00  0.00     0.199 A  
HETATM   26  F   UNL     1      -8.796   6.351  66.254  1.00  0.00    -0.126 F  
HETATM   27  C   UNL     1      -9.103   7.641  66.065  1.00  0.00    -0.105 A  
BRANCH  20  28
HETATM   28  C   UNL     1     -10.216   8.388  70.782  1.00  0.00    -0.194 A  
HETATM   29  C   UNL     1     -11.270   7.600  71.258  1.00  0.00    -0.277 A  
HETATM   30  C   UNL     1     -11.241   7.108  72.566  1.00  0.00    -0.327 A  
HETATM   31  C   UNL     1     -10.169   7.408  73.405  1.00  0.00    -0.402 A  
HETATM   32  C   UNL     1      -9.144   8.235  72.955  1.00  0.00    -0.332 A  
HETATM   33  C   UNL     1      -9.178   8.742  71.657  1.00  0.00    -0.333 A  
ENDBRANCH  20  28
ENDBRANCH   1  16
TORSDOF 5
ENDMDL
MODEL      142
REMARK 921   NORMALIZED FREE ENERGY PREDICTED BY IDOCK:   -5.47 KCAL/MOL
REMARK 922        TOTAL FREE ENERGY PREDICTED BY IDOCK:   -7.13 KCAL/MOL
REMARK 923 INTER-LIGAND FREE ENERGY PREDICTED BY IDOCK:   -7.21 KCAL/MOL
REMARK 924 INTRA-LIGAND FREE ENERGY PREDICTED BY IDOCK:    0.08 KCAL/MOL
REMARK 927      BINDING AFFINITY PREDICTED BY RF-SCORE:    0.00 PKD
ROOT
HETATM    1  C   UNL     1      -8.221  10.711  69.322  1.00  0.00    -0.115 C  
ENDROOT
BRANCH   1   2
HETATM    2  C   UNL     1      -6.727  10.592  68.964  1.00  0.00    -0.063 C  
HETATM    3  C   UNL     1      -6.003   9.409  69.587  1.00  0.00    -0.036 C  
ENDBRANCH   1   2
BRANCH   1   4
HETATM    4  N   UNL     1      -8.715   9.396  69.745  1.00  0.00    -0.164 NA 
HETATM    5  H   UNL     1      -8.232   8.561  69.413  1.00  0.00     0.000 HD 
BRANCH   4   6
HETATM    6  C   UNL     1      -9.807   9.245  70.575  1.00  0.00    -0.253 A  
HETATM    7  C   UNL     1     -10.969   8.312  72.436  1.00  0.00    -0.368 A  
HETATM    8  N   UNL     1     -12.135   8.925  72.198  1.00  0.00    -0.366 NA 
HETATM    9  N   UNL     1      -8.809   7.618  72.290  1.00  0.00    -0.125 NA 
HETATM   10  C   UNL     1     -12.040   9.697  71.102  1.00  0.00    -0.362 A  
HETATM   11  C   UNL     1      -9.401   7.038  73.323  1.00  0.00    -0.153 A  
HETATM   12  H   UNL     1      -7.842   7.504  71.984  1.00  0.00     0.000 HD 
HETATM   13  N   UNL     1     -10.975   9.884  70.293  1.00  0.00    -0.285 NA 
HETATM   14  C   UNL     1      -9.789   8.412  71.717  1.00  0.00    -0.243 A  
HETATM   15  N   UNL     1     -10.702   7.436  73.451  1.00  0.00    -0.389 NA 
ENDBRANCH   4   6
ENDBRANCH   1   4
BRANCH   1  16
HETATM   16  C   UNL     1      -9.117  11.195  68.119  1.00  0.00    -0.159 C  
HETATM   17  O   UNL     1     -10.239  10.166  64.870  1.00  0.00    -0.300 OA 
HETATM   18  N   UNL     1      -9.836  12.267  68.314  1.00  0.00    -0.215 NA 
HETATM   19  C   UNL     1     -10.679  12.725  67.296  1.00  0.00    -0.237 A  
HETATM   20  N   UNL     1      -9.182  10.464  66.932  1.00  0.00    -0.150 N  
HETATM   21  C   UNL     1     -10.095  10.794  65.918  1.00  0.00    -0.256 C  
HETATM   22  C   UNL     1     -11.345  13.945  67.471  1.00  0.00    -0.342 A  
HETATM   23  C   UNL     1     -10.888  12.012  66.120  1.00  0.00    -0.325 A  
HETATM   24  C   UNL     1     -12.222  14.431  66.497  1.00  0.00    -0.358 A  
HETATM   25  C   UNL     1     -12.456  13.688  65.345  1.00  0.00    -0.537 A  
HETATM   26  F   UNL     1     -12.041  11.796  64.038  1.00  0.00    -0.442 F  
HETATM   27  C   UNL     1     -11.790  12.481  65.161  1.00  0.00    -0.405 A  
BRANCH  20  28
HETATM   28  C   UNL     1      -8.344   9.336  66.674  1.00  0.00    -0.122 A  
HETATM   29  C   UNL     1      -8.775   8.034  66.952  1.00  0.00    -0.136 A  
HETATM   30  C   UNL     1      -7.959   6.944  66.638  1.00  0.00    -0.108 A  
HETATM   31  C   UNL     1      -6.709   7.149  66.055  1.00  0.00    -0.053 A  
HETATM   32  C   UNL     1      -6.252   8.444  65.824  1.00  0.00    -0.052 A  
HETATM   33  C   UNL     1      -7.056   9.533  66.153  1.00  0.00    -0.092 A  
ENDBRANCH  20  28
ENDBRANCH   1  16
TORSDOF 5
ENDMDL
MODEL      143
REMARK 921   NORMALIZED FREE ENERGY PREDICTED BY IDOCK:   -5.47 KCAL/MOL
REMARK 922        TOTAL FREE ENERGY PREDICTED BY IDOCK:   -7.13 KCAL/MOL
REMARK 923 INTER-LIGAND FREE ENERGY PREDICTED BY IDOCK:   -7.21 KCAL/MOL
REMARK 924 INTRA-LIGAND FREE ENERGY PREDICTED BY IDOCK:    0.08 KCAL/MOL
REMARK 927      BINDING AFFINITY PREDICTED BY RF-SCORE:    0.00 PKD
ROOT
HETATM    1  C   UNL     1      -9.531   9.408  68.737  1.00  0.00    -0.150 C  
ENDROOT
BRANCH   1   2
HETATM    2  C   UNL     1      -9.277   9.106  70.227  1.00  0.00    -0.249 C  
HETATM    3  C   UNL     1      -7.848   9.317  70.698  1.00  0.00    -0.181 C  
ENDBRANCH   1   2
BRANCH   1   4
HETATM    4  N   UNL     1     -10.921   9.848  68.571  1.00  0.00    -0.387 NA 
HETATM    5  H   UNL     1     -11.672   9.188  68.777  1.00  0.00     0.000 HD 
BRANCH   4   6
HETATM    6  C   UNL     1     -11.252  11.118  68.146  1.00  0.00    -0.292 A  
HETATM    7  C   UNL     1     -11.995  13.359  68.474  1.00  0.00    -0.328 A  
HETATM    8  N   UNL     1     -11.997  13.700  67.180  1.00  0.00    -0.396 NA 
HETATM    9  N   UNL     1     -11.775  12.196  70.415  1.00  0.00    -0.532 NA 
HETATM   10  C   UNL     1     -11.602  12.661  66.424  1.00  0.00    -0.384 A  
HETATM   11  C   UNL     1     -12.220  13.416  70.669  1.00  0.00    -0.350 A  
HETATM   12  H   UNL     1     -11.575  11.456  71.088  1.00  0.00     0.000 HD 
HETATM   13  N   UNL     1     -11.244  11.420  66.819  1.00  0.00    -0.343 NA 
HETATM   14  C   UNL     1     -11.641  12.144  69.037  1.00  0.00    -0.319 A  
HETATM   15  N   UNL     1     -12.359  14.153  69.525  1.00  0.00    -0.298 NA 
ENDBRANCH   4   6
ENDBRANCH   1   4
BRANCH   1  16
HETATM   16  C   UNL     1      -9.307   8.161  67.799  1.00  0.00    -0.134 C  
HETATM   17  O   UNL     1     -10.227   4.710  67.457  1.00  0.00    -0.115 OA 
HETATM   18  N   UNL     1      -8.690   8.378  66.669  1.00  0.00    -0.126 NA 
HETATM   19  C   UNL     1      -8.493   7.319  65.777  1.00  0.00    -0.143 A  
HETATM   20  N   UNL     1      -9.811   6.906  68.139  1.00  0.00    -0.134 N  
HETATM   21  C   UNL     1      -9.760   5.828  67.241  1.00  0.00    -0.129 C  
HETATM   22  C   UNL     1      -7.718   7.537  64.632  1.00  0.00    -0.122 A  
HETATM   23  C   UNL     1      -9.045   6.057  65.980  1.00  0.00    -0.143 A  
HETATM   24  C   UNL     1      -7.517   6.519  63.694  1.00  0.00    -0.082 A  
HETATM   25  C   UNL     1      -8.110   5.275  63.887  1.00  0.00    -0.117 A  
HETATM   26  F   UNL     1      -9.426   3.839  65.177  1.00  0.00    -0.136 F  
HETATM   27  C   UNL     1      -8.873   5.050  65.028  1.00  0.00    -0.149 A  
BRANCH  20  28
HETATM   28  C   UNL     1     -10.419   6.636  69.403  1.00  0.00    -0.219 A  
HETATM   29  C   UNL     1      -9.684   6.085  70.459  1.00  0.00    -0.210 A  
HETATM   30  C   UNL     1     -10.288   5.884  71.703  1.00  0.00    -0.268 A  
HETATM   31  C   UNL     1     -11.628   6.220  71.895  1.00  0.00    -0.369 A  
HETATM   32  C   UNL     1     -12.379   6.719  70.834  1.00  0.00    -0.336 A  
HETATM   33  C   UNL     1     -11.784   6.904  69.588  1.00  0.00    -0.076 A  
ENDBRANCH  20  28
ENDBRANCH   1  16
TORSDOF 5
ENDMDL
MODEL      144
REMARK 921   NORMALIZED FREE ENERGY PREDICTED BY IDOCK:   -5.39 KCAL/MOL
REMARK 922        TOTAL FREE ENERGY PREDICTED BY IDOCK:   -7.04 KCAL/MOL
REMARK 923 INTER-LIGAND FREE ENERGY PREDICTED BY IDOCK:   -6.56 KCAL/MOL
REMARK 924 INTRA-LIGAND FREE ENERGY PREDICTED BY IDOCK:   -0.48 KCAL/MOL
REMARK 927      BINDING AFFINITY PREDICTED BY RF-SCORE:    0.00 PKD
ROOT
HETATM    1  C   UNL     1     -10.798  10.337  67.804  1.00  0.00    -0.292 C  
ENDROOT
BRANCH   1   2
HETATM    2  C   UNL     1     -10.412  11.525  66.902  1.00  0.00    -0.270 C  
HETATM    3  C   UNL     1     -10.331  12.872  67.602  1.00  0.00    -0.218 C  
ENDBRANCH   1   2
BRANCH   1   4
HETATM    4  N   UNL     1     -10.530  10.696  69.202  1.00  0.00    -0.210 NA 
HETATM    5  H   UNL     1      -9.642  11.142  69.432  1.00  0.00     0.000 HD 
BRANCH   4   6
HETATM    6  C   UNL     1     -11.432  10.451  70.217  1.00  0.00    -0.325 A  
HETATM    7  C   UNL     1     -12.740   9.040  71.624  1.00  0.00    -0.358 A  
HETATM    8  N   UNL     1     -13.366  10.028  72.275  1.00  0.00    -0.383 NA 
HETATM    9  N   UNL     1     -11.383   7.885  70.212  1.00  0.00    -0.428 NA 
HETATM   10  C   UNL     1     -12.950  11.223  71.819  1.00  0.00    -0.414 A  
HETATM   11  C   UNL     1     -12.102   7.043  70.937  1.00  0.00    -0.357 A  
HETATM   12  H   UNL     1     -10.687   7.656  69.503  1.00  0.00     0.000 HD 
HETATM   13  N   UNL     1     -12.048  11.486  70.850  1.00  0.00    -0.318 NA 
HETATM   14  C   UNL     1     -11.785   9.145  70.626  1.00  0.00    -0.209 A  
HETATM   15  N   UNL     1     -12.928   7.699  71.807  1.00  0.00    -0.337 NA 
ENDBRANCH   4   6
ENDBRANCH   1   4
BRANCH   1  16
HETATM   16  C   UNL     1      -9.993   9.020  67.484  1.00  0.00    -0.207 C  
HETATM   17  O   UNL     1      -6.665   7.682  67.558  1.00  0.00    -0.063 OA 
HETATM   18  N   UNL     1     -10.695   7.956  67.203  1.00  0.00    -0.302 NA 
HETATM   19  C   UNL     1     -10.039   6.747  66.946  1.00  0.00    -0.202 A  
HETATM   20  N   UNL     1      -8.601   8.990  67.570  1.00  0.00    -0.120 N  
HETATM   21  C   UNL     1      -7.886   7.789  67.446  1.00  0.00    -0.118 C  
HETATM   22  C   UNL     1     -10.795   5.648  66.520  1.00  0.00    -0.239 A  
HETATM   23  C   UNL     1      -8.665   6.593  67.104  1.00  0.00    -0.111 A  
HETATM   24  C   UNL     1     -10.191   4.410  66.279  1.00  0.00    -0.211 A  
HETATM   25  C   UNL     1      -8.824   4.257  66.483  1.00  0.00    -0.116 A  
HETATM   26  F   UNL     1      -6.753   5.160  67.080  1.00  0.00    -0.048 F  
HETATM   27  C   UNL     1      -8.067   5.348  66.897  1.00  0.00    -0.105 A  
BRANCH  20  28
HETATM   28  C   UNL     1      -7.817  10.161  67.799  1.00  0.00    -0.098 A  
HETATM   29  C   UNL     1      -7.375  10.958  66.737  1.00  0.00    -0.134 A  
HETATM   30  C   UNL     1      -6.658  12.130  66.992  1.00  0.00    -0.081 A  
HETATM   31  C   UNL     1      -6.370  12.506  68.303  1.00  0.00    -0.062 A  
HETATM   32  C   UNL     1      -6.761  11.690  69.362  1.00  0.00    -0.110 A  
HETATM   33  C   UNL     1      -7.460  10.512  69.110  1.00  0.00    -0.114 A  
ENDBRANCH  20  28
ENDBRANCH   1  16
TORSDOF 5
ENDMDL
MODEL      145
REMARK 921   NORMALIZED FREE ENERGY PREDICTED BY IDOCK:   -5.39 KCAL/MOL
REMARK 922        TOTAL FREE ENERGY PREDICTED BY IDOCK:   -7.04 KCAL/MOL
REMARK 923 INTER-LIGAND FREE ENERGY PREDICTED BY IDOCK:   -7.17 KCAL/MOL
REMARK 924 INTRA-LIGAND FREE ENERGY PREDICTED BY IDOCK:    0.14 KCAL/MOL
REMARK 927      BINDING AFFINITY PREDICTED BY RF-SCORE:    0.00 PKD
ROOT
HETATM    1  C   UNL     1     -10.154  16.043  68.868  1.00  0.00    -0.229 C  
ENDROOT
BRANCH   1   2
HETATM    2  C   UNL     1     -10.586  16.768  67.578  1.00  0.00    -0.309 C  
HETATM    3  C   UNL     1     -11.150  18.165  67.777  1.00  0.00     0.073 C  
ENDBRANCH   1   2
BRANCH   1   4
HETATM    4  N   UNL     1      -8.714  16.246  69.067  1.00  0.00    -0.252 NA 
HETATM    5  H   UNL     1      -8.173  15.510  69.521  1.00  0.00     0.000 HD 
BRANCH   4   6
HETATM    6  C   UNL     1      -8.064  17.395  68.665  1.00  0.00    -0.264 A  
HETATM    7  C   UNL     1      -6.395  18.601  67.466  1.00  0.00    -0.195 A  
HETATM    8  N   UNL     1      -6.720  19.809  67.943  1.00  0.00    -0.238 NA 
HETATM    9  N   UNL     1      -6.358  16.367  67.048  1.00  0.00    -0.245 NA 
HETATM   10  C   UNL     1      -7.756  19.709  68.794  1.00  0.00    -0.302 A  
HETATM   11  C   UNL     1      -5.387  16.968  66.377  1.00  0.00    -0.010 A  
HETATM   12  H   UNL     1      -6.588  15.373  67.050  1.00  0.00     0.000 HD 
HETATM   13  N   UNL     1      -8.426  18.602  69.179  1.00  0.00    -0.045 NA 
HETATM   14  C   UNL     1      -6.990  17.383  67.746  1.00  0.00    -0.163 A  
HETATM   15  N   UNL     1      -5.379  18.317  66.595  1.00  0.00    -0.137 NA 
ENDBRANCH   4   6
ENDBRANCH   1   4
BRANCH   1  16
HETATM   16  C   UNL     1     -10.418  14.489  68.832  1.00  0.00    -0.246 C  
HETATM   17  O   UNL     1     -12.448  11.956  70.361  1.00  0.00    -0.253 OA 
HETATM   18  N   UNL     1      -9.842  13.816  67.873  1.00  0.00    -0.226 NA 
HETATM   19  C   UNL     1     -10.068  12.440  67.766  1.00  0.00    -0.203 A  
HETATM   20  N   UNL     1     -11.285  13.886  69.744  1.00  0.00    -0.151 N  
HETATM   21  C   UNL     1     -11.653  12.538  69.622  1.00  0.00    -0.253 C  
HETATM   22  C   UNL     1      -9.343  11.711  66.815  1.00  0.00    -0.193 A  
HETATM   23  C   UNL     1     -10.990  11.768  68.563  1.00  0.00    -0.270 A  
HETATM   24  C   UNL     1      -9.554  10.338  66.648  1.00  0.00    -0.220 A  
HETATM   25  C   UNL     1     -10.510   9.687  67.420  1.00  0.00    -0.319 A  
HETATM   26  F   UNL     1     -12.135   9.741  69.098  1.00  0.00     0.127 F  
HETATM   27  C   UNL     1     -11.225  10.405  68.373  1.00  0.00    -0.258 A  
BRANCH  20  28
HETATM   28  C   UNL     1     -11.861  14.593  70.843  1.00  0.00    -0.313 A  
HETATM   29  C   UNL     1     -11.058  15.203  71.814  1.00  0.00    -0.153 A  
HETATM   30  C   UNL     1     -11.646  15.937  72.849  1.00  0.00    -0.317 A  
HETATM   31  C   UNL     1     -13.033  16.056  72.924  1.00  0.00    -0.555 A  
HETATM   32  C   UNL     1     -13.839  15.407  71.992  1.00  0.00    -0.625 A  
HETATM   33  C   UNL     1     -13.257  14.660  70.970  1.00  0.00    -0.431 A  
ENDBRANCH  20  28
ENDBRANCH   1  16
TORSDOF 5
ENDMDL
MODEL      146
REMARK 921   NORMALIZED FREE ENERGY PREDICTED BY IDOCK:   -5.39 KCAL/MOL
REMARK 922        TOTAL FREE ENERGY PREDICTED BY IDOCK:   -7.04 KCAL/MOL
REMARK 923 INTER-LIGAND FREE ENERGY PREDICTED BY IDOCK:   -7.20 KCAL/MOL
REMARK 924 INTRA-LIGAND FREE ENERGY PREDICTED BY IDOCK:    0.17 KCAL/MOL
REMARK 927      BINDING AFFINITY PREDICTED BY RF-SCORE:    0.00 PKD
ROOT
HETATM    1  C   UNL     1      -9.782  13.844  68.196  1.00  0.00    -0.222 C  
ENDROOT
BRANCH   1   2
HETATM    2  C   UNL     1     -11.227  14.242  68.557  1.00  0.00    -0.289 C  
HETATM    3  C   UNL     1     -11.859  13.441  69.684  1.00  0.00    -0.394 C  
ENDBRANCH   1   2
BRANCH   1   4
HETATM    4  N   UNL     1      -9.435  14.437  66.899  1.00  0.00    -0.247 NA 
HETATM    5  H   UNL     1      -9.067  13.830  66.166  1.00  0.00     0.000 HD 
BRANCH   4   6
HETATM    6  C   UNL     1      -9.588  15.782  66.634  1.00  0.00    -0.247 A  
HETATM    7  C   UNL     1      -9.233  18.101  67.058  1.00  0.00    -0.270 A  
HETATM    8  N   UNL     1     -10.016  18.549  66.068  1.00  0.00    -0.534 NA 
HETATM    9  N   UNL     1      -8.099  16.746  68.488  1.00  0.00    -0.229 NA 
HETATM   10  C   UNL     1     -10.554  17.515  65.397  1.00  0.00     0.003 A  
HETATM   11  C   UNL     1      -7.883  18.014  68.801  1.00  0.00    -0.258 A  
HETATM   12  H   UNL     1      -7.716  15.920  68.948  1.00  0.00     0.000 HD 
HETATM   13  N   UNL     1     -10.396  16.193  65.619  1.00  0.00    -0.395 NA 
HETATM   14  C   UNL     1      -8.956  16.788  67.401  1.00  0.00    -0.204 A  
HETATM   15  N   UNL     1      -8.543  18.864  67.957  1.00  0.00    -0.291 NA 
ENDBRANCH   4   6
ENDBRANCH   1   4
BRANCH   1  16
HETATM   16  C   UNL     1      -9.572  12.286  68.083  1.00  0.00    -0.213 C  
HETATM   17  O   UNL     1      -9.986   9.563  65.784  1.00  0.00    -0.300 OA 
HETATM   18  N   UNL     1      -8.922  11.707  69.056  1.00  0.00     0.107 NA 
HETATM   19  C   UNL     1      -8.671  10.332  68.995  1.00  0.00    -0.163 A  
HETATM   20  N   UNL     1     -10.003  11.582  66.958  1.00  0.00    -0.198 N  
HETATM   21  C   UNL     1      -9.680  10.230  66.772  1.00  0.00    -0.185 C  
HETATM   22  C   UNL     1      -8.089   9.704  70.102  1.00  0.00    -0.205 A  
HETATM   23  C   UNL     1      -8.972   9.566  67.873  1.00  0.00    -0.125 A  
HETATM   24  C   UNL     1      -7.791   8.338  70.080  1.00  0.00    -0.104 A  
HETATM   25  C   UNL     1      -8.056   7.592  68.936  1.00  0.00    -0.127 A  
HETATM   26  F   UNL     1      -8.885   7.455  66.756  1.00  0.00    -0.119 F  
HETATM   27  C   UNL     1      -8.644   8.209  67.837  1.00  0.00    -0.132 A  
BRANCH  20  28
HETATM   28  C   UNL     1     -10.783  12.185  65.924  1.00  0.00    -0.266 A  
HETATM   29  C   UNL     1     -12.148  12.439  66.098  1.00  0.00    -0.295 A  
HETATM   30  C   UNL     1     -12.875  13.082  65.092  1.00  0.00    -0.335 A  
HETATM   31  C   UNL     1     -12.247  13.463  63.907  1.00  0.00    -0.478 A  
HETATM   32  C   UNL     1     -10.902  13.166  63.706  1.00  0.00    -0.172 A  
HETATM   33  C   UNL     1     -10.178  12.509  64.699  1.00  0.00    -0.315 A  
ENDBRANCH  20  28
ENDBRANCH   1  16
TORSDOF 5
ENDMDL
MODEL      147
REMARK 921   NORMALIZED FREE ENERGY PREDICTED BY IDOCK:   -5.39 KCAL/MOL
REMARK 922        TOTAL FREE ENERGY PREDICTED BY IDOCK:   -7.03 KCAL/MOL
REMARK 923 INTER-LIGAND FREE ENERGY PREDICTED BY IDOCK:   -6.02 KCAL/MOL
REMARK 924 INTRA-LIGAND FREE ENERGY PREDICTED BY IDOCK:   -1.01 KCAL/MOL
REMARK 927      BINDING AFFINITY PREDICTED BY RF-SCORE:    0.00 PKD
ROOT
HETATM    1  C   UNL     1     -10.285   9.595  68.502  1.00  0.00    -0.193 C  
ENDROOT
BRANCH   1   2
HETATM    2  C   UNL     1     -11.766   9.848  68.846  1.00  0.00     0.240 C  
HETATM    3  C   UNL     1     -12.010  10.791  70.012  1.00  0.00    -0.427 C  
ENDBRANCH   1   2
BRANCH   1   4
HETATM    4  N   UNL     1      -9.917  10.425  67.349  1.00  0.00    -0.181 NA 
HETATM    5  H   UNL     1     -10.217  10.132  66.419  1.00  0.00     0.000 HD 
BRANCH   4   6
HETATM    6  C   UNL     1      -9.179  11.584  67.474  1.00  0.00    -0.166 A  
HETATM    7  C   UNL     1      -8.747  13.898  67.093  1.00  0.00    -0.221 A  
HETATM    8  N   UNL     1      -7.558  13.924  67.708  1.00  0.00    -0.152 NA 
HETATM    9  N   UNL     1     -10.739  13.208  66.241  1.00  0.00    -0.282 NA 
HETATM   10  C   UNL     1      -7.256  12.705  68.188  1.00  0.00    -0.109 A  
HETATM   11  C   UNL     1     -10.549  14.488  65.966  1.00  0.00    -0.307 A  
HETATM   12  H   UNL     1     -11.543  12.631  65.993  1.00  0.00     0.000 HD 
HETATM   13  N   UNL     1      -7.973  11.565  68.105  1.00  0.00    -0.128 NA 
HETATM   14  C   UNL     1      -9.606  12.822  66.939  1.00  0.00    -0.235 A  
HETATM   15  N   UNL     1      -9.363  14.946  66.469  1.00  0.00    -0.266 NA 
ENDBRANCH   4   6
ENDBRANCH   1   4
BRANCH   1  16
HETATM   16  C   UNL     1      -9.975   8.095  68.132  1.00  0.00    -0.186 C  
HETATM   17  O   UNL     1     -10.260   4.768  69.447  1.00  0.00    -0.210 OA 
HETATM   18  N   UNL     1      -9.594   7.857  66.907  1.00  0.00    -0.187 NA 
HETATM   19  C   UNL     1      -9.339   6.541  66.507  1.00  0.00    -0.159 A  
HETATM   20  N   UNL     1     -10.171   7.071  69.059  1.00  0.00    -0.180 N  
HETATM   21  C   UNL     1     -10.055   5.721  68.694  1.00  0.00    -0.175 C  
HETATM   22  C   UNL     1      -8.807   6.316  65.232  1.00  0.00     0.059 A  
HETATM   23  C   UNL     1      -9.601   5.447  67.326  1.00  0.00    -0.140 A  
HETATM   24  C   UNL     1      -8.563   5.017  64.774  1.00  0.00    -0.150 A  
HETATM   25  C   UNL     1      -8.870   3.929  65.585  1.00  0.00    -0.124 A  
HETATM   26  F   UNL     1      -9.670   3.075  67.607  1.00  0.00    -0.253 F  
HETATM   27  C   UNL     1      -9.389   4.149  66.857  1.00  0.00    -0.174 A  
BRANCH  20  28
HETATM   28  C   UNL     1     -10.512   7.321  70.424  1.00  0.00    -0.220 A  
HETATM   29  C   UNL     1      -9.536   7.668  71.364  1.00  0.00    -0.166 A  
HETATM   30  C   UNL     1      -9.904   7.963  72.680  1.00  0.00    -0.316 A  
HETATM   31  C   UNL     1     -11.243   7.902  73.064  1.00  0.00    -0.346 A  
HETATM   32  C   UNL     1     -12.213   7.506  72.147  1.00  0.00    -0.283 A  
HETATM   33  C   UNL     1     -11.847   7.194  70.839  1.00  0.00    -0.379 A  
ENDBRANCH  20  28
ENDBRANCH   1  16
TORSDOF 5
ENDMDL
MODEL      148
REMARK 921   NORMALIZED FREE ENERGY PREDICTED BY IDOCK:   -5.39 KCAL/MOL
REMARK 922        TOTAL FREE ENERGY PREDICTED BY IDOCK:   -7.03 KCAL/MOL
REMARK 923 INTER-LIGAND FREE ENERGY PREDICTED BY IDOCK:   -6.99 KCAL/MOL
REMARK 924 INTRA-LIGAND FREE ENERGY PREDICTED BY IDOCK:   -0.04 KCAL/MOL
REMARK 927      BINDING AFFINITY PREDICTED BY RF-SCORE:    0.00 PKD
ROOT
HETATM    1  C   UNL     1      -9.359  13.139  68.250  1.00  0.00    -0.201 C  
ENDROOT
BRANCH   1   2
HETATM    2  C   UNL     1     -10.796  13.291  68.787  1.00  0.00    -0.273 C  
HETATM    3  C   UNL     1     -11.413  12.024  69.355  1.00  0.00    -0.361 C  
ENDBRANCH   1   2
BRANCH   1   4
HETATM    4  N   UNL     1      -9.027  14.319  67.441  1.00  0.00    -0.191 NA 
HETATM    5  H   UNL     1      -9.234  14.302  66.442  1.00  0.00     0.000 HD 
BRANCH   4   6
HETATM    6  C   UNL     1      -8.446  15.448  67.979  1.00  0.00    -0.146 A  
HETATM    7  C   UNL     1      -8.313  17.789  68.409  1.00  0.00    -0.295 A  
HETATM    8  N   UNL     1      -7.140  17.750  69.054  1.00  0.00    -0.253 NA 
HETATM    9  N   UNL     1     -10.194  17.192  67.281  1.00  0.00    -0.308 NA 
HETATM   10  C   UNL     1      -6.686  16.486  69.116  1.00  0.00    -0.213 A  
HETATM   11  C   UNL     1     -10.170  18.504  67.456  1.00  0.00    -0.385 A  
HETATM   12  H   UNL     1     -10.916  16.641  66.817  1.00  0.00     0.000 HD 
HETATM   13  N   UNL     1      -7.251  15.363  68.625  1.00  0.00    -0.116 NA 
HETATM   14  C   UNL     1      -9.025  16.733  67.865  1.00  0.00    -0.219 A  
HETATM   15  N   UNL     1      -9.055  18.905  68.138  1.00  0.00    -0.303 NA 
ENDBRANCH   4   6
ENDBRANCH   1   4
BRANCH   1  16
HETATM   16  C   UNL     1      -9.160  11.865  67.344  1.00  0.00    -0.178 C  
HETATM   17  O   UNL     1      -9.926  10.605  64.073  1.00  0.00    -0.310 OA 
HETATM   18  N   UNL     1      -8.356  10.942  67.796  1.00  0.00    -0.116 NA 
HETATM   19  C   UNL     1      -8.110   9.803  67.022  1.00  0.00    -0.113 A  
HETATM   20  N   UNL     1      -9.765  11.773  66.090  1.00  0.00    -0.223 N  
HETATM   21  C   UNL     1      -9.467  10.722  65.210  1.00  0.00    -0.218 C  
HETATM   22  C   UNL     1      -7.350   8.764  67.573  1.00  0.00    -0.081 A  
HETATM   23  C   UNL     1      -8.585   9.666  65.721  1.00  0.00    -0.149 A  
HETATM   24  C   UNL     1      -7.051   7.618  66.829  1.00  0.00    -0.083 A  
HETATM   25  C   UNL     1      -7.494   7.513  65.514  1.00  0.00    -0.084 A  
HETATM   26  F   UNL     1      -8.667   8.398  63.697  1.00  0.00    -0.103 F  
HETATM   27  C   UNL     1      -8.258   8.538  64.965  1.00  0.00    -0.158 A  
BRANCH  20  28
HETATM   28  C   UNL     1     -10.706  12.737  65.616  1.00  0.00    -0.273 A  
HETATM   29  C   UNL     1     -12.078  12.588  65.850  1.00  0.00    -0.420 A  
HETATM   30  C   UNL     1     -12.972  13.573  65.424  1.00  0.00    -0.292 A  
HETATM   31  C   UNL     1     -12.504  14.704  64.756  1.00  0.00    -0.286 A  
HETATM   32  C   UNL     1     -11.147  14.833  64.473  1.00  0.00    -0.260 A  
HETATM   33  C   UNL     1     -10.255  13.844  64.880  1.00  0.00    -0.378 A  
ENDBRANCH  20  28
ENDBRANCH   1  16
TORSDOF 5
ENDMDL
MODEL      149
REMARK 921   NORMALIZED FREE ENERGY PREDICTED BY IDOCK:   -5.36 KCAL/MOL
REMARK 922        TOTAL FREE ENERGY PREDICTED BY IDOCK:   -6.99 KCAL/MOL
REMARK 923 INTER-LIGAND FREE ENERGY PREDICTED BY IDOCK:   -7.10 KCAL/MOL
REMARK 924 INTRA-LIGAND FREE ENERGY PREDICTED BY IDOCK:    0.10 KCAL/MOL
REMARK 927      BINDING AFFINITY PREDICTED BY RF-SCORE:    0.00 PKD
ROOT
HETATM    1  C   UNL     1      -6.872  17.469  69.571  1.00  0.00    -0.064 C  
ENDROOT
BRANCH   1   2
HETATM    2  C   UNL     1      -6.522  18.910  69.152  1.00  0.00    -0.313 C  
HETATM    3  C   UNL     1      -5.369  19.545  69.913  1.00  0.00    -0.228 C  
ENDBRANCH   1   2
BRANCH   1   4
HETATM    4  N   UNL     1      -5.694  16.616  69.369  1.00  0.00    -0.152 NA 
HETATM    5  H   UNL     1      -4.920  16.975  68.810  1.00  0.00     0.000 HD 
BRANCH   4   6
HETATM    6  C   UNL     1      -5.594  15.349  69.905  1.00  0.00    -0.123 A  
HETATM    7  C   UNL     1      -5.696  12.969  69.807  1.00  0.00    -0.114 A  
HETATM    8  N   UNL     1      -5.447  12.762  71.106  1.00  0.00    -0.302 NA 
HETATM    9  N   UNL     1      -6.051  13.964  67.794  1.00  0.00    -0.238 NA 
HETATM   10  C   UNL     1      -5.279  13.936  71.741  1.00  0.00    -0.203 A  
HETATM   11  C   UNL     1      -6.155  12.649  67.673  1.00  0.00    -0.147 A  
HETATM   12  H   UNL     1      -6.153  14.665  67.060  1.00  0.00     0.000 HD 
HETATM   13  N   UNL     1      -5.342  15.184  71.232  1.00  0.00    -0.103 NA 
HETATM   14  C   UNL     1      -5.775  14.178  69.134  1.00  0.00    -0.085 A  
HETATM   15  N   UNL     1      -5.940  12.012  68.863  1.00  0.00    -0.057 NA 
ENDBRANCH   4   6
ENDBRANCH   1   4
BRANCH   1  16
HETATM   16  C   UNL     1      -8.061  16.847  68.744  1.00  0.00    -0.251 C  
HETATM   17  O   UNL     1      -9.302  16.583  65.388  1.00  0.00    -0.371 OA 
HETATM   18  N   UNL     1      -8.857  16.032  69.380  1.00  0.00    -0.219 NA 
HETATM   19  C   UNL     1      -9.910  15.420  68.691  1.00  0.00    -0.208 A  
HETATM   20  N   UNL     1      -8.202  17.109  67.381  1.00  0.00    -0.180 N  
HETATM   21  C   UNL     1      -9.156  16.437  66.601  1.00  0.00    -0.250 C  
HETATM   22  C   UNL     1     -10.831  14.652  69.413  1.00  0.00    -0.261 A  
HETATM   23  C   UNL     1     -10.072  15.539  67.314  1.00  0.00    -0.250 A  
HETATM   24  C   UNL     1     -11.883  13.995  68.767  1.00  0.00    -0.396 A  
HETATM   25  C   UNL     1     -12.009  14.085  67.384  1.00  0.00    -0.439 A  
HETATM   26  F   UNL     1     -11.258  14.919  65.334  1.00  0.00    -0.318 F  
HETATM   27  C   UNL     1     -11.102  14.856  66.663  1.00  0.00    -0.329 A  
BRANCH  20  28
HETATM   28  C   UNL     1      -7.388  18.057  66.689  1.00  0.00    -0.221 A  
HETATM   29  C   UNL     1      -7.796  19.386  66.531  1.00  0.00    -0.300 A  
HETATM   30  C   UNL     1      -6.955  20.307  65.900  1.00  0.00    -0.295 A  
HETATM   31  C   UNL     1      -5.711  19.904  65.416  1.00  0.00    -0.205 A  
HETATM   32  C   UNL     1      -5.321  18.572  65.523  1.00  0.00    -0.206 A  
HETATM   33  C   UNL     1      -6.164  17.648  66.135  1.00  0.00    -0.268 A  
ENDBRANCH  20  28
ENDBRANCH   1  16
TORSDOF 5
ENDMDL
MODEL      150
REMARK 921   NORMALIZED FREE ENERGY PREDICTED BY IDOCK:   -5.35 KCAL/MOL
REMARK 922        TOTAL FREE ENERGY PREDICTED BY IDOCK:   -6.98 KCAL/MOL
REMARK 923 INTER-LIGAND FREE ENERGY PREDICTED BY IDOCK:   -6.45 KCAL/MOL
REMARK 924 INTRA-LIGAND FREE ENERGY PREDICTED BY IDOCK:   -0.52 KCAL/MOL
REMARK 927      BINDING AFFINITY PREDICTED BY RF-SCORE:    0.00 PKD
ROOT
HETATM    1  C   UNL     1      -9.271   9.530  67.362  1.00  0.00    -0.133 C  
ENDROOT
BRANCH   1   2
HETATM    2  C   UNL     1      -9.581   8.868  66.005  1.00  0.00    -0.320 C  
HETATM    3  C   UNL     1      -8.367   8.417  65.210  1.00  0.00    -0.169 C  
ENDBRANCH   1   2
BRANCH   1   4
HETATM    4  N   UNL     1      -7.939   9.100  67.807  1.00  0.00    -0.100 NA 
HETATM    5  H   UNL     1      -7.517   8.281  67.369  1.00  0.00     0.000 HD 
BRANCH   4   6
HETATM    6  C   UNL     1      -7.237   9.760  68.794  1.00  0.00    -0.072 A  
HETATM    7  C   UNL     1      -6.377  10.016  71.002  1.00  0.00     0.030 A  
HETATM    8  N   UNL     1      -5.837  11.225  70.806  1.00  0.00    -0.326 NA 
HETATM    9  N   UNL     1      -7.462   8.043  70.688  1.00  0.00    -0.067 NA 
HETATM   10  C   UNL     1      -6.051  11.631  69.542  1.00  0.00    -0.103 A  
HETATM   11  C   UNL     1      -7.041   8.132  71.939  1.00  0.00    -0.081 A  
HETATM   12  H   UNL     1      -7.970   7.270  70.257  1.00  0.00     0.000 HD 
HETATM   13  N   UNL     1      -6.707  10.990  68.552  1.00  0.00    -0.059 NA 
HETATM   14  C   UNL     1      -7.061   9.228  70.091  1.00  0.00    -0.072 A  
HETATM   15  N   UNL     1      -6.375   9.304  72.169  1.00  0.00    -0.289 NA 
ENDBRANCH   4   6
ENDBRANCH   1   4
BRANCH   1  16
HETATM   16  C   UNL     1     -10.300   9.150  68.494  1.00  0.00    -0.207 C  
HETATM   17  O   UNL     1     -11.636   6.306  70.226  1.00  0.00    -0.395 OA 
HETATM   18  N   UNL     1     -10.806  10.135  69.184  1.00  0.00    -0.216 NA 
HETATM   19  C   UNL     1     -11.698   9.860  70.226  1.00  0.00    -0.216 A  
HETATM   20  N   UNL     1     -10.593   7.816  68.781  1.00  0.00    -0.178 N  
HETATM   21  C   UNL     1     -11.379   7.461  69.888  1.00  0.00    -0.076 C  
HETATM   22  C   UNL     1     -12.331  10.929  70.871  1.00  0.00    -0.501 A  
HETATM   23  C   UNL     1     -11.973   8.564  70.652  1.00  0.00    -0.047 A  
HETATM   24  C   UNL     1     -13.208  10.708  71.938  1.00  0.00    -0.528 A  
HETATM   25  C   UNL     1     -13.441   9.411  72.383  1.00  0.00    -0.506 A  
HETATM   26  F   UNL     1     -13.073   7.111  72.197  1.00  0.00    -0.285 F  
HETATM   27  C   UNL     1     -12.822   8.345  71.740  1.00  0.00    -0.345 A  
BRANCH  20  28
HETATM   28  C   UNL     1     -10.108   6.732  67.987  1.00  0.00    -0.159 A  
HETATM   29  C   UNL     1     -10.876   6.193  66.949  1.00  0.00    -0.411 A  
HETATM   30  C   UNL     1     -10.356   5.171  66.150  1.00  0.00    -0.280 A  
HETATM   31  C   UNL     1      -9.074   4.677  66.391  1.00  0.00    -0.120 A  
HETATM   32  C   UNL     1      -8.325   5.172  67.455  1.00  0.00    -0.106 A  
HETATM   33  C   UNL     1      -8.848   6.178  68.264  1.00  0.00    -0.112 A  
ENDBRANCH  20  28
ENDBRANCH   1  16
TORSDOF 5
ENDMDL
MODEL      151
REMARK 921   NORMALIZED FREE ENERGY PREDICTED BY IDOCK:   -5.31 KCAL/MOL
REMARK 922        TOTAL FREE ENERGY PREDICTED BY IDOCK:   -6.93 KCAL/MOL
REMARK 923 INTER-LIGAND FREE ENERGY PREDICTED BY IDOCK:   -8.01 KCAL/MOL
REMARK 924 INTRA-LIGAND FREE ENERGY PREDICTED BY IDOCK:    1.08 KCAL/MOL
REMARK 927      BINDING AFFINITY PREDICTED BY RF-SCORE:    0.00 PKD
ROOT
HETATM    1  C   UNL     1     -10.382  12.919  68.242  1.00  0.00    -0.244 C  
ENDROOT
BRANCH   1   2
HETATM    2  C   UNL     1     -11.797  13.524  68.325  1.00  0.00    -0.401 C  
HETATM    3  C   UNL     1     -12.187  14.080  69.685  1.00  0.00    -0.383 C  
ENDBRANCH   1   2
BRANCH   1   4
HETATM    4  N   UNL     1      -9.773  13.309  66.965  1.00  0.00    -0.232 NA 
HETATM    5  H   UNL     1      -9.513  12.578  66.303  1.00  0.00     0.000 HD 
BRANCH   4   6
HETATM    6  C   UNL     1      -9.538  14.626  66.626  1.00  0.00    -0.278 A  
HETATM    7  C   UNL     1     -10.024  16.662  65.485  1.00  0.00    -0.058 A  
HETATM    8  N   UNL     1      -8.941  17.325  65.909  1.00  0.00    -0.531 NA 
HETATM    9  N   UNL     1     -11.592  15.050  65.147  1.00  0.00    -0.329 NA 
HETATM   10  C   UNL     1      -8.197  16.539  66.708  1.00  0.00    -0.243 A  
HETATM   11  C   UNL     1     -11.906  16.138  64.461  1.00  0.00     0.063 A  
HETATM   12  H   UNL     1     -12.111  14.174  65.194  1.00  0.00     0.000 HD 
HETATM   13  N   UNL     1      -8.422  15.261  67.077  1.00  0.00    -0.211 NA 
HETATM   14  C   UNL     1     -10.403  15.363  65.786  1.00  0.00    -0.361 A  
HETATM   15  N   UNL     1     -10.990  17.136  64.643  1.00  0.00    -0.921 NA 
ENDBRANCH   4   6
ENDBRANCH   1   4
BRANCH   1  16
HETATM   16  C   UNL     1     -10.369  11.345  68.319  1.00  0.00    -0.194 C  
HETATM   17  O   UNL     1     -10.294   8.438  66.217  1.00  0.00    -0.154 OA 
HETATM   18  N   UNL     1     -10.211  10.814  69.501  1.00  0.00    -0.167 NA 
HETATM   19  C   UNL     1     -10.154   9.423  69.629  1.00  0.00    -0.206 A  
HETATM   20  N   UNL     1     -10.453  10.568  67.163  1.00  0.00    -0.235 N  
HETATM   21  C   UNL     1     -10.281   9.176  67.202  1.00  0.00    -0.261 C  
HETATM   22  C   UNL     1     -10.114   8.866  70.913  1.00  0.00    -0.304 A  
HETATM   23  C   UNL     1     -10.128   8.570  68.530  1.00  0.00    -0.214 A  
HETATM   24  C   UNL     1     -10.027   7.481  71.094  1.00  0.00    -0.187 A  
HETATM   25  C   UNL     1      -9.957   6.643  69.987  1.00  0.00    -0.189 A  
HETATM   26  F   UNL     1      -9.938   6.349  67.669  1.00  0.00    -0.117 F  
HETATM   27  C   UNL     1     -10.006   7.190  68.709  1.00  0.00    -0.163 A  
BRANCH  20  28
HETATM   28  C   UNL     1     -10.705  11.129  65.873  1.00  0.00    -0.198 A  
HETATM   29  C   UNL     1     -11.973  11.605  65.524  1.00  0.00     0.320 A  
HETATM   30  C   UNL     1     -12.178  12.202  64.277  1.00  0.00    -0.469 A  
HETATM   31  C   UNL     1     -11.124  12.316  63.372  1.00  0.00    -0.487 A  
HETATM   32  C   UNL     1      -9.873  11.797  63.692  1.00  0.00    -0.357 A  
HETATM   33  C   UNL     1      -9.669  11.186  64.927  1.00  0.00    -0.297 A  
ENDBRANCH  20  28
ENDBRANCH   1  16
TORSDOF 5
ENDMDL
MODEL      152
REMARK 921   NORMALIZED FREE ENERGY PREDICTED BY IDOCK:   -5.30 KCAL/MOL
REMARK 922        TOTAL FREE ENERGY PREDICTED BY IDOCK:   -6.91 KCAL/MOL
REMARK 923 INTER-LIGAND FREE ENERGY PREDICTED BY IDOCK:   -6.20 KCAL/MOL
REMARK 924 INTRA-LIGAND FREE ENERGY PREDICTED BY IDOCK:   -0.71 KCAL/MOL
REMARK 927      BINDING AFFINITY PREDICTED BY RF-SCORE:    0.00 PKD
ROOT
HETATM    1  C   UNL     1      -9.996  14.864  67.267  1.00  0.00    -0.230 C  
ENDROOT
BRANCH   1   2
HETATM    2  C   UNL     1     -10.860  14.998  65.997  1.00  0.00    -0.334 C  
HETATM    3  C   UNL     1     -11.961  13.960  65.849  1.00  0.00    -0.429 C  
ENDBRANCH   1   2
BRANCH   1   4
HETATM    4  N   UNL     1      -8.616  15.247  66.944  1.00  0.00    -0.239 NA 
HETATM    5  H   UNL     1      -8.284  15.125  65.987  1.00  0.00     0.000 HD 
BRANCH   4   6
HETATM    6  C   UNL     1      -7.750  15.765  67.886  1.00  0.00    -0.133 A  
HETATM    7  C   UNL     1      -6.493  17.516  68.903  1.00  0.00    -0.213 A  
HETATM    8  N   UNL     1      -5.890  16.747  69.818  1.00  0.00    -0.204 NA 
HETATM    9  N   UNL     1      -7.799  18.234  67.186  1.00  0.00    -0.216 NA 
HETATM   10  C   UNL     1      -6.290  15.469  69.688  1.00  0.00    -0.163 A  
HETATM   11  C   UNL     1      -7.107  19.247  67.680  1.00  0.00    -0.225 A  
HETATM   12  H   UNL     1      -8.470  18.256  66.418  1.00  0.00     0.000 HD 
HETATM   13  N   UNL     1      -7.157  14.945  68.796  1.00  0.00    -0.109 NA 
HETATM   14  C   UNL     1      -7.412  17.137  67.938  1.00  0.00    -0.177 A  
HETATM   15  N   UNL     1      -6.312  18.859  68.723  1.00  0.00    -0.239 NA 
ENDBRANCH   4   6
ENDBRANCH   1   4
BRANCH   1  16
HETATM   16  C   UNL     1      -9.964  13.400  67.850  1.00  0.00    -0.236 C  
HETATM   17  O   UNL     1     -11.420  11.380  70.433  1.00  0.00    -0.247 OA 
HETATM   18  N   UNL     1      -9.307  12.507  67.162  1.00  0.00    -0.195 NA 
HETATM   19  C   UNL     1      -9.272  11.182  67.608  1.00  0.00    -0.151 A  
HETATM   20  N   UNL     1     -10.666  13.073  69.010  1.00  0.00    -0.158 N  
HETATM   21  C   UNL     1     -10.778  11.745  69.448  1.00  0.00     0.003 C  
HETATM   22  C   UNL     1      -8.459  10.264  66.933  1.00  0.00    -0.126 A  
HETATM   23  C   UNL     1     -10.021  10.738  68.695  1.00  0.00    -0.189 A  
HETATM   24  C   UNL     1      -8.413   8.921  67.322  1.00  0.00    -0.114 A  
HETATM   25  C   UNL     1      -9.199   8.481  68.381  1.00  0.00    -0.135 A  
HETATM   26  F   UNL     1     -10.742   8.928  70.078  1.00  0.00    -0.210 F  
HETATM   27  C   UNL     1     -10.001   9.391  69.062  1.00  0.00    -0.177 A  
BRANCH  20  28
HETATM   28  C   UNL     1     -11.324  14.053  69.815  1.00  0.00    -0.179 A  
HETATM   29  C   UNL     1     -10.612  15.101  70.409  1.00  0.00    -0.166 A  
HETATM   30  C   UNL     1     -11.288  16.078  71.145  1.00  0.00    -0.413 A  
HETATM   31  C   UNL     1     -12.671  16.008  71.300  1.00  0.00    -0.154 A  
HETATM   32  C   UNL     1     -13.379  14.939  70.757  1.00  0.00    -0.338 A  
HETATM   33  C   UNL     1     -12.706  13.954  70.038  1.00  0.00    -0.105 A  
ENDBRANCH  20  28
ENDBRANCH   1  16
TORSDOF 5
ENDMDL
MODEL      153
REMARK 921   NORMALIZED FREE ENERGY PREDICTED BY IDOCK:   -5.22 KCAL/MOL
REMARK 922        TOTAL FREE ENERGY PREDICTED BY IDOCK:   -6.81 KCAL/MOL
REMARK 923 INTER-LIGAND FREE ENERGY PREDICTED BY IDOCK:   -5.69 KCAL/MOL
REMARK 924 INTRA-LIGAND FREE ENERGY PREDICTED BY IDOCK:   -1.12 KCAL/MOL
REMARK 927      BINDING AFFINITY PREDICTED BY RF-SCORE:    0.00 PKD
ROOT
HETATM    1  C   UNL     1     -10.079  12.045  67.774  1.00  0.00    -0.193 C  
ENDROOT
BRANCH   1   2
HETATM    2  C   UNL     1     -11.525  12.530  67.554  1.00  0.00    -0.397 C  
HETATM    3  C   UNL     1     -12.253  12.990  68.807  1.00  0.00    -0.047 C  
ENDBRANCH   1   2
BRANCH   1   4
HETATM    4  N   UNL     1      -9.998  11.364  69.072  1.00  0.00    -0.395 NA 
HETATM    5  H   UNL     1      -9.840  11.923  69.910  1.00  0.00     0.000 HD 
BRANCH   4   6
HETATM    6  C   UNL     1     -10.128   9.996  69.202  1.00  0.00    -0.208 A  
HETATM    7  C   UNL     1     -10.761   8.006  70.351  1.00  0.00    -0.233 A  
HETATM    8  N   UNL     1     -10.289   7.154  69.432  1.00  0.00    -0.193 NA 
HETATM    9  N   UNL     1     -11.331   9.903  71.467  1.00  0.00    -0.289 NA 
HETATM   10  C   UNL     1      -9.742   7.831  68.408  1.00  0.00    -0.159 A  
HETATM   11  C   UNL     1     -11.681   8.840  72.174  1.00  0.00    -0.363 A  
HETATM   12  H   UNL     1     -11.467  10.884  71.711  1.00  0.00     0.000 HD 
HETATM   13  N   UNL     1      -9.630   9.166  68.245  1.00  0.00    -0.146 NA 
HETATM   14  C   UNL     1     -10.740   9.391  70.323  1.00  0.00    -0.253 A  
HETATM   15  N   UNL     1     -11.362   7.676  71.533  1.00  0.00    -0.250 NA 
ENDBRANCH   4   6
ENDBRANCH   1   4
BRANCH   1  16
HETATM   16  C   UNL     1      -9.020  13.212  67.779  1.00  0.00    -0.194 C  
HETATM   17  O   UNL     1      -5.552  13.853  67.116  1.00  0.00    -0.195 OA 
HETATM   18  N   UNL     1      -9.478  14.422  67.953  1.00  0.00    -0.209 NA 
HETATM   19  C   UNL     1      -8.593  15.504  67.931  1.00  0.00    -0.155 A  
HETATM   20  N   UNL     1      -7.669  12.959  67.537  1.00  0.00    -0.163 N  
HETATM   21  C   UNL     1      -6.746  14.003  67.378  1.00  0.00     0.038 C  
HETATM   22  C   UNL     1      -9.078  16.779  68.247  1.00  0.00    -0.228 A  
HETATM   23  C   UNL     1      -7.249  15.364  67.599  1.00  0.00    -0.206 A  
HETATM   24  C   UNL     1      -8.240  17.897  68.210  1.00  0.00    -0.292 A  
HETATM   25  C   UNL     1      -6.909  17.751  67.833  1.00  0.00    -0.193 A  
HETATM   26  F   UNL     1      -5.131  16.386  67.172  1.00  0.00    -0.136 F  
HETATM   27  C   UNL     1      -6.419  16.486  67.528  1.00  0.00    -0.154 A  
BRANCH  20  28
HETATM   28  C   UNL     1      -7.141  11.637  67.422  1.00  0.00    -0.124 A  
HETATM   29  C   UNL     1      -7.246  10.914  66.228  1.00  0.00    -0.126 A  
HETATM   30  C   UNL     1      -6.671   9.645  66.124  1.00  0.00    -0.083 A  
HETATM   31  C   UNL     1      -6.000   9.088  67.212  1.00  0.00    -0.050 A  
HETATM   32  C   UNL     1      -5.938   9.778  68.419  1.00  0.00    -0.046 A  
HETATM   33  C   UNL     1      -6.525  11.037  68.531  1.00  0.00    -0.054 A  
ENDBRANCH  20  28
ENDBRANCH   1  16
TORSDOF 5
ENDMDL
MODEL      154
REMARK 921   NORMALIZED FREE ENERGY PREDICTED BY IDOCK:   -5.19 KCAL/MOL
REMARK 922        TOTAL FREE ENERGY PREDICTED BY IDOCK:   -6.78 KCAL/MOL
REMARK 923 INTER-LIGAND FREE ENERGY PREDICTED BY IDOCK:   -5.43 KCAL/MOL
REMARK 924 INTRA-LIGAND FREE ENERGY PREDICTED BY IDOCK:   -1.35 KCAL/MOL
REMARK 927      BINDING AFFINITY PREDICTED BY RF-SCORE:    0.00 PKD
ROOT
HETATM    1  C   UNL     1      -8.623   6.800  67.688  1.00  0.00    -0.121 C  
ENDROOT
BRANCH   1   2
HETATM    2  C   UNL     1      -9.392   6.019  66.604  1.00  0.00    -0.156 C  
HETATM    3  C   UNL     1      -8.611   5.736  65.331  1.00  0.00    -0.143 C  
ENDBRANCH   1   2
BRANCH   1   4
HETATM    4  N   UNL     1      -8.356   5.904  68.820  1.00  0.00    -0.105 NA 
HETATM    5  H   UNL     1      -8.934   5.071  68.932  1.00  0.00     0.000 HD 
BRANCH   4   6
HETATM    6  C   UNL     1      -7.355   6.146  69.737  1.00  0.00    -0.079 A  
HETATM    7  C   UNL     1      -6.485   6.380  71.944  1.00  0.00    -0.054 A  
HETATM    8  N   UNL     1      -5.249   6.738  71.574  1.00  0.00    -0.027 NA 
HETATM    9  N   UNL     1      -8.668   5.745  71.906  1.00  0.00    -0.135 NA 
HETATM   10  C   UNL     1      -5.157   6.772  70.233  1.00  0.00    -0.015 A  
HETATM   11  C   UNL     1      -8.261   5.887  73.157  1.00  0.00    -0.117 A  
HETATM   12  H   UNL     1      -9.593   5.462  71.582  1.00  0.00     0.000 HD 
HETATM   13  N   UNL     1      -6.113   6.510  69.316  1.00  0.00    -0.025 NA 
HETATM   14  C   UNL     1      -7.563   6.064  71.133  1.00  0.00    -0.100 A  
HETATM   15  N   UNL     1      -6.948   6.262  73.225  1.00  0.00    -0.075 NA 
ENDBRANCH   4   6
ENDBRANCH   1   4
BRANCH   1  16
HETATM   16  C   UNL     1      -9.413   8.047  68.239  1.00  0.00    -0.141 C  
HETATM   17  O   UNL     1     -10.399  11.371  67.317  1.00  0.00    -0.189 OA 
HETATM   18  N   UNL     1     -10.076   7.879  69.351  1.00  0.00    -0.191 NA 
HETATM   19  C   UNL     1     -10.827   8.938  69.872  1.00  0.00    -0.211 A  
HETATM   20  N   UNL     1      -9.452   9.246  67.527  1.00  0.00    -0.130 N  
HETATM   21  C   UNL     1     -10.280  10.307  67.923  1.00  0.00    -0.183 C  
HETATM   22  C   UNL     1     -11.425   8.786  71.129  1.00  0.00    -0.344 A  
HETATM   23  C   UNL     1     -11.008  10.136  69.187  1.00  0.00    -0.270 A  
HETATM   24  C   UNL     1     -12.211   9.804  71.680  1.00  0.00    -0.488 A  
HETATM   25  C   UNL     1     -12.420  10.978  70.965  1.00  0.00    -0.512 A  
HETATM   26  F   UNL     1     -12.044  12.285  69.065  1.00  0.00    -0.327 F  
HETATM   27  C   UNL     1     -11.819  11.139  69.721  1.00  0.00    -0.349 A  
BRANCH  20  28
HETATM   28  C   UNL     1      -8.671   9.470  66.352  1.00  0.00    -0.135 A  
HETATM   29  C   UNL     1      -7.343   9.902  66.434  1.00  0.00    -0.101 A  
HETATM   30  C   UNL     1      -6.584  10.058  65.271  1.00  0.00    -0.116 A  
HETATM   31  C   UNL     1      -7.149   9.796  64.024  1.00  0.00    -0.123 A  
HETATM   32  C   UNL     1      -8.485   9.417  63.931  1.00  0.00    -0.204 A  
HETATM   33  C   UNL     1      -9.250   9.277  65.087  1.00  0.00    -0.264 A  
ENDBRANCH  20  28
ENDBRANCH   1  16
TORSDOF 5
ENDMDL
MODEL      155
REMARK 921   NORMALIZED FREE ENERGY PREDICTED BY IDOCK:   -5.19 KCAL/MOL
REMARK 922        TOTAL FREE ENERGY PREDICTED BY IDOCK:   -6.77 KCAL/MOL
REMARK 923 INTER-LIGAND FREE ENERGY PREDICTED BY IDOCK:   -5.56 KCAL/MOL
REMARK 924 INTRA-LIGAND FREE ENERGY PREDICTED BY IDOCK:   -1.21 KCAL/MOL
REMARK 927      BINDING AFFINITY PREDICTED BY RF-SCORE:    0.00 PKD
ROOT
HETATM    1  C   UNL     1      -9.584  11.058  67.393  1.00  0.00    -0.164 C  
ENDROOT
BRANCH   1   2
HETATM    2  C   UNL     1     -10.264  12.431  67.219  1.00  0.00    -0.224 C  
HETATM    3  C   UNL     1      -9.372  13.634  67.474  1.00  0.00    -0.223 C  
ENDBRANCH   1   2
BRANCH   1   4
HETATM    4  N   UNL     1      -9.964  10.194  66.269  1.00  0.00    -0.229 NA 
HETATM    5  H   UNL     1     -10.829  10.396  65.766  1.00  0.00     0.000 HD 
BRANCH   4   6
HETATM    6  C   UNL     1      -9.198   9.119  65.867  1.00  0.00    -0.227 A  
HETATM    7  C   UNL     1      -7.340   8.107  64.768  1.00  0.00    -0.089 A  
HETATM    8  N   UNL     1      -7.709   6.841  65.001  1.00  0.00    -0.101 NA 
HETATM    9  N   UNL     1      -7.280  10.380  64.717  1.00  0.00    -0.304 NA 
HETATM   10  C   UNL     1      -8.862   6.812  65.692  1.00  0.00    -0.023 A  
HETATM   11  C   UNL     1      -6.241   9.886  64.064  1.00  0.00    -0.125 A  
HETATM   12  H   UNL     1      -7.511  11.362  64.866  1.00  0.00     0.000 HD 
HETATM   13  N   UNL     1      -9.612   7.849  66.122  1.00  0.00    -0.117 NA 
HETATM   14  C   UNL     1      -7.986   9.270  65.155  1.00  0.00    -0.116 A  
HETATM   15  N   UNL     1      -6.235   8.518  64.077  1.00  0.00    -0.071 NA 
ENDBRANCH   4   6
ENDBRANCH   1   4
BRANCH   1  16
HETATM   16  C   UNL     1      -9.992  10.321  68.724  1.00  0.00    -0.179 C  
HETATM   17  O   UNL     1      -8.585   8.401  71.409  1.00  0.00    -0.134 OA 
HETATM   18  N   UNL     1     -11.211  10.510  69.152  1.00  0.00    -0.242 NA 
HETATM   19  C   UNL     1     -11.622   9.911  70.348  1.00  0.00    -0.282 A  
HETATM   20  N   UNL     1      -9.065   9.562  69.439  1.00  0.00    -0.157 N  
HETATM   21  C   UNL     1      -9.369   9.036  70.704  1.00  0.00    -0.234 C  
HETATM   22  C   UNL     1     -12.966  10.016  70.726  1.00  0.00    -0.330 A  
HETATM   23  C   UNL     1     -10.745   9.222  71.180  1.00  0.00    -0.403 A  
HETATM   24  C   UNL     1     -13.420   9.461  71.927  1.00  0.00    -0.500 A  
HETATM   25  C   UNL     1     -12.525   8.813  72.771  1.00  0.00    -0.101 A  
HETATM   26  F   UNL     1     -10.360   8.065  73.235  1.00  0.00    -0.375 F  
HETATM   27  C   UNL     1     -11.191   8.698  72.395  1.00  0.00    -0.269 A  
BRANCH  20  28
HETATM   28  C   UNL     1      -7.754   9.283  68.947  1.00  0.00    -0.079 A  
HETATM   29  C   UNL     1      -7.355   7.975  68.646  1.00  0.00    -0.089 A  
HETATM   30  C   UNL     1      -6.086   7.736  68.111  1.00  0.00    -0.041 A  
HETATM   31  C   UNL     1      -5.209   8.795  67.885  1.00  0.00    -0.035 A  
HETATM   32  C   UNL     1      -5.579  10.092  68.231  1.00  0.00    -0.038 A  
HETATM   33  C   UNL     1      -6.836  10.332  68.781  1.00  0.00    -0.058 A  
ENDBRANCH  20  28
ENDBRANCH   1  16
TORSDOF 5
ENDMDL
MODEL      156
REMARK 921   NORMALIZED FREE ENERGY PREDICTED BY IDOCK:   -5.19 KCAL/MOL
REMARK 922        TOTAL FREE ENERGY PREDICTED BY IDOCK:   -6.77 KCAL/MOL
REMARK 923 INTER-LIGAND FREE ENERGY PREDICTED BY IDOCK:   -5.18 KCAL/MOL
REMARK 924 INTRA-LIGAND FREE ENERGY PREDICTED BY IDOCK:   -1.59 KCAL/MOL
REMARK 927      BINDING AFFINITY PREDICTED BY RF-SCORE:    0.00 PKD
ROOT
HETATM    1  C   UNL     1     -10.878   7.027  71.208  1.00  0.00    -0.235 C  
ENDROOT
BRANCH   1   2
HETATM    2  C   UNL     1     -12.364   7.396  71.024  1.00  0.00    -0.303 C  
HETATM    3  C   UNL     1     -12.907   8.414  72.012  1.00  0.00    -0.389 C  
ENDBRANCH   1   2
BRANCH   1   4
HETATM    4  N   UNL     1     -10.065   8.239  71.052  1.00  0.00    -0.187 NA 
HETATM    5  H   UNL     1     -10.390   8.969  70.418  1.00  0.00     0.000 HD 
BRANCH   4   6
HETATM    6  C   UNL     1      -8.879   8.429  71.730  1.00  0.00    -0.195 A  
HETATM    7  C   UNL     1      -6.535   8.841  71.869  1.00  0.00    -0.069 A  
HETATM    8  N   UNL     1      -6.449   8.732  73.200  1.00  0.00    -0.290 NA 
HETATM    9  N   UNL     1      -7.330   8.904  69.740  1.00  0.00    -0.054 NA 
HETATM   10  C   UNL     1      -7.659   8.466  73.724  1.00  0.00    -0.099 A  
HETATM   11  C   UNL     1      -6.022   9.107  69.740  1.00  0.00    -0.035 A  
HETATM   12  H   UNL     1      -7.956   8.884  68.934  1.00  0.00     0.000 HD 
HETATM   13  N   UNL     1      -8.836   8.306  73.085  1.00  0.00    -0.249 NA 
HETATM   14  C   UNL     1      -7.662   8.723  71.073  1.00  0.00    -0.119 A  
HETATM   15  N   UNL     1      -5.504   9.084  71.005  1.00  0.00    -0.034 NA 
ENDBRANCH   4   6
ENDBRANCH   1   4
BRANCH   1  16
HETATM   16  C   UNL     1     -10.362   5.966  70.163  1.00  0.00    -0.241 C  
HETATM   17  O   UNL     1      -8.823   2.730  69.983  1.00  0.00    -0.067 OA 
HETATM   18  N   UNL     1     -10.652   6.186  68.909  1.00  0.00    -0.243 NA 
HETATM   19  C   UNL     1     -10.253   5.261  67.938  1.00  0.00    -0.145 A  
HETATM   20  N   UNL     1      -9.691   4.816  70.578  1.00  0.00    -0.193 N  
HETATM   21  C   UNL     1      -9.370   3.789  69.677  1.00  0.00    -0.175 C  
HETATM   22  C   UNL     1     -10.456   5.573  66.588  1.00  0.00    -0.355 A  
HETATM   23  C   UNL     1      -9.669   4.041  68.262  1.00  0.00    -0.133 A  
HETATM   24  C   UNL     1     -10.102   4.669  65.580  1.00  0.00    -0.238 A  
HETATM   25  C   UNL     1      -9.560   3.434  65.919  1.00  0.00    -0.067 A  
HETATM   26  F   UNL     1      -8.821   1.925  67.543  1.00  0.00    -0.098 F  
HETATM   27  C   UNL     1      -9.347   3.124  67.259  1.00  0.00    -0.179 A  
BRANCH  20  28
HETATM   28  C   UNL     1      -9.299   4.599  71.935  1.00  0.00    -0.140 A  
HETATM   29  C   UNL     1     -10.192   4.068  72.872  1.00  0.00    -0.228 A  
HETATM   30  C   UNL     1      -9.766   3.812  74.178  1.00  0.00    -0.142 A  
HETATM   31  C   UNL     1      -8.455   4.096  74.557  1.00  0.00    -0.092 A  
HETATM   32  C   UNL     1      -7.576   4.674  73.645  1.00  0.00    -0.083 A  
HETATM   33  C   UNL     1      -8.003   4.946  72.346  1.00  0.00    -0.103 A  
ENDBRANCH  20  28
ENDBRANCH   1  16
TORSDOF 5
ENDMDL
MODEL      157
REMARK 921   NORMALIZED FREE ENERGY PREDICTED BY IDOCK:   -5.15 KCAL/MOL
REMARK 922        TOTAL FREE ENERGY PREDICTED BY IDOCK:   -6.73 KCAL/MOL
REMARK 923 INTER-LIGAND FREE ENERGY PREDICTED BY IDOCK:   -6.49 KCAL/MOL
REMARK 924 INTRA-LIGAND FREE ENERGY PREDICTED BY IDOCK:   -0.24 KCAL/MOL
REMARK 927      BINDING AFFINITY PREDICTED BY RF-SCORE:    0.00 PKD
ROOT
HETATM    1  C   UNL     1      -9.668   6.136  72.663  1.00  0.00    -0.156 C  
ENDROOT
BRANCH   1   2
HETATM    2  C   UNL     1     -10.875   5.772  73.549  1.00  0.00    -0.272 C  
HETATM    3  C   UNL     1     -11.377   4.345  73.408  1.00  0.00    -0.353 C  
ENDBRANCH   1   2
BRANCH   1   4
HETATM    4  N   UNL     1      -9.443   7.585  72.738  1.00  0.00    -0.158 NA 
HETATM    5  H   UNL     1     -10.250   8.208  72.720  1.00  0.00     0.000 HD 
BRANCH   4   6
HETATM    6  C   UNL     1      -8.181   8.136  72.832  1.00  0.00    -0.175 A  
HETATM    7  C   UNL     1      -6.156   9.013  71.930  1.00  0.00    -0.065 A  
HETATM    8  N   UNL     1      -5.544   9.199  73.107  1.00  0.00    -0.201 NA 
HETATM    9  N   UNL     1      -7.689   8.481  70.337  1.00  0.00    -0.075 NA 
HETATM   10  C   UNL     1      -6.349   8.817  74.115  1.00  0.00    -0.065 A  
HETATM   11  C   UNL     1      -6.581   8.929  69.767  1.00  0.00    -0.041 A  
HETATM   12  H   UNL     1      -8.546   8.176  69.875  1.00  0.00     0.000 HD 
HETATM   13  N   UNL     1      -7.595   8.304  74.049  1.00  0.00    -0.244 NA 
HETATM   14  C   UNL     1      -7.429   8.518  71.698  1.00  0.00    -0.105 A  
HETATM   15  N   UNL     1      -5.634   9.268  70.693  1.00  0.00    -0.032 NA 
ENDBRANCH   4   6
ENDBRANCH   1   4
BRANCH   1  16
HETATM   16  C   UNL     1      -9.868   5.760  71.146  1.00  0.00    -0.180 C  
HETATM   17  O   UNL     1     -11.511   6.905  68.169  1.00  0.00     0.041 OA 
HETATM   18  N   UNL     1      -9.136   4.785  70.680  1.00  0.00    -0.123 NA 
HETATM   19  C   UNL     1      -9.242   4.429  69.331  1.00  0.00    -0.135 A  
HETATM   20  N   UNL     1     -10.738   6.489  70.334  1.00  0.00    -0.238 N  
HETATM   21  C   UNL     1     -10.804   6.269  68.950  1.00  0.00    -0.333 C  
HETATM   22  C   UNL     1      -8.550   3.300  68.876  1.00  0.00    -0.118 A  
HETATM   23  C   UNL     1     -10.004   5.157  68.422  1.00  0.00    -0.214 A  
HETATM   24  C   UNL     1      -8.599   2.920  67.531  1.00  0.00    -0.118 A  
HETATM   25  C   UNL     1      -9.328   3.681  66.624  1.00  0.00    -0.206 A  
HETATM   26  F   UNL     1     -10.718   5.503  66.168  1.00  0.00    -0.272 F  
HETATM   27  C   UNL     1     -10.026   4.797  67.073  1.00  0.00    -0.204 A  
BRANCH  20  28
HETATM   28  C   UNL     1     -11.601   7.505  70.845  1.00  0.00    -0.286 A  
HETATM   29  C   UNL     1     -11.208   8.848  70.866  1.00  0.00    -0.334 A  
HETATM   30  C   UNL     1     -12.093   9.830  71.319  1.00  0.00    -0.470 A  
HETATM   31  C   UNL     1     -13.367   9.476  71.762  1.00  0.00    -0.501 A  
HETATM   32  C   UNL     1     -13.745   8.137  71.793  1.00  0.00    -0.422 A  
HETATM   33  C   UNL     1     -12.859   7.154  71.359  1.00  0.00    -0.431 A  
ENDBRANCH  20  28
ENDBRANCH   1  16
TORSDOF 5
ENDMDL
MODEL      158
REMARK 921   NORMALIZED FREE ENERGY PREDICTED BY IDOCK:   -5.15 KCAL/MOL
REMARK 922        TOTAL FREE ENERGY PREDICTED BY IDOCK:   -6.72 KCAL/MOL
REMARK 923 INTER-LIGAND FREE ENERGY PREDICTED BY IDOCK:   -6.98 KCAL/MOL
REMARK 924 INTRA-LIGAND FREE ENERGY PREDICTED BY IDOCK:    0.26 KCAL/MOL
REMARK 927      BINDING AFFINITY PREDICTED BY RF-SCORE:    0.00 PKD
ROOT
HETATM    1  C   UNL     1      -9.268   9.426  67.623  1.00  0.00    -0.127 C  
ENDROOT
BRANCH   1   2
HETATM    2  C   UNL     1      -8.625   9.978  68.911  1.00  0.00    -0.138 C  
HETATM    3  C   UNL     1      -7.131   9.735  69.046  1.00  0.00    -0.067 C  
ENDBRANCH   1   2
BRANCH   1   4
HETATM    4  N   UNL     1     -10.672   9.853  67.573  1.00  0.00    -0.274 NA 
HETATM    5  H   UNL     1     -11.372   9.290  68.056  1.00  0.00     0.000 HD 
BRANCH   4   6
HETATM    6  C   UNL     1     -11.080  10.984  66.897  1.00  0.00    -0.213 A  
HETATM    7  C   UNL     1     -11.212  12.406  64.988  1.00  0.00    -0.312 A  
HETATM    8  N   UNL     1     -11.894  13.389  65.589  1.00  0.00    -0.351 NA 
HETATM    9  N   UNL     1     -10.110  10.460  64.579  1.00  0.00    -0.338 NA 
HETATM   10  C   UNL     1     -12.131  13.072  66.874  1.00  0.00    -0.285 A  
HETATM   11  C   UNL     1     -10.117  11.212  63.490  1.00  0.00    -0.385 A  
HETATM   12  H   UNL     1      -9.697   9.534  64.692  1.00  0.00     0.000 HD 
HETATM   13  N   UNL     1     -11.769  11.960  67.548  1.00  0.00    -0.551 NA 
HETATM   14  C   UNL     1     -10.785  11.205  65.532  1.00  0.00    -0.185 A  
HETATM   15  N   UNL     1     -10.778  12.392  63.692  1.00  0.00    -0.446 NA 
ENDBRANCH   4   6
ENDBRANCH   1   4
BRANCH   1  16
HETATM   16  C   UNL     1      -9.241   7.853  67.534  1.00  0.00    -0.136 C  
HETATM   17  O   UNL     1     -10.257   4.926  69.344  1.00  0.00    -0.223 OA 
HETATM   18  N   UNL     1      -8.844   7.334  66.404  1.00  0.00    -0.144 NA 
HETATM   19  C   UNL     1      -8.833   5.944  66.251  1.00  0.00    -0.142 A  
HETATM   20  N   UNL     1      -9.690   7.065  68.594  1.00  0.00    -0.138 N  
HETATM   21  C   UNL     1      -9.823   5.674  68.468  1.00  0.00    -0.143 C  
HETATM   22  C   UNL     1      -8.283   5.400  65.084  1.00  0.00    -0.138 A  
HETATM   23  C   UNL     1      -9.354   5.081  67.210  1.00  0.00    -0.135 A  
HETATM   24  C   UNL     1      -8.275   4.018  64.869  1.00  0.00    -0.097 A  
HETATM   25  C   UNL     1      -8.839   3.168  65.816  1.00  0.00    -0.138 A  
HETATM   26  F   UNL     1      -9.909   2.852  67.869  1.00  0.00    -0.233 F  
HETATM   27  C   UNL     1      -9.377   3.704  66.981  1.00  0.00    -0.198 A  
BRANCH  20  28
HETATM   28  C   UNL     1     -10.054   7.614  69.862  1.00  0.00    -0.198 A  
HETATM   29  C   UNL     1     -11.332   8.139  70.086  1.00  0.00    -0.071 A  
HETATM   30  C   UNL     1     -11.680   8.617  71.352  1.00  0.00    -0.355 A  
HETATM   31  C   UNL     1     -10.755   8.583  72.394  1.00  0.00    -0.376 A  
HETATM   32  C   UNL     1      -9.466   8.110  72.165  1.00  0.00    -0.291 A  
HETATM   33  C   UNL     1      -9.109   7.649  70.900  1.00  0.00    -0.149 A  
ENDBRANCH  20  28
ENDBRANCH   1  16
TORSDOF 5
ENDMDL
MODEL      159
REMARK 921   NORMALIZED FREE ENERGY PREDICTED BY IDOCK:   -5.14 KCAL/MOL
REMARK 922        TOTAL FREE ENERGY PREDICTED BY IDOCK:   -6.72 KCAL/MOL
REMARK 923 INTER-LIGAND FREE ENERGY PREDICTED BY IDOCK:   -6.71 KCAL/MOL
REMARK 924 INTRA-LIGAND FREE ENERGY PREDICTED BY IDOCK:   -0.01 KCAL/MOL
REMARK 927      BINDING AFFINITY PREDICTED BY RF-SCORE:    0.00 PKD
ROOT
HETATM    1  C   UNL     1     -10.769  10.356  67.613  1.00  0.00    -0.286 C  
ENDROOT
BRANCH   1   2
HETATM    2  C   UNL     1     -10.428  11.442  66.574  1.00  0.00    -0.292 C  
HETATM    3  C   UNL     1     -10.502  10.998  65.122  1.00  0.00    -0.329 C  
ENDBRANCH   1   2
BRANCH   1   4
HETATM    4  N   UNL     1     -10.476  10.874  68.955  1.00  0.00    -0.194 NA 
HETATM    5  H   UNL     1      -9.523  11.169  69.169  1.00  0.00     0.000 HD 
BRANCH   4   6
HETATM    6  C   UNL     1     -11.439  10.976  69.937  1.00  0.00    -0.320 A  
HETATM    7  C   UNL     1     -12.942  12.179  71.345  1.00  0.00    -0.257 A  
HETATM    8  N   UNL     1     -13.372  11.116  72.036  1.00  0.00    -0.401 NA 
HETATM    9  N   UNL     1     -11.849  13.509  69.859  1.00  0.00    -0.362 NA 
HETATM   10  C   UNL     1     -12.766   9.999  71.595  1.00  0.00    -0.435 A  
HETATM   11  C   UNL     1     -12.639  14.243  70.627  1.00  0.00    -0.355 A  
HETATM   12  H   UNL     1     -11.246  13.830  69.102  1.00  0.00     0.000 HD 
HETATM   13  N   UNL     1     -11.845   9.870  70.617  1.00  0.00    -0.291 NA 
HETATM   14  C   UNL     1     -12.022  12.210  70.309  1.00  0.00    -0.305 A  
HETATM   15  N   UNL     1     -13.321  13.478  71.532  1.00  0.00    -0.321 NA 
ENDBRANCH   4   6
ENDBRANCH   1   4
BRANCH   1  16
HETATM   16  C   UNL     1      -9.946   9.026  67.422  1.00  0.00    -0.209 C  
HETATM   17  O   UNL     1      -6.637   7.697  67.818  1.00  0.00    -0.058 OA 
HETATM   18  N   UNL     1     -10.627   7.948  67.141  1.00  0.00    -0.336 NA 
HETATM   19  C   UNL     1      -9.957   6.729  66.996  1.00  0.00    -0.177 A  
HETATM   20  N   UNL     1      -8.565   9.001  67.615  1.00  0.00    -0.120 N  
HETATM   21  C   UNL     1      -7.846   7.796  67.608  1.00  0.00    -0.123 C  
HETATM   22  C   UNL     1     -10.680   5.609  66.569  1.00  0.00    -0.296 A  
HETATM   23  C   UNL     1      -8.599   6.584  67.267  1.00  0.00    -0.111 A  
HETATM   24  C   UNL     1     -10.063   4.361  66.437  1.00  0.00    -0.235 A  
HETATM   25  C   UNL     1      -8.716   4.219  66.754  1.00  0.00    -0.113 A  
HETATM   26  F   UNL     1      -6.695   5.154  67.462  1.00  0.00    -0.048 F  
HETATM   27  C   UNL     1      -7.990   5.331  67.169  1.00  0.00    -0.101 A  
BRANCH  20  28
HETATM   28  C   UNL     1      -7.797  10.184  67.846  1.00  0.00    -0.101 A  
HETATM   29  C   UNL     1      -7.585  10.671  69.140  1.00  0.00    -0.131 A  
HETATM   30  C   UNL     1      -6.782  11.797  69.342  1.00  0.00    -0.098 A  
HETATM   31  C   UNL     1      -6.200  12.447  68.255  1.00  0.00    -0.056 A  
HETATM   32  C   UNL     1      -6.450  12.000  66.961  1.00  0.00    -0.114 A  
HETATM   33  C   UNL     1      -7.264  10.888  66.755  1.00  0.00    -0.134 A  
ENDBRANCH  20  28
ENDBRANCH   1  16
TORSDOF 5
ENDMDL
MODEL      160
REMARK 921   NORMALIZED FREE ENERGY PREDICTED BY IDOCK:   -4.99 KCAL/MOL
REMARK 922        TOTAL FREE ENERGY PREDICTED BY IDOCK:   -6.51 KCAL/MOL
REMARK 923 INTER-LIGAND FREE ENERGY PREDICTED BY IDOCK:   -6.15 KCAL/MOL
REMARK 924 INTRA-LIGAND FREE ENERGY PREDICTED BY IDOCK:   -0.36 KCAL/MOL
REMARK 927      BINDING AFFINITY PREDICTED BY RF-SCORE:    0.00 PKD
ROOT
HETATM    1  C   UNL     1     -11.087   7.245  70.895  1.00  0.00    -0.261 C  
ENDROOT
BRANCH   1   2
HETATM    2  C   UNL     1     -12.366   6.811  71.639  1.00  0.00    -0.409 C  
HETATM    3  C   UNL     1     -13.490   7.835  71.648  1.00  0.00    -0.401 C  
ENDBRANCH   1   2
BRANCH   1   4
HETATM    4  N   UNL     1     -11.398   8.406  70.053  1.00  0.00    -0.452 NA 
HETATM    5  H   UNL     1     -12.367   8.567  69.778  1.00  0.00     0.000 HD 
BRANCH   4   6
HETATM    6  C   UNL     1     -10.430   9.288  69.618  1.00  0.00    -0.224 A  
HETATM    7  C   UNL     1      -8.267  10.288  69.671  1.00  0.00    -0.133 A  
HETATM    8  N   UNL     1      -8.506  11.196  68.716  1.00  0.00    -0.154 NA 
HETATM    9  N   UNL     1      -8.498   8.578  71.150  1.00  0.00    -0.141 NA 
HETATM   10  C   UNL     1      -9.764  11.069  68.258  1.00  0.00    -0.177 A  
HETATM   11  C   UNL     1      -7.289   9.106  71.256  1.00  0.00    -0.025 A  
HETATM   12  H   UNL     1      -8.882   7.794  71.679  1.00  0.00     0.000 HD 
HETATM   13  N   UNL     1     -10.717  10.196  68.646  1.00  0.00    -0.211 NA 
HETATM   14  C   UNL     1      -9.127   9.321  70.165  1.00  0.00    -0.222 A  
HETATM   15  N   UNL     1      -7.106  10.136  70.376  1.00  0.00    -0.265 NA 
ENDBRANCH   4   6
ENDBRANCH   1   4
BRANCH   1  16
HETATM   16  C   UNL     1     -10.493   6.121  69.963  1.00  0.00    -0.234 C  
HETATM   17  O   UNL     1      -8.812   2.955  70.113  1.00  0.00    -0.069 OA 
HETATM   18  N   UNL     1     -10.753   6.217  68.688  1.00  0.00    -0.276 NA 
HETATM   19  C   UNL     1     -10.284   5.231  67.813  1.00  0.00    -0.156 A  
HETATM   20  N   UNL     1      -9.787   5.043  70.497  1.00  0.00    -0.202 N  
HETATM   21  C   UNL     1      -9.394   3.958  69.700  1.00  0.00    -0.176 C  
HETATM   22  C   UNL     1     -10.457   5.413  66.436  1.00  0.00    -0.324 A  
HETATM   23  C   UNL     1      -9.659   4.071  68.260  1.00  0.00    -0.188 A  
HETATM   24  C   UNL     1     -10.034   4.442  65.523  1.00  0.00    -0.242 A  
HETATM   25  C   UNL     1      -9.450   3.267  65.985  1.00  0.00    -0.086 A  
HETATM   26  F   UNL     1      -8.699   1.941  67.756  1.00  0.00    -0.082 F  
HETATM   27  C   UNL     1      -9.266   3.085  67.351  1.00  0.00    -0.189 A  
BRANCH  20  28
HETATM   28  C   UNL     1      -9.429   4.964  71.878  1.00  0.00    -0.149 A  
HETATM   29  C   UNL     1     -10.237   4.289  72.800  1.00  0.00    -0.227 A  
HETATM   30  C   UNL     1      -9.836   4.177  74.134  1.00  0.00    -0.163 A  
HETATM   31  C   UNL     1      -8.635   4.746  74.555  1.00  0.00    -0.105 A  
HETATM   32  C   UNL     1      -7.852   5.465  73.655  1.00  0.00    -0.102 A  
HETATM   33  C   UNL     1      -8.258   5.593  72.329  1.00  0.00    -0.108 A  
ENDBRANCH  20  28
ENDBRANCH   1  16
TORSDOF 5
ENDMDL
MODEL      161
REMARK 921   NORMALIZED FREE ENERGY PREDICTED BY IDOCK:   -4.97 KCAL/MOL
REMARK 922        TOTAL FREE ENERGY PREDICTED BY IDOCK:   -6.49 KCAL/MOL
REMARK 923 INTER-LIGAND FREE ENERGY PREDICTED BY IDOCK:   -4.74 KCAL/MOL
REMARK 924 INTRA-LIGAND FREE ENERGY PREDICTED BY IDOCK:   -1.75 KCAL/MOL
REMARK 927      BINDING AFFINITY PREDICTED BY RF-SCORE:    0.00 PKD
ROOT
HETATM    1  C   UNL     1      -9.733   5.644  72.816  1.00  0.00    -0.156 C  
ENDROOT
BRANCH   1   2
HETATM    2  C   UNL     1     -11.038   5.123  73.451  1.00  0.00    -0.385 C  
HETATM    3  C   UNL     1     -11.256   3.622  73.350  1.00  0.00    -0.264 C  
ENDBRANCH   1   2
BRANCH   1   4
HETATM    4  N   UNL     1      -9.702   7.107  72.927  1.00  0.00    -0.156 NA 
HETATM    5  H   UNL     1     -10.521   7.588  73.298  1.00  0.00     0.000 HD 
BRANCH   4   6
HETATM    6  C   UNL     1      -8.607   7.856  72.548  1.00  0.00    -0.152 A  
HETATM    7  C   UNL     1      -7.446   9.390  71.139  1.00  0.00     0.064 A  
HETATM    8  N   UNL     1      -6.274   9.315  71.781  1.00  0.00    -0.231 NA 
HETATM    9  N   UNL     1      -9.616   9.082  70.531  1.00  0.00    -0.201 NA 
HETATM   10  C   UNL     1      -6.366   8.467  72.820  1.00  0.00    -0.091 A  
HETATM   11  C   UNL     1      -9.025   9.916  69.690  1.00  0.00    -0.216 A  
HETATM   12  H   UNL     1     -10.585   8.765  70.513  1.00  0.00     0.000 HD 
HETATM   13  N   UNL     1      -7.433   7.747  73.227  1.00  0.00    -0.106 NA 
HETATM   14  C   UNL     1      -8.629   8.734  71.440  1.00  0.00    -0.194 A  
HETATM   15  N   UNL     1      -7.718  10.135  70.025  1.00  0.00    -0.167 NA 
ENDBRANCH   4   6
ENDBRANCH   1   4
BRANCH   1  16
HETATM   16  C   UNL     1      -9.589   5.275  71.291  1.00  0.00    -0.159 C  
HETATM   17  O   UNL     1      -7.951   2.939  69.115  1.00  0.00    -0.052 OA 
HETATM   18  N   UNL     1     -10.387   5.888  70.459  1.00  0.00    -0.219 NA 
HETATM   19  C   UNL     1     -10.332   5.577  69.096  1.00  0.00    -0.248 A  
HETATM   20  N   UNL     1      -8.698   4.287  70.871  1.00  0.00    -0.086 N  
HETATM   21  C   UNL     1      -8.676   3.837  69.542  1.00  0.00    -0.079 C  
HETATM   22  C   UNL     1     -11.099   6.333  68.201  1.00  0.00    -0.364 A  
HETATM   23  C   UNL     1      -9.551   4.540  68.596  1.00  0.00    -0.222 A  
HETATM   24  C   UNL     1     -11.103   6.042  66.833  1.00  0.00    -0.253 A  
HETATM   25  C   UNL     1     -10.352   4.975  66.352  1.00  0.00    -0.335 A  
HETATM   26  F   UNL     1      -8.870   3.209  66.732  1.00  0.00    -0.112 F  
HETATM   27  C   UNL     1      -9.580   4.228  67.235  1.00  0.00    -0.189 A  
BRANCH  20  28
HETATM   28  C   UNL     1      -7.766   3.663  71.756  1.00  0.00    -0.061 A  
HETATM   29  C   UNL     1      -8.052   2.435  72.363  1.00  0.00    -0.054 A  
HETATM   30  C   UNL     1      -7.099   1.819  73.179  1.00  0.00    -0.027 A  
HETATM   31  C   UNL     1      -5.865   2.429  73.401  1.00  0.00     0.000 A  
HETATM   32  C   UNL     1      -5.595   3.675  72.843  1.00  0.00     0.000 A  
HETATM   33  C   UNL     1      -6.549   4.301  72.043  1.00  0.00    -0.022 A  
ENDBRANCH  20  28
ENDBRANCH   1  16
TORSDOF 5
ENDMDL
MODEL      162
REMARK 921   NORMALIZED FREE ENERGY PREDICTED BY IDOCK:   -4.90 KCAL/MOL
REMARK 922        TOTAL FREE ENERGY PREDICTED BY IDOCK:   -6.41 KCAL/MOL
REMARK 923 INTER-LIGAND FREE ENERGY PREDICTED BY IDOCK:   -6.17 KCAL/MOL
REMARK 924 INTRA-LIGAND FREE ENERGY PREDICTED BY IDOCK:   -0.24 KCAL/MOL
REMARK 927      BINDING AFFINITY PREDICTED BY RF-SCORE:    0.00 PKD
ROOT
HETATM    1  C   UNL     1      -8.965   7.619  70.606  1.00  0.00    -0.153 C  
ENDROOT
BRANCH   1   2
HETATM    2  C   UNL     1      -8.199   7.497  71.939  1.00  0.00    -0.116 C  
HETATM    3  C   UNL     1      -8.875   8.145  73.137  1.00  0.00    -0.325 C  
ENDBRANCH   1   2
BRANCH   1   4
HETATM    4  N   UNL     1     -10.360   7.977  70.891  1.00  0.00    -0.199 NA 
HETATM    5  H   UNL     1     -10.924   7.340  71.453  1.00  0.00     0.000 HD 
BRANCH   4   6
HETATM    6  C   UNL     1     -10.936   9.142  70.427  1.00  0.00    -0.248 A  
HETATM    7  C   UNL     1     -11.446  10.757  68.749  1.00  0.00    -0.295 A  
HETATM    8  N   UNL     1     -12.089  11.607  69.560  1.00  0.00    -0.295 NA 
HETATM    9  N   UNL     1     -10.299   8.966  67.947  1.00  0.00    -0.222 NA 
HETATM   10  C   UNL     1     -12.108  11.127  70.816  1.00  0.00    -0.357 A  
HETATM   11  C   UNL     1     -10.519   9.834  66.973  1.00  0.00    -0.227 A  
HETATM   12  H   UNL     1      -9.817   8.069  67.883  1.00  0.00     0.000 HD 
HETATM   13  N   UNL     1     -11.578   9.979  71.287  1.00  0.00    -0.370 NA 
HETATM   14  C   UNL     1     -10.867   9.541  69.072  1.00  0.00    -0.160 A  
HETATM   15  N   UNL     1     -11.215  10.926  67.413  1.00  0.00    -0.396 NA 
ENDBRANCH   4   6
ENDBRANCH   1   4
BRANCH   1  16
HETATM   16  C   UNL     1      -8.974   6.287  69.765  1.00  0.00    -0.140 C  
HETATM   17  O   UNL     1      -9.849   2.816  70.021  1.00  0.00    -0.006 OA 
HETATM   18  N   UNL     1      -8.703   6.392  68.492  1.00  0.00    -0.121 NA 
HETATM   19  C   UNL     1      -8.732   5.250  67.685  1.00  0.00    -0.106 A  
HETATM   20  N   UNL     1      -9.325   5.070  70.349  1.00  0.00    -0.149 N  
HETATM   21  C   UNL     1      -9.494   3.909  69.579  1.00  0.00    -0.189 C  
HETATM   22  C   UNL     1      -8.314   5.357  66.352  1.00  0.00    -0.110 A  
HETATM   23  C   UNL     1      -9.166   4.014  68.152  1.00  0.00    -0.203 A  
HETATM   24  C   UNL     1      -8.352   4.251  65.496  1.00  0.00    -0.110 A  
HETATM   25  C   UNL     1      -8.830   3.032  65.964  1.00  0.00    -0.142 A  
HETATM   26  F   UNL     1      -9.689   1.726  67.701  1.00  0.00    -0.169 F  
HETATM   27  C   UNL     1      -9.237   2.918  67.289  1.00  0.00    -0.173 A  
BRANCH  20  28
HETATM   28  C   UNL     1      -9.548   4.924  71.753  1.00  0.00    -0.156 A  
HETATM   29  C   UNL     1      -8.509   4.562  72.619  1.00  0.00    -0.114 A  
HETATM   30  C   UNL     1      -8.741   4.483  73.995  1.00  0.00    -0.104 A  
HETATM   31  C   UNL     1     -10.007   4.753  74.510  1.00  0.00    -0.239 A  
HETATM   32  C   UNL     1     -11.058   5.062  73.650  1.00  0.00    -0.336 A  
HETATM   33  C   UNL     1     -10.835   5.124  72.276  1.00  0.00    -0.241 A  
ENDBRANCH  20  28
ENDBRANCH   1  16
TORSDOF 5
ENDMDL
MODEL      163
REMARK 921   NORMALIZED FREE ENERGY PREDICTED BY IDOCK:   -4.89 KCAL/MOL
REMARK 922        TOTAL FREE ENERGY PREDICTED BY IDOCK:   -6.39 KCAL/MOL
REMARK 923 INTER-LIGAND FREE ENERGY PREDICTED BY IDOCK:   -5.93 KCAL/MOL
REMARK 924 INTRA-LIGAND FREE ENERGY PREDICTED BY IDOCK:   -0.46 KCAL/MOL
REMARK 927      BINDING AFFINITY PREDICTED BY RF-SCORE:    0.00 PKD
ROOT
HETATM    1  C   UNL     1      -8.789  10.739  69.029  1.00  0.00    -0.127 C  
ENDROOT
BRANCH   1   2
HETATM    2  C   UNL     1      -7.355  11.223  69.322  1.00  0.00    -0.068 C  
HETATM    3  C   UNL     1      -6.531  11.586  68.097  1.00  0.00    -0.053 C  
ENDBRANCH   1   2
BRANCH   1   4
HETATM    4  N   UNL     1      -8.873   9.301  69.316  1.00  0.00    -0.141 NA 
HETATM    5  H   UNL     1      -9.167   8.670  68.571  1.00  0.00     0.000 HD 
BRANCH   4   6
HETATM    6  C   UNL     1      -8.569   8.772  70.553  1.00  0.00    -0.169 A  
HETATM    7  C   UNL     1      -7.091   7.869  72.191  1.00  0.00    -0.076 A  
HETATM    8  N   UNL     1      -8.033   7.608  73.106  1.00  0.00    -0.107 NA 
HETATM    9  N   UNL     1      -6.026   8.540  70.297  1.00  0.00    -0.027 NA 
HETATM   10  C   UNL     1      -9.242   7.973  72.645  1.00  0.00    -0.239 A  
HETATM   11  C   UNL     1      -5.153   8.021  71.146  1.00  0.00    -0.026 A  
HETATM   12  H   UNL     1      -5.838   8.929  69.373  1.00  0.00     0.000 HD 
HETATM   13  N   UNL     1      -9.559   8.520  71.452  1.00  0.00    -0.193 NA 
HETATM   14  C   UNL     1      -7.250   8.439  70.938  1.00  0.00    -0.059 A  
HETATM   15  N   UNL     1      -5.753   7.611  72.304  1.00  0.00    -0.036 NA 
ENDBRANCH   4   6
ENDBRANCH   1   4
BRANCH   1  16
HETATM   16  C   UNL     1      -9.231  10.956  67.532  1.00  0.00    -0.147 C  
HETATM   17  O   UNL     1     -10.886  13.334  65.416  1.00  0.00    -0.282 OA 
HETATM   18  N   UNL     1      -8.790  10.093  66.658  1.00  0.00    -0.132 NA 
HETATM   19  C   UNL     1      -9.118  10.253  65.307  1.00  0.00    -0.191 A  
HETATM   20  N   UNL     1      -9.997  12.062  67.162  1.00  0.00    -0.195 N  
HETATM   21  C   UNL     1     -10.259  12.353  65.815  1.00  0.00    -0.260 C  
HETATM   22  C   UNL     1      -8.748   9.251  64.401  1.00  0.00    -0.211 A  
HETATM   23  C   UNL     1      -9.790  11.373  64.828  1.00  0.00    -0.302 A  
HETATM   24  C   UNL     1      -9.025   9.378  63.036  1.00  0.00    -0.175 A  
HETATM   25  C   UNL     1      -9.658  10.523  62.563  1.00  0.00    -0.241 A  
HETATM   26  F   UNL     1     -10.646  12.602  62.966  1.00  0.00    -0.345 F  
HETATM   27  C   UNL     1     -10.037  11.516  63.460  1.00  0.00    -0.409 A  
BRANCH  20  28
HETATM   28  C   UNL     1     -10.551  12.970  68.115  1.00  0.00    -0.245 A  
HETATM   29  C   UNL     1     -11.787  12.720  68.724  1.00  0.00    -0.346 A  
HETATM   30  C   UNL     1     -12.279  13.596  69.695  1.00  0.00    -0.326 A  
HETATM   31  C   UNL     1     -11.548  14.727  70.055  1.00  0.00    -0.332 A  
HETATM   32  C   UNL     1     -10.343  15.010  69.416  1.00  0.00    -0.241 A  
HETATM   33  C   UNL     1      -9.858  14.148  68.435  1.00  0.00    -0.231 A  
ENDBRANCH  20  28
ENDBRANCH   1  16
TORSDOF 5
ENDMDL
MODEL      164
REMARK 921   NORMALIZED FREE ENERGY PREDICTED BY IDOCK:   -4.86 KCAL/MOL
REMARK 922        TOTAL FREE ENERGY PREDICTED BY IDOCK:   -6.35 KCAL/MOL
REMARK 923 INTER-LIGAND FREE ENERGY PREDICTED BY IDOCK:   -6.24 KCAL/MOL
REMARK 924 INTRA-LIGAND FREE ENERGY PREDICTED BY IDOCK:   -0.11 KCAL/MOL
REMARK 927      BINDING AFFINITY PREDICTED BY RF-SCORE:    0.00 PKD
ROOT
HETATM    1  C   UNL     1      -8.184   9.707  69.325  1.00  0.00    -0.123 C  
ENDROOT
BRANCH   1   2
HETATM    2  C   UNL     1      -7.638   9.375  70.728  1.00  0.00    -0.138 C  
HETATM    3  C   UNL     1      -6.177   8.956  70.773  1.00  0.00    -0.043 C  
ENDBRANCH   1   2
BRANCH   1   4
HETATM    4  N   UNL     1      -9.368  10.563  69.467  1.00  0.00    -0.400 NA 
HETATM    5  H   UNL     1      -9.910  10.511  70.330  1.00  0.00     0.000 HD 
BRANCH   4   6
HETATM    6  C   UNL     1      -9.776  11.434  68.478  1.00  0.00    -0.197 A  
HETATM    7  C   UNL     1      -9.724  13.501  67.292  1.00  0.00    -0.236 A  
HETATM    8  N   UNL     1     -10.731  13.213  66.458  1.00  0.00    -0.278 NA 
HETATM    9  N   UNL     1      -8.153  13.370  68.930  1.00  0.00    -0.346 NA 
HETATM   10  C   UNL     1     -11.209  11.982  66.714  1.00  0.00    -0.322 A  
HETATM   11  C   UNL     1      -8.089  14.552  68.337  1.00  0.00    -0.143 A  
HETATM   12  H   UNL     1      -7.570  13.026  69.693  1.00  0.00     0.000 HD 
HETATM   13  N   UNL     1     -10.807  11.101  67.654  1.00  0.00    -0.228 NA 
HETATM   14  C   UNL     1      -9.186  12.705  68.290  1.00  0.00    -0.184 A  
HETATM   15  N   UNL     1      -9.015  14.669  67.338  1.00  0.00    -0.185 NA 
ENDBRANCH   4   6
ENDBRANCH   1   4
BRANCH   1  16
HETATM   16  C   UNL     1      -8.609   8.433  68.501  1.00  0.00    -0.136 C  
HETATM   17  O   UNL     1     -11.127   5.879  68.391  1.00  0.00    -0.268 OA 
HETATM   18  N   UNL     1      -7.964   8.209  67.389  1.00  0.00    -0.116 NA 
HETATM   19  C   UNL     1      -8.320   7.114  66.594  1.00  0.00    -0.114 A  
HETATM   20  N   UNL     1      -9.673   7.631  68.915  1.00  0.00    -0.154 N  
HETATM   21  C   UNL     1     -10.164   6.592  68.110  1.00  0.00    -0.170 C  
HETATM   22  C   UNL     1      -7.537   6.812  65.473  1.00  0.00    -0.088 A  
HETATM   23  C   UNL     1      -9.427   6.318  66.870  1.00  0.00    -0.157 A  
HETATM   24  C   UNL     1      -7.868   5.746  64.630  1.00  0.00    -0.116 A  
HETATM   25  C   UNL     1      -9.003   4.985  64.892  1.00  0.00    -0.114 A  
HETATM   26  F   UNL     1     -10.862   4.517  66.228  1.00  0.00    -0.280 F  
HETATM   27  C   UNL     1      -9.778   5.275  66.010  1.00  0.00    -0.139 A  
BRANCH  20  28
HETATM   28  C   UNL     1     -10.337   7.816  70.166  1.00  0.00    -0.218 A  
HETATM   29  C   UNL     1     -11.486   8.610  70.268  1.00  0.00    -0.084 A  
HETATM   30  C   UNL     1     -12.149   8.729  71.492  1.00  0.00    -0.388 A  
HETATM   31  C   UNL     1     -11.664   8.067  72.620  1.00  0.00    -0.418 A  
HETATM   32  C   UNL     1     -10.493   7.320  72.538  1.00  0.00    -0.273 A  
HETATM   33  C   UNL     1      -9.819   7.213  71.323  1.00  0.00    -0.178 A  
ENDBRANCH  20  28
ENDBRANCH   1  16
TORSDOF 5
ENDMDL
MODEL      165
REMARK 921   NORMALIZED FREE ENERGY PREDICTED BY IDOCK:   -4.82 KCAL/MOL
REMARK 922        TOTAL FREE ENERGY PREDICTED BY IDOCK:   -6.30 KCAL/MOL
REMARK 923 INTER-LIGAND FREE ENERGY PREDICTED BY IDOCK:   -6.39 KCAL/MOL
REMARK 924 INTRA-LIGAND FREE ENERGY PREDICTED BY IDOCK:    0.09 KCAL/MOL
REMARK 927      BINDING AFFINITY PREDICTED BY RF-SCORE:    0.00 PKD
ROOT
HETATM    1  C   UNL     1     -10.070  14.823  68.233  1.00  0.00    -0.221 C  
ENDROOT
BRANCH   1   2
HETATM    2  C   UNL     1     -11.537  14.372  68.378  1.00  0.00    -0.351 C  
HETATM    3  C   UNL     1     -11.995  14.104  69.803  1.00  0.00    -0.396 C  
ENDBRANCH   1   2
BRANCH   1   4
HETATM    4  N   UNL     1      -9.988  15.837  67.174  1.00  0.00    -0.238 NA 
HETATM    5  H   UNL     1     -10.033  15.534  66.201  1.00  0.00     0.000 HD 
BRANCH   4   6
HETATM    6  C   UNL     1      -9.851  17.183  67.445  1.00  0.00    -0.264 A  
HETATM    7  C   UNL     1      -8.726  19.081  68.346  1.00  0.00    -0.346 A  
HETATM    8  N   UNL     1      -9.678  19.971  68.039  1.00  0.00    -0.375 NA 
HETATM    9  N   UNL     1      -7.544  17.152  68.569  1.00  0.00    -0.234 NA 
HETATM   10  C   UNL     1     -10.703  19.360  67.420  1.00  0.00    -0.479 A  
HETATM   11  C   UNL     1      -6.878  18.155  69.118  1.00  0.00    -0.232 A  
HETATM   12  H   UNL     1      -7.258  16.174  68.511  1.00  0.00     0.000 HD 
HETATM   13  N   UNL     1     -10.846  18.052  67.117  1.00  0.00    -0.252 NA 
HETATM   14  C   UNL     1      -8.714  17.720  68.091  1.00  0.00    -0.266 A  
HETATM   15  N   UNL     1      -7.553  19.339  68.999  1.00  0.00    -0.346 NA 
ENDBRANCH   4   6
ENDBRANCH   1   4
BRANCH   1  16
HETATM   16  C   UNL     1      -9.089  13.650  67.851  1.00  0.00    -0.198 C  
HETATM   17  O   UNL     1      -8.327  11.398  65.164  1.00  0.00     0.193 OA 
HETATM   18  N   UNL     1      -8.102  13.418  68.673  1.00  0.00    -0.091 NA 
HETATM   19  C   UNL     1      -7.176  12.413  68.370  1.00  0.00    -0.110 A  
HETATM   20  N   UNL     1      -9.239  12.948  66.655  1.00  0.00    -0.240 N  
HETATM   21  C   UNL     1      -8.282  12.015  66.228  1.00  0.00     0.204 C  
HETATM   22  C   UNL     1      -6.201  12.088  69.321  1.00  0.00    -0.096 A  
HETATM   23  C   UNL     1      -7.183  11.730  67.158  1.00  0.00    -0.147 A  
HETATM   24  C   UNL     1      -5.234  11.113  69.054  1.00  0.00    -0.040 A  
HETATM   25  C   UNL     1      -5.225  10.468  67.822  1.00  0.00    -0.037 A  
HETATM   26  F   UNL     1      -6.156  10.135  65.705  1.00  0.00    -0.065 F  
HETATM   27  C   UNL     1      -6.198  10.780  66.879  1.00  0.00    -0.076 A  
BRANCH  20  28
HETATM   28  C   UNL     1     -10.356  13.138  65.785  1.00  0.00    -0.289 A  
HETATM   29  C   UNL     1     -11.460  12.277  65.822  1.00  0.00    -0.417 A  
HETATM   30  C   UNL     1     -12.564  12.518  65.001  1.00  0.00    -0.424 A  
HETATM   31  C   UNL     1     -12.568  13.609  64.132  1.00  0.00    -0.169 A  
HETATM   32  C   UNL     1     -11.452  14.438  64.052  1.00  0.00     0.050 A  
HETATM   33  C   UNL     1     -10.343  14.191  64.857  1.00  0.00    -0.435 A  
ENDBRANCH  20  28
ENDBRANCH   1  16
TORSDOF 5
ENDMDL
MODEL      166
REMARK 921   NORMALIZED FREE ENERGY PREDICTED BY IDOCK:   -4.79 KCAL/MOL
REMARK 922        TOTAL FREE ENERGY PREDICTED BY IDOCK:   -6.26 KCAL/MOL
REMARK 923 INTER-LIGAND FREE ENERGY PREDICTED BY IDOCK:   -6.61 KCAL/MOL
REMARK 924 INTRA-LIGAND FREE ENERGY PREDICTED BY IDOCK:    0.35 KCAL/MOL
REMARK 927      BINDING AFFINITY PREDICTED BY RF-SCORE:    0.00 PKD
ROOT
HETATM    1  C   UNL     1      -9.103  14.473  68.237  1.00  0.00    -0.196 C  
ENDROOT
BRANCH   1   2
HETATM    2  C   UNL     1      -8.200  15.183  69.264  1.00  0.00    -0.216 C  
HETATM    3  C   UNL     1      -7.601  16.500  68.800  1.00  0.00    -0.219 C  
ENDBRANCH   1   2
BRANCH   1   4
HETATM    4  N   UNL     1     -10.316  15.275  68.037  1.00  0.00    -0.241 NA 
HETATM    5  H   UNL     1     -10.845  15.576  68.855  1.00  0.00     0.000 HD 
BRANCH   4   6
HETATM    6  C   UNL     1     -10.769  15.636  66.784  1.00  0.00    -0.300 A  
HETATM    7  C   UNL     1     -11.862  15.233  64.705  1.00  0.00    -0.267 A  
HETATM    8  N   UNL     1     -11.603  16.433  64.172  1.00  0.00    -1.029 NA 
HETATM    9  N   UNL     1     -11.967  13.463  66.129  1.00  0.00    -0.391 NA 
HETATM   10  C   UNL     1     -10.907  17.188  65.041  1.00  0.00     0.073 A  
HETATM   11  C   UNL     1     -12.563  13.160  64.986  1.00  0.00    -0.438 A  
HETATM   12  H   UNL     1     -11.866  12.871  66.953  1.00  0.00     0.000 HD 
HETATM   13  N   UNL     1     -10.480  16.867  66.280  1.00  0.00    -0.296 NA 
HETATM   14  C   UNL     1     -11.511  14.761  65.959  1.00  0.00    -0.316 A  
HETATM   15  N   UNL     1     -12.528  14.202  64.103  1.00  0.00    -0.696 NA 
ENDBRANCH   4   6
ENDBRANCH   1   4
BRANCH   1  16
HETATM   16  C   UNL     1      -9.551  13.030  68.688  1.00  0.00    -0.023 C  
HETATM   17  O   UNL     1     -12.135  11.343  70.518  1.00  0.00    -0.357 OA 
HETATM   18  N   UNL     1      -8.896  12.024  68.176  1.00  0.00    -0.178 NA 
HETATM   19  C   UNL     1      -9.270  10.718  68.509  1.00  0.00    -0.174 A  
HETATM   20  N   UNL     1     -10.642  12.850  69.538  1.00  0.00     0.290 N  
HETATM   21  C   UNL     1     -11.149  11.571  69.817  1.00  0.00    -0.084 C  
HETATM   22  C   UNL     1      -8.480   9.654  68.057  1.00  0.00    -0.118 A  
HETATM   23  C   UNL     1     -10.402  10.434  69.267  1.00  0.00    -0.250 A  
HETATM   24  C   UNL     1      -8.828   8.329  68.337  1.00  0.00    -0.137 A  
HETATM   25  C   UNL     1      -9.986   8.057  69.058  1.00  0.00    -0.186 A  
HETATM   26  F   UNL     1     -11.876   8.806  70.210  1.00  0.00    -0.192 F  
HETATM   27  C   UNL     1     -10.769   9.110  69.518  1.00  0.00    -0.215 A  
BRANCH  20  28
HETATM   28  C   UNL     1     -11.318  13.940  70.167  1.00  0.00    -0.000 A  
HETATM   29  C   UNL     1     -12.619  14.298  69.795  1.00  0.00    -0.152 A  
HETATM   30  C   UNL     1     -13.279  15.332  70.465  1.00  0.00    -0.278 A  
HETATM   31  C   UNL     1     -12.643  16.017  71.498  1.00  0.00    -0.322 A  
HETATM   32  C   UNL     1     -11.330  15.701  71.838  1.00  0.00    -0.421 A  
HETATM   33  C   UNL     1     -10.663  14.683  71.161  1.00  0.00     0.720 A  
ENDBRANCH  20  28
ENDBRANCH   1  16
TORSDOF 5
ENDMDL
MODEL      167
REMARK 921   NORMALIZED FREE ENERGY PREDICTED BY IDOCK:   -4.77 KCAL/MOL
REMARK 922        TOTAL FREE ENERGY PREDICTED BY IDOCK:   -6.23 KCAL/MOL
REMARK 923 INTER-LIGAND FREE ENERGY PREDICTED BY IDOCK:   -5.99 KCAL/MOL
REMARK 924 INTRA-LIGAND FREE ENERGY PREDICTED BY IDOCK:   -0.24 KCAL/MOL
REMARK 927      BINDING AFFINITY PREDICTED BY RF-SCORE:    0.00 PKD
ROOT
HETATM    1  C   UNL     1      -9.040   8.643  68.982  1.00  0.00    -0.145 C  
ENDROOT
BRANCH   1   2
HETATM    2  C   UNL     1      -8.710   8.549  70.485  1.00  0.00    -0.163 C  
HETATM    3  C   UNL     1      -7.229   8.584  70.828  1.00  0.00    -0.060 C  
ENDBRANCH   1   2
BRANCH   1   4
HETATM    4  N   UNL     1     -10.460   8.982  68.828  1.00  0.00    -0.241 NA 
HETATM    5  H   UNL     1     -11.161   8.312  69.144  1.00  0.00     0.000 HD 
BRANCH   4   6
HETATM    6  C   UNL     1     -10.882  10.172  68.271  1.00  0.00    -0.252 A  
HETATM    7  C   UNL     1     -11.079  11.755  66.500  1.00  0.00    -0.310 A  
HETATM    8  N   UNL     1     -11.721  12.689  67.213  1.00  0.00    -0.365 NA 
HETATM    9  N   UNL     1     -10.022   9.841  65.876  1.00  0.00    -0.282 NA 
HETATM   10  C   UNL     1     -11.906  12.264  68.476  1.00  0.00    -0.307 A  
HETATM   11  C   UNL     1     -10.067  10.685  64.857  1.00  0.00    -0.335 A  
HETATM   12  H   UNL     1      -9.618   8.905  65.889  1.00  0.00     0.000 HD 
HETATM   13  N   UNL     1     -11.529  11.094  69.034  1.00  0.00    -0.267 NA 
HETATM   14  C   UNL     1     -10.645  10.508  66.919  1.00  0.00    -0.243 A  
HETATM   15  N   UNL     1     -10.703  11.849  65.189  1.00  0.00    -0.282 NA 
ENDBRANCH   4   6
ENDBRANCH   1   4
BRANCH   1  16
HETATM   16  C   UNL     1      -8.780   7.300  68.200  1.00  0.00    -0.128 C  
HETATM   17  O   UNL     1      -9.746   3.844  68.167  1.00  0.00    -0.146 OA 
HETATM   18  N   UNL     1      -8.086   7.385  67.098  1.00  0.00    -0.113 NA 
HETATM   19  C   UNL     1      -7.853   6.233  66.339  1.00  0.00    -0.104 A  
HETATM   20  N   UNL     1      -9.331   6.095  68.637  1.00  0.00    -0.122 N  
HETATM   21  C   UNL     1      -9.243   4.926  67.865  1.00  0.00    -0.122 C  
HETATM   22  C   UNL     1      -6.999   6.317  65.232  1.00  0.00    -0.056 A  
HETATM   23  C   UNL     1      -8.442   5.009  66.638  1.00  0.00    -0.106 A  
HETATM   24  C   UNL     1      -6.758   5.201  64.424  1.00  0.00    -0.047 A  
HETATM   25  C   UNL     1      -7.388   3.994  64.707  1.00  0.00    -0.071 A  
HETATM   26  F   UNL     1      -8.814   2.722  66.052  1.00  0.00    -0.113 F  
HETATM   27  C   UNL     1      -8.228   3.903  65.812  1.00  0.00    -0.105 A  
BRANCH  20  28
HETATM   28  C   UNL     1     -10.026   5.970  69.879  1.00  0.00    -0.176 A  
HETATM   29  C   UNL     1      -9.380   5.503  71.029  1.00  0.00    -0.186 A  
HETATM   30  C   UNL     1     -10.067   5.446  72.244  1.00  0.00    -0.231 A  
HETATM   31  C   UNL     1     -11.402   5.842  72.315  1.00  0.00    -0.334 A  
HETATM   32  C   UNL     1     -12.066   6.257  71.164  1.00  0.00    -0.069 A  
HETATM   33  C   UNL     1     -11.389   6.299  69.947  1.00  0.00    -0.504 A  
ENDBRANCH  20  28
ENDBRANCH   1  16
TORSDOF 5
ENDMDL
MODEL      168
REMARK 921   NORMALIZED FREE ENERGY PREDICTED BY IDOCK:   -4.76 KCAL/MOL
REMARK 922        TOTAL FREE ENERGY PREDICTED BY IDOCK:   -6.22 KCAL/MOL
REMARK 923 INTER-LIGAND FREE ENERGY PREDICTED BY IDOCK:   -6.12 KCAL/MOL
REMARK 924 INTRA-LIGAND FREE ENERGY PREDICTED BY IDOCK:   -0.11 KCAL/MOL
REMARK 927      BINDING AFFINITY PREDICTED BY RF-SCORE:    0.00 PKD
ROOT
HETATM    1  C   UNL     1     -10.013  13.996  68.713  1.00  0.00    -0.162 C  
ENDROOT
BRANCH   1   2
HETATM    2  C   UNL     1     -11.504  13.907  69.092  1.00  0.00    -0.345 C  
HETATM    3  C   UNL     1     -11.987  12.526  69.505  1.00  0.00    -0.329 C  
ENDBRANCH   1   2
BRANCH   1   4
HETATM    4  N   UNL     1      -9.811  15.166  67.850  1.00  0.00    -0.216 NA 
HETATM    5  H   UNL     1     -10.421  15.291  67.042  1.00  0.00     0.000 HD 
BRANCH   4   6
HETATM    6  C   UNL     1      -8.828  16.104  68.090  1.00  0.00    -0.184 A  
HETATM    7  C   UNL     1      -6.570  16.813  68.378  1.00  0.00    -0.149 A  
HETATM    8  N   UNL     1      -6.856  18.087  68.674  1.00  0.00    -0.239 NA 
HETATM    9  N   UNL     1      -6.755  14.615  67.825  1.00  0.00    -0.165 NA 
HETATM   10  C   UNL     1      -8.187  18.281  68.652  1.00  0.00    -0.283 A  
HETATM   11  C   UNL     1      -5.481  14.931  68.000  1.00  0.00    -0.129 A  
HETATM   12  H   UNL     1      -7.139  13.707  67.564  1.00  0.00     0.000 HD 
HETATM   13  N   UNL     1      -9.164  17.388  68.391  1.00  0.00    -0.270 NA 
HETATM   14  C   UNL     1      -7.450  15.788  68.071  1.00  0.00    -0.127 A  
HETATM   15  N   UNL     1      -5.326  16.249  68.328  1.00  0.00    -0.100 NA 
ENDBRANCH   4   6
ENDBRANCH   1   4
BRANCH   1  16
HETATM   16  C   UNL     1      -9.488  12.730  67.934  1.00  0.00    -0.208 C  
HETATM   17  O   UNL     1      -9.481  11.257  64.662  1.00  0.00    -0.226 OA 
HETATM   18  N   UNL     1      -8.663  11.946  68.573  1.00  0.00    -0.145 NA 
HETATM   19  C   UNL     1      -8.134  10.826  67.923  1.00  0.00    -0.112 A  
HETATM   20  N   UNL     1      -9.840  12.509  66.602  1.00  0.00    -0.235 N  
HETATM   21  C   UNL     1      -9.253  11.479  65.851  1.00  0.00    -0.210 C  
HETATM   22  C   UNL     1      -7.355   9.925  68.660  1.00  0.00    -0.074 A  
HETATM   23  C   UNL     1      -8.345  10.577  66.570  1.00  0.00    -0.141 A  
HETATM   24  C   UNL     1      -6.778   8.807  68.049  1.00  0.00    -0.069 A  
HETATM   25  C   UNL     1      -6.960   8.593  66.686  1.00  0.00    -0.079 A  
HETATM   26  F   UNL     1      -7.894   9.237  64.644  1.00  0.00    -0.106 F  
HETATM   27  C   UNL     1      -7.742   9.480  65.953  1.00  0.00    -0.100 A  
BRANCH  20  28
HETATM   28  C   UNL     1     -10.800  13.312  65.915  1.00  0.00    -0.277 A  
HETATM   29  C   UNL     1     -12.171  13.047  66.010  1.00  0.00    -0.463 A  
HETATM   30  C   UNL     1     -13.092  13.882  65.373  1.00  0.00    -0.236 A  
HETATM   31  C   UNL     1     -12.651  14.978  64.633  1.00  0.00     0.014 A  
HETATM   32  C   UNL     1     -11.287  15.218  64.490  1.00  0.00    -0.307 A  
HETATM   33  C   UNL     1     -10.365  14.376  65.108  1.00  0.00    -0.447 A  
ENDBRANCH  20  28
ENDBRANCH   1  16
TORSDOF 5
ENDMDL
MODEL      169
REMARK 921   NORMALIZED FREE ENERGY PREDICTED BY IDOCK:   -4.75 KCAL/MOL
REMARK 922        TOTAL FREE ENERGY PREDICTED BY IDOCK:   -6.21 KCAL/MOL
REMARK 923 INTER-LIGAND FREE ENERGY PREDICTED BY IDOCK:   -5.66 KCAL/MOL
REMARK 924 INTRA-LIGAND FREE ENERGY PREDICTED BY IDOCK:   -0.54 KCAL/MOL
REMARK 927      BINDING AFFINITY PREDICTED BY RF-SCORE:    0.00 PKD
ROOT
HETATM    1  C   UNL     1      -8.031   6.650  69.075  1.00  0.00    -0.112 C  
ENDROOT
BRANCH   1   2
HETATM    2  C   UNL     1      -7.264   5.566  68.292  1.00  0.00    -0.071 C  
HETATM    3  C   UNL     1      -7.775   4.147  68.478  1.00  0.00    -0.066 C  
ENDBRANCH   1   2
BRANCH   1   4
HETATM    4  N   UNL     1      -9.359   6.132  69.427  1.00  0.00    -0.138 NA 
HETATM    5  H   UNL     1      -9.841   5.528  68.761  1.00  0.00     0.000 HD 
BRANCH   4   6
HETATM    6  C   UNL     1      -9.980   6.431  70.622  1.00  0.00    -0.185 A  
HETATM    7  C   UNL     1     -11.235   7.827  72.091  1.00  0.00    -0.297 A  
HETATM    8  N   UNL     1     -11.172   7.012  73.151  1.00  0.00    -0.217 NA 
HETATM    9  N   UNL     1     -10.988   8.711  70.011  1.00  0.00    -0.325 NA 
HETATM   10  C   UNL     1     -10.477   5.902  72.844  1.00  0.00    -0.222 A  
HETATM   11  C   UNL     1     -11.663   9.549  70.780  1.00  0.00    -0.298 A  
HETATM   12  H   UNL     1     -10.733   8.835  69.031  1.00  0.00     0.000 HD 
HETATM   13  N   UNL     1      -9.887   5.574  71.675  1.00  0.00    -0.168 NA 
HETATM   14  C   UNL     1     -10.702   7.629  70.828  1.00  0.00    -0.226 A  
HETATM   15  N   UNL     1     -11.841   9.051  72.041  1.00  0.00    -0.366 NA 
ENDBRANCH   4   6
ENDBRANCH   1   4
BRANCH   1  16
HETATM   16  C   UNL     1      -8.236   7.984  68.262  1.00  0.00    -0.123 C  
HETATM   17  O   UNL     1      -9.781   9.235  65.275  1.00  0.00    -0.216 OA 
HETATM   18  N   UNL     1      -7.859   9.091  68.842  1.00  0.00    -0.094 NA 
HETATM   19  C   UNL     1      -8.049  10.311  68.186  1.00  0.00    -0.110 A  
HETATM   20  N   UNL     1      -8.857   7.976  67.013  1.00  0.00    -0.130 N  
HETATM   21  C   UNL     1      -9.191   9.168  66.353  1.00  0.00    -0.183 C  
HETATM   22  C   UNL     1      -7.522  11.474  68.761  1.00  0.00    -0.119 A  
HETATM   23  C   UNL     1      -8.746  10.416  66.986  1.00  0.00    -0.132 A  
HETATM   24  C   UNL     1      -7.711  12.723  68.160  1.00  0.00    -0.137 A  
HETATM   25  C   UNL     1      -8.449  12.820  66.984  1.00  0.00    -0.154 A  
HETATM   26  F   UNL     1      -9.667  11.801  65.271  1.00  0.00    -0.239 F  
HETATM   27  C   UNL     1      -8.964  11.666  66.403  1.00  0.00    -0.198 A  
BRANCH  20  28
HETATM   28  C   UNL     1      -9.205   6.769  66.332  1.00  0.00    -0.153 A  
HETATM   29  C   UNL     1      -8.378   6.231  65.340  1.00  0.00    -0.148 A  
HETATM   30  C   UNL     1      -8.712   5.019  64.730  1.00  0.00    -0.149 A  
HETATM   31  C   UNL     1      -9.876   4.346  65.099  1.00  0.00    -0.193 A  
HETATM   32  C   UNL     1     -10.730   4.901  66.048  1.00  0.00    -0.247 A  
HETATM   33  C   UNL     1     -10.409   6.118  66.645  1.00  0.00    -0.249 A  
ENDBRANCH  20  28
ENDBRANCH   1  16
TORSDOF 5
ENDMDL
MODEL      170
REMARK 921   NORMALIZED FREE ENERGY PREDICTED BY IDOCK:   -4.71 KCAL/MOL
REMARK 922        TOTAL FREE ENERGY PREDICTED BY IDOCK:   -6.16 KCAL/MOL
REMARK 923 INTER-LIGAND FREE ENERGY PREDICTED BY IDOCK:   -4.58 KCAL/MOL
REMARK 924 INTRA-LIGAND FREE ENERGY PREDICTED BY IDOCK:   -1.58 KCAL/MOL
REMARK 927      BINDING AFFINITY PREDICTED BY RF-SCORE:    0.00 PKD
ROOT
HETATM    1  C   UNL     1     -10.142   9.109  69.963  1.00  0.00    -0.206 C  
ENDROOT
BRANCH   1   2
HETATM    2  C   UNL     1     -11.182  10.231  70.154  1.00  0.00    -0.387 C  
HETATM    3  C   UNL     1     -11.746  10.817  68.870  1.00  0.00    -0.338 C  
ENDBRANCH   1   2
BRANCH   1   4
HETATM    4  N   UNL     1      -9.585   8.750  71.273  1.00  0.00    -0.227 NA 
HETATM    5  H   UNL     1      -9.863   9.295  72.090  1.00  0.00     0.000 HD 
BRANCH   4   6
HETATM    6  C   UNL     1      -8.700   7.705  71.442  1.00  0.00    -0.124 A  
HETATM    7  C   UNL     1      -8.126   5.402  71.670  1.00  0.00    -0.117 A  
HETATM    8  N   UNL     1      -6.818   5.601  71.877  1.00  0.00    -0.065 NA 
HETATM    9  N   UNL     1     -10.340   5.737  71.274  1.00  0.00    -0.215 NA 
HETATM   10  C   UNL     1      -6.537   6.916  71.847  1.00  0.00    -0.053 A  
HETATM   11  C   UNL     1     -10.098   4.444  71.422  1.00  0.00    -0.140 A  
HETATM   12  H   UNL     1     -11.236   6.183  71.081  1.00  0.00     0.000 HD 
HETATM   13  N   UNL     1      -7.379   7.953  71.653  1.00  0.00    -0.066 NA 
HETATM   14  C   UNL     1      -9.109   6.351  71.440  1.00  0.00    -0.145 A  
HETATM   15  N   UNL     1      -8.773   4.199  71.655  1.00  0.00    -0.109 NA 
ENDBRANCH   4   6
ENDBRANCH   1   4
BRANCH   1  16
HETATM   16  C   UNL     1      -8.941   9.521  69.029  1.00  0.00    -0.144 C  
HETATM   17  O   UNL     1      -7.328   8.586  65.963  1.00  0.00    -0.079 OA 
HETATM   18  N   UNL     1      -8.335  10.642  69.309  1.00  0.00    -0.137 NA 
HETATM   19  C   UNL     1      -7.285  11.080  68.495  1.00  0.00    -0.085 A  
HETATM   20  N   UNL     1      -8.600   8.751  67.916  1.00  0.00    -0.129 N  
HETATM   21  C   UNL     1      -7.643   9.190  66.988  1.00  0.00    -0.091 C  
HETATM   22  C   UNL     1      -6.560  12.214  68.882  1.00  0.00    -0.090 A  
HETATM   23  C   UNL     1      -6.938  10.436  67.311  1.00  0.00    -0.086 A  
HETATM   24  C   UNL     1      -5.522  12.710  68.086  1.00  0.00    -0.073 A  
HETATM   25  C   UNL     1      -5.214  12.083  66.883  1.00  0.00    -0.037 A  
HETATM   26  F   UNL     1      -5.595  10.375  65.335  1.00  0.00    -0.069 F  
HETATM   27  C   UNL     1      -5.924  10.950  66.500  1.00  0.00    -0.118 A  
BRANCH  20  28
HETATM   28  C   UNL     1      -9.201   7.485  67.641  1.00  0.00    -0.127 A  
HETATM   29  C   UNL     1      -8.522   6.288  67.896  1.00  0.00    -0.117 A  
HETATM   30  C   UNL     1      -9.155   5.063  67.670  1.00  0.00    -0.121 A  
HETATM   31  C   UNL     1     -10.460   5.026  67.181  1.00  0.00    -0.181 A  
HETATM   32  C   UNL     1     -11.122   6.212  66.875  1.00  0.00    -0.301 A  
HETATM   33  C   UNL     1     -10.487   7.435  67.081  1.00  0.00    -0.403 A  
ENDBRANCH  20  28
ENDBRANCH   1  16
TORSDOF 5
ENDMDL
MODEL      171
REMARK 921   NORMALIZED FREE ENERGY PREDICTED BY IDOCK:   -4.71 KCAL/MOL
REMARK 922        TOTAL FREE ENERGY PREDICTED BY IDOCK:   -6.15 KCAL/MOL
REMARK 923 INTER-LIGAND FREE ENERGY PREDICTED BY IDOCK:   -6.07 KCAL/MOL
REMARK 924 INTRA-LIGAND FREE ENERGY PREDICTED BY IDOCK:   -0.08 KCAL/MOL
REMARK 927      BINDING AFFINITY PREDICTED BY RF-SCORE:    0.00 PKD
ROOT
HETATM    1  C   UNL     1      -7.751   8.607  70.652  1.00  0.00    -0.086 C  
ENDROOT
BRANCH   1   2
HETATM    2  C   UNL     1      -8.231   8.222  72.065  1.00  0.00    -0.211 C  
HETATM    3  C   UNL     1      -7.327   7.258  72.817  1.00  0.00    -0.079 C  
ENDBRANCH   1   2
BRANCH   1   4
HETATM    4  N   UNL     1      -8.195   9.975  70.356  1.00  0.00    -0.401 NA 
HETATM    5  H   UNL     1      -8.873  10.415  70.978  1.00  0.00     0.000 HD 
BRANCH   4   6
HETATM    6  C   UNL     1      -7.732  10.687  69.268  1.00  0.00    -0.142 A  
HETATM    7  C   UNL     1      -7.964  12.217  67.455  1.00  0.00    -0.168 A  
HETATM    8  N   UNL     1      -6.722  12.064  66.979  1.00  0.00    -0.131 NA 
HETATM    9  N   UNL     1      -9.847  12.031  68.716  1.00  0.00    -0.401 NA 
HETATM   10  C   UNL     1      -6.040  11.183  67.732  1.00  0.00    -0.047 A  
HETATM   11  C   UNL     1     -10.056  12.868  67.712  1.00  0.00    -0.229 A  
HETATM   12  H   UNL     1     -10.506  11.760  69.446  1.00  0.00     0.000 HD 
HETATM   13  N   UNL     1      -6.462  10.498  68.816  1.00  0.00    -0.051 NA 
HETATM   14  C   UNL     1      -8.538  11.605  68.558  1.00  0.00    -0.134 A  
HETATM   15  N   UNL     1      -8.943  13.014  66.931  1.00  0.00    -0.223 NA 
ENDBRANCH   4   6
ENDBRANCH   1   4
BRANCH   1  16
HETATM   16  C   UNL     1      -8.314   7.665  69.521  1.00  0.00    -0.130 C  
HETATM   17  O   UNL     1     -11.405   6.582  68.057  1.00  0.00    -0.234 OA 
HETATM   18  N   UNL     1      -7.442   7.146  68.699  1.00  0.00    -0.100 NA 
HETATM   19  C   UNL     1      -7.883   6.330  67.652  1.00  0.00    -0.106 A  
HETATM   20  N   UNL     1      -9.686   7.461  69.372  1.00  0.00    -0.158 N  
HETATM   21  C   UNL     1     -10.207   6.758  68.275  1.00  0.00    -0.175 C  
HETATM   22  C   UNL     1      -6.931   5.677  66.860  1.00  0.00    -0.065 A  
HETATM   23  C   UNL     1      -9.232   6.149  67.362  1.00  0.00    -0.112 A  
HETATM   24  C   UNL     1      -7.320   4.875  65.783  1.00  0.00    -0.077 A  
HETATM   25  C   UNL     1      -8.670   4.737  65.476  1.00  0.00    -0.135 A  
HETATM   26  F   UNL     1     -10.910   5.216  65.939  1.00  0.00    -0.297 F  
HETATM   27  C   UNL     1      -9.620   5.375  66.266  1.00  0.00    -0.160 A  
BRANCH  20  28
HETATM   28  C   UNL     1     -10.645   7.958  70.306  1.00  0.00    -0.231 A  
HETATM   29  C   UNL     1     -11.179   7.135  71.305  1.00  0.00    -0.287 A  
HETATM   30  C   UNL     1     -12.073   7.661  72.242  1.00  0.00    -0.297 A  
HETATM   31  C   UNL     1     -12.445   9.003  72.180  1.00  0.00    -0.450 A  
HETATM   32  C   UNL     1     -11.959   9.814  71.158  1.00  0.00    -0.463 A  
HETATM   33  C   UNL     1     -11.081   9.288  70.212  1.00  0.00    -0.289 A  
ENDBRANCH  20  28
ENDBRANCH   1  16
TORSDOF 5
ENDMDL
MODEL      172
REMARK 921   NORMALIZED FREE ENERGY PREDICTED BY IDOCK:   -4.59 KCAL/MOL
REMARK 922        TOTAL FREE ENERGY PREDICTED BY IDOCK:   -6.00 KCAL/MOL
REMARK 923 INTER-LIGAND FREE ENERGY PREDICTED BY IDOCK:   -4.97 KCAL/MOL
REMARK 924 INTRA-LIGAND FREE ENERGY PREDICTED BY IDOCK:   -1.04 KCAL/MOL
REMARK 927      BINDING AFFINITY PREDICTED BY RF-SCORE:    0.00 PKD
ROOT
HETATM    1  C   UNL     1      -9.760   7.955  67.883  1.00  0.00    -0.155 C  
ENDROOT
BRANCH   1   2
HETATM    2  C   UNL     1     -10.697   7.806  69.098  1.00  0.00    -0.139 C  
HETATM    3  C   UNL     1     -10.970   6.377  69.537  1.00  0.00    -0.421 C  
ENDBRANCH   1   2
BRANCH   1   4
HETATM    4  N   UNL     1     -10.439   8.752  66.855  1.00  0.00    -0.278 NA 
HETATM    5  H   UNL     1     -11.058   8.279  66.196  1.00  0.00     0.000 HD 
BRANCH   4   6
HETATM    6  C   UNL     1     -10.271  10.117  66.744  1.00  0.00    -0.228 A  
HETATM    7  C   UNL     1     -10.077  12.158  65.527  1.00  0.00    -0.248 A  
HETATM    8  N   UNL     1      -9.838  12.936  66.589  1.00  0.00    -0.244 NA 
HETATM    9  N   UNL     1     -10.514  10.364  64.200  1.00  0.00    -0.365 NA 
HETATM   10  C   UNL     1      -9.836  12.199  67.714  1.00  0.00    -0.199 A  
HETATM   11  C   UNL     1     -10.387  11.453  63.459  1.00  0.00    -0.423 A  
HETATM   12  H   UNL     1     -10.719   9.416  63.883  1.00  0.00     0.000 HD 
HETATM   13  N   UNL     1     -10.027  10.870  67.851  1.00  0.00    -0.173 NA 
HETATM   14  C   UNL     1     -10.309  10.792  65.502  1.00  0.00    -0.241 A  
HETATM   15  N   UNL     1     -10.131  12.559  64.221  1.00  0.00    -0.304 NA 
ENDBRANCH   4   6
ENDBRANCH   1   4
BRANCH   1  16
HETATM   16  C   UNL     1      -9.355   6.577  67.233  1.00  0.00    -0.121 C  
HETATM   17  O   UNL     1      -6.932   3.947  67.521  1.00  0.00    -0.053 OA 
HETATM   18  N   UNL     1     -10.187   6.070  66.364  1.00  0.00    -0.121 NA 
HETATM   19  C   UNL     1      -9.901   4.832  65.779  1.00  0.00    -0.199 A  
HETATM   20  N   UNL     1      -8.196   5.909  67.628  1.00  0.00    -0.105 N  
HETATM   21  C   UNL     1      -7.909   4.612  67.177  1.00  0.00    -0.094 C  
HETATM   22  C   UNL     1     -10.734   4.362  64.756  1.00  0.00    -0.080 A  
HETATM   23  C   UNL     1      -8.826   4.045  66.180  1.00  0.00    -0.120 A  
HETATM   24  C   UNL     1     -10.509   3.117  64.160  1.00  0.00    -0.093 A  
HETATM   25  C   UNL     1      -9.456   2.320  64.600  1.00  0.00    -0.102 A  
HETATM   26  F   UNL     1      -7.617   1.991  66.004  1.00  0.00    -0.062 F  
HETATM   27  C   UNL     1      -8.620   2.787  65.609  1.00  0.00    -0.107 A  
BRANCH  20  28
HETATM   28  C   UNL     1      -7.239   6.486  68.517  1.00  0.00    -0.085 A  
HETATM   29  C   UNL     1      -7.336   6.308  69.902  1.00  0.00    -0.079 A  
HETATM   30  C   UNL     1      -6.354   6.835  70.746  1.00  0.00    -0.043 A  
HETATM   31  C   UNL     1      -5.281   7.548  70.215  1.00  0.00    -0.023 A  
HETATM   32  C   UNL     1      -5.206   7.774  68.843  1.00  0.00    -0.022 A  
HETATM   33  C   UNL     1      -6.192   7.265  68.000  1.00  0.00    -0.039 A  
ENDBRANCH  20  28
ENDBRANCH   1  16
TORSDOF 5
ENDMDL
MODEL      173
REMARK 921   NORMALIZED FREE ENERGY PREDICTED BY IDOCK:   -4.56 KCAL/MOL
REMARK 922        TOTAL FREE ENERGY PREDICTED BY IDOCK:   -5.96 KCAL/MOL
REMARK 923 INTER-LIGAND FREE ENERGY PREDICTED BY IDOCK:   -5.84 KCAL/MOL
REMARK 924 INTRA-LIGAND FREE ENERGY PREDICTED BY IDOCK:   -0.13 KCAL/MOL
REMARK 927      BINDING AFFINITY PREDICTED BY RF-SCORE:    0.00 PKD
ROOT
HETATM    1  C   UNL     1      -8.755  10.472  68.178  1.00  0.00    -0.130 C  
ENDROOT
BRANCH   1   2
HETATM    2  C   UNL     1      -8.658   9.760  69.542  1.00  0.00    -0.186 C  
HETATM    3  C   UNL     1      -9.917   9.813  70.392  1.00  0.00    -0.294 C  
ENDBRANCH   1   2
BRANCH   1   4
HETATM    4  N   UNL     1     -10.170  10.678  67.849  1.00  0.00    -0.171 NA 
HETATM    5  H   UNL     1     -10.822   9.905  67.981  1.00  0.00     0.000 HD 
BRANCH   4   6
HETATM    6  C   UNL     1     -10.653  11.878  67.368  1.00  0.00    -0.225 A  
HETATM    7  C   UNL     1     -11.632  14.039  67.601  1.00  0.00    -0.354 A  
HETATM    8  N   UNL     1     -11.710  14.303  66.291  1.00  0.00    -0.380 NA 
HETATM    9  N   UNL     1     -11.228  13.020  69.593  1.00  0.00    -0.477 NA 
HETATM   10  C   UNL     1     -11.222  13.272  65.579  1.00  0.00    -0.287 A  
HETATM   11  C   UNL     1     -11.800  14.197  69.796  1.00  0.00    -0.322 A  
HETATM   12  H   UNL     1     -10.927  12.347  70.298  1.00  0.00     0.000 HD 
HETATM   13  N   UNL     1     -10.717  12.103  66.027  1.00  0.00    -0.264 NA 
HETATM   14  C   UNL     1     -11.129  12.904  68.216  1.00  0.00    -0.264 A  
HETATM   15  N   UNL     1     -12.053  14.847  68.620  1.00  0.00    -0.225 NA 
ENDBRANCH   4   6
ENDBRANCH   1   4
BRANCH   1  16
HETATM   16  C   UNL     1      -8.102   9.656  66.998  1.00  0.00    -0.113 C  
HETATM   17  O   UNL     1      -8.220   6.437  65.417  1.00  0.00    -0.133 OA 
HETATM   18  N   UNL     1      -7.331  10.318  66.180  1.00  0.00    -0.115 NA 
HETATM   19  C   UNL     1      -6.752   9.657  65.091  1.00  0.00    -0.094 A  
HETATM   20  N   UNL     1      -8.400   8.306  66.808  1.00  0.00    -0.106 N  
HETATM   21  C   UNL     1      -7.955   7.612  65.672  1.00  0.00    -0.116 C  
HETATM   22  C   UNL     1      -5.826  10.347  64.299  1.00  0.00    -0.121 A  
HETATM   23  C   UNL     1      -7.066   8.342  64.761  1.00  0.00    -0.080 A  
HETATM   24  C   UNL     1      -5.242   9.740  63.182  1.00  0.00    -0.077 A  
HETATM   25  C   UNL     1      -5.598   8.441  62.837  1.00  0.00    -0.073 A  
HETATM   26  F   UNL     1      -6.824   6.498  63.262  1.00  0.00    -0.040 F  
HETATM   27  C   UNL     1      -6.509   7.748  63.627  1.00  0.00    -0.062 A  
BRANCH  20  28
HETATM   28  C   UNL     1      -9.178   7.549  67.736  1.00  0.00    -0.135 A  
HETATM   29  C   UNL     1     -10.576   7.541  67.674  1.00  0.00    -0.303 A  
HETATM   30  C   UNL     1     -11.312   6.747  68.558  1.00  0.00    -0.056 A  
HETATM   31  C   UNL     1     -10.658   5.969  69.512  1.00  0.00    -0.363 A  
HETATM   32  C   UNL     1      -9.270   6.013  69.614  1.00  0.00    -0.148 A  
HETATM   33  C   UNL     1      -8.535   6.817  68.746  1.00  0.00    -0.124 A  
ENDBRANCH  20  28
ENDBRANCH   1  16
TORSDOF 5
ENDMDL
MODEL      174
REMARK 921   NORMALIZED FREE ENERGY PREDICTED BY IDOCK:   -4.54 KCAL/MOL
REMARK 922        TOTAL FREE ENERGY PREDICTED BY IDOCK:   -5.93 KCAL/MOL
REMARK 923 INTER-LIGAND FREE ENERGY PREDICTED BY IDOCK:   -5.55 KCAL/MOL
REMARK 924 INTRA-LIGAND FREE ENERGY PREDICTED BY IDOCK:   -0.38 KCAL/MOL
REMARK 927      BINDING AFFINITY PREDICTED BY RF-SCORE:    0.00 PKD
ROOT
HETATM    1  C   UNL     1     -10.544  11.397  68.784  1.00  0.00    -0.204 C  
ENDROOT
BRANCH   1   2
HETATM    2  C   UNL     1     -12.038  11.432  69.161  1.00  0.00    -0.331 C  
HETATM    3  C   UNL     1     -12.350  12.026  70.524  1.00  0.00    -0.369 C  
ENDBRANCH   1   2
BRANCH   1   4
HETATM    4  N   UNL     1      -9.799  10.725  69.855  1.00  0.00    -0.347 NA 
HETATM    5  H   UNL     1      -9.040  11.229  70.315  1.00  0.00     0.000 HD 
BRANCH   4   6
HETATM    6  C   UNL     1     -10.085   9.439  70.264  1.00  0.00    -0.240 A  
HETATM    7  C   UNL     1     -10.065   7.066  70.034  1.00  0.00    -0.187 A  
HETATM    8  N   UNL     1     -10.783   6.810  71.134  1.00  0.00    -0.225 NA 
HETATM    9  N   UNL     1      -8.936   8.135  68.374  1.00  0.00    -0.137 NA 
HETATM   10  C   UNL     1     -11.115   7.958  71.751  1.00  0.00    -0.253 A  
HETATM   11  C   UNL     1      -8.913   6.828  68.167  1.00  0.00    -0.118 A  
HETATM   12  H   UNL     1      -8.509   8.862  67.802  1.00  0.00     0.000 HD 
HETATM   13  N   UNL     1     -10.821   9.224  71.388  1.00  0.00    -0.341 NA 
HETATM   14  C   UNL     1      -9.669   8.298  69.539  1.00  0.00    -0.174 A  
HETATM   15  N   UNL     1      -9.576   6.146  69.149  1.00  0.00    -0.134 NA 
ENDBRANCH   4   6
ENDBRANCH   1   4
BRANCH   1  16
HETATM   16  C   UNL     1      -9.915  12.829  68.587  1.00  0.00    -0.091 C  
HETATM   17  O   UNL     1      -7.290  14.517  66.816  1.00  0.00     0.181 OA 
HETATM   18  N   UNL     1     -10.566  13.834  69.106  1.00  0.00    -0.137 NA 
HETATM   19  C   UNL     1     -10.077  15.134  68.934  1.00  0.00    -0.238 A  
HETATM   20  N   UNL     1      -8.755  13.007  67.832  1.00  0.00    -0.179 N  
HETATM   21  C   UNL     1      -8.277  14.287  67.516  1.00  0.00    -0.189 C  
HETATM   22  C   UNL     1     -10.713  16.186  69.604  1.00  0.00    -0.325 A  
HETATM   23  C   UNL     1      -8.988  15.422  68.117  1.00  0.00    -0.176 A  
HETATM   24  C   UNL     1     -10.281  17.507  69.441  1.00  0.00    -0.089 A  
HETATM   25  C   UNL     1      -9.220  17.787  68.587  1.00  0.00    -0.264 A  
HETATM   26  F   UNL     1      -7.559  17.054  67.115  1.00  0.00    -0.163 F  
HETATM   27  C   UNL     1      -8.578  16.743  67.928  1.00  0.00    -0.202 A  
BRANCH  20  28
HETATM   28  C   UNL     1      -7.990  11.913  67.325  1.00  0.00    -0.171 A  
HETATM   29  C   UNL     1      -8.353  11.260  66.141  1.00  0.00    -0.111 A  
HETATM   30  C   UNL     1      -7.556  10.229  65.636  1.00  0.00    -0.148 A  
HETATM   31  C   UNL     1      -6.401   9.840  66.313  1.00  0.00    -0.070 A  
HETATM   32  C   UNL     1      -6.062  10.449  67.518  1.00  0.00    -0.053 A  
HETATM   33  C   UNL     1      -6.864  11.464  68.034  1.00  0.00    -0.067 A  
ENDBRANCH  20  28
ENDBRANCH   1  16
TORSDOF 5
ENDMDL
MODEL      175
REMARK 921   NORMALIZED FREE ENERGY PREDICTED BY IDOCK:   -4.52 KCAL/MOL
REMARK 922        TOTAL FREE ENERGY PREDICTED BY IDOCK:   -5.90 KCAL/MOL
REMARK 923 INTER-LIGAND FREE ENERGY PREDICTED BY IDOCK:   -6.64 KCAL/MOL
REMARK 924 INTRA-LIGAND FREE ENERGY PREDICTED BY IDOCK:    0.74 KCAL/MOL
REMARK 927      BINDING AFFINITY PREDICTED BY RF-SCORE:    0.00 PKD
ROOT
HETATM    1  C   UNL     1      -8.815  12.833  67.572  1.00  0.00    -0.187 C  
ENDROOT
BRANCH   1   2
HETATM    2  C   UNL     1      -8.059  14.159  67.355  1.00  0.00    -0.205 C  
HETATM    3  C   UNL     1      -6.553  14.085  67.546  1.00  0.00    -0.101 C  
ENDBRANCH   1   2
BRANCH   1   4
HETATM    4  N   UNL     1      -9.408  12.411  66.297  1.00  0.00    -0.319 NA 
HETATM    5  H   UNL     1     -10.075  13.031  65.837  1.00  0.00     0.000 HD 
BRANCH   4   6
HETATM    6  C   UNL     1      -9.099  11.207  65.697  1.00  0.00    -0.205 A  
HETATM    7  C   UNL     1      -9.210   8.836  65.474  1.00  0.00    -0.137 A  
HETATM    8  N   UNL     1      -8.350   8.748  64.452  1.00  0.00    -0.168 NA 
HETATM    9  N   UNL     1     -10.535   9.641  67.137  1.00  0.00    -0.255 NA 
HETATM   10  C   UNL     1      -7.906   9.971  64.111  1.00  0.00    -0.144 A  
HETATM   11  C   UNL     1     -10.620   8.321  67.091  1.00  0.00    -0.270 A  
HETATM   12  H   UNL     1     -11.022  10.273  67.773  1.00  0.00     0.000 HD 
HETATM   13  N   UNL     1      -8.217  11.163  64.662  1.00  0.00     0.310 NA 
HETATM   14  C   UNL     1      -9.642   9.976  66.133  1.00  0.00    -0.210 A  
HETATM   15  N   UNL     1      -9.842   7.796  66.097  1.00  0.00    -0.024 NA 
ENDBRANCH   4   6
ENDBRANCH   1   4
BRANCH   1  16
HETATM   16  C   UNL     1      -9.978  12.941  68.629  1.00  0.00    -0.092 C  
HETATM   17  O   UNL     1     -12.317  15.296  69.992  1.00  0.00    -0.344 OA 
HETATM   18  N   UNL     1     -10.394  11.824  69.163  1.00  0.00    -0.056 NA 
HETATM   19  C   UNL     1     -11.448  11.851  70.082  1.00  0.00    -0.049 A  
HETATM   20  N   UNL     1     -10.574  14.168  68.920  1.00  0.00    -0.247 N  
HETATM   21  C   UNL     1     -11.713  14.255  69.734  1.00  0.00    -0.309 C  
HETATM   22  C   UNL     1     -11.796  10.666  70.742  1.00  0.00    -0.459 A  
HETATM   23  C   UNL     1     -12.170  13.007  70.359  1.00  0.00    -0.386 A  
HETATM   24  C   UNL     1     -12.863  10.633  71.646  1.00  0.00    -0.570 A  
HETATM   25  C   UNL     1     -13.605  11.786  71.882  1.00  0.00    -0.101 A  
HETATM   26  F   UNL     1     -13.995  14.057  71.491  1.00  0.00    -0.413 F  
HETATM   27  C   UNL     1     -13.256  12.968  71.236  1.00  0.00    -0.105 A  
BRANCH  20  28
HETATM   28  C   UNL     1     -10.081  15.406  68.404  1.00  0.00    -0.215 A  
HETATM   29  C   UNL     1      -9.048  16.099  69.045  1.00  0.00    -0.250 A  
HETATM   30  C   UNL     1      -8.545  17.278  68.488  1.00  0.00    -0.270 A  
HETATM   31  C   UNL     1      -9.077  17.775  67.299  1.00  0.00    -0.246 A  
HETATM   32  C   UNL     1     -10.141  17.120  66.685  1.00  0.00    -0.306 A  
HETATM   33  C   UNL     1     -10.656  15.953  67.246  1.00  0.00    -0.314 A  
ENDBRANCH  20  28
ENDBRANCH   1  16
TORSDOF 5
ENDMDL
MODEL      176
REMARK 921   NORMALIZED FREE ENERGY PREDICTED BY IDOCK:   -4.44 KCAL/MOL
REMARK 922        TOTAL FREE ENERGY PREDICTED BY IDOCK:   -5.81 KCAL/MOL
REMARK 923 INTER-LIGAND FREE ENERGY PREDICTED BY IDOCK:   -4.82 KCAL/MOL
REMARK 924 INTRA-LIGAND FREE ENERGY PREDICTED BY IDOCK:   -0.99 KCAL/MOL
REMARK 927      BINDING AFFINITY PREDICTED BY RF-SCORE:    0.00 PKD
ROOT
HETATM    1  C   UNL     1      -7.682   6.916  67.830  1.00  0.00    -0.112 C  
ENDROOT
BRANCH   1   2
HETATM    2  C   UNL     1      -6.893   8.181  68.223  1.00  0.00    -0.069 C  
HETATM    3  C   UNL     1      -5.499   8.288  67.624  1.00  0.00    -0.034 C  
ENDBRANCH   1   2
BRANCH   1   4
HETATM    4  N   UNL     1      -8.588   7.247  66.723  1.00  0.00    -0.123 NA 
HETATM    5  H   UNL     1      -9.594   7.236  66.894  1.00  0.00     0.000 HD 
BRANCH   4   6
HETATM    6  C   UNL     1      -8.132   7.572  65.462  1.00  0.00    -0.131 A  
HETATM    7  C   UNL     1      -8.141   8.841  63.444  1.00  0.00    -0.170 A  
HETATM    8  N   UNL     1      -7.188   8.132  62.826  1.00  0.00    -0.094 NA 
HETATM    9  N   UNL     1      -9.629   9.601  64.985  1.00  0.00    -0.405 NA 
HETATM   10  C   UNL     1      -6.755   7.140  63.623  1.00  0.00    -0.044 A  
HETATM   11  C   UNL     1      -9.711  10.328  63.882  1.00  0.00    -0.261 A  
HETATM   12  H   UNL     1     -10.168   9.714  65.845  1.00  0.00     0.000 HD 
HETATM   13  N   UNL     1      -7.164   6.822  64.869  1.00  0.00    -0.070 NA 
HETATM   14  C   UNL     1      -8.654   8.654  64.718  1.00  0.00    -0.111 A  
HETATM   15  N   UNL     1      -8.824   9.907  62.930  1.00  0.00    -0.223 NA 
ENDBRANCH   4   6
ENDBRANCH   1   4
BRANCH   1  16
HETATM   16  C   UNL     1      -8.554   6.332  69.005  1.00  0.00    -0.123 C  
HETATM   17  O   UNL     1      -9.813   3.225  70.283  1.00  0.00    -0.110 OA 
HETATM   18  N   UNL     1      -8.880   7.157  69.963  1.00  0.00    -0.142 NA 
HETATM   19  C   UNL     1      -9.622   6.689  71.052  1.00  0.00    -0.171 A  
HETATM   20  N   UNL     1      -8.894   4.979  69.045  1.00  0.00    -0.091 N  
HETATM   21  C   UNL     1      -9.529   4.416  70.162  1.00  0.00    -0.175 C  
HETATM   22  C   UNL     1     -10.075   7.611  72.005  1.00  0.00    -0.233 A  
HETATM   23  C   UNL     1      -9.922   5.342  71.231  1.00  0.00    -0.253 A  
HETATM   24  C   UNL     1     -10.794   7.190  73.128  1.00  0.00    -0.373 A  
HETATM   25  C   UNL     1     -11.049   5.835  73.317  1.00  0.00    -0.252 A  
HETATM   26  F   UNL     1     -10.878   3.623  72.587  1.00  0.00    -0.224 F  
HETATM   27  C   UNL     1     -10.611   4.917  72.369  1.00  0.00    -0.200 A  
BRANCH  20  28
HETATM   28  C   UNL     1      -8.612   4.082  67.969  1.00  0.00    -0.096 A  
HETATM   29  C   UNL     1      -9.534   3.874  66.937  1.00  0.00    -0.225 A  
HETATM   30  C   UNL     1      -9.210   3.035  65.867  1.00  0.00    -0.122 A  
HETATM   31  C   UNL     1      -7.973   2.393  65.829  1.00  0.00    -0.082 A  
HETATM   32  C   UNL     1      -7.073   2.554  66.879  1.00  0.00    -0.049 A  
HETATM   33  C   UNL     1      -7.399   3.376  67.955  1.00  0.00    -0.054 A  
ENDBRANCH  20  28
ENDBRANCH   1  16
TORSDOF 5
ENDMDL
MODEL      177
REMARK 921   NORMALIZED FREE ENERGY PREDICTED BY IDOCK:   -4.41 KCAL/MOL
REMARK 922        TOTAL FREE ENERGY PREDICTED BY IDOCK:   -5.77 KCAL/MOL
REMARK 923 INTER-LIGAND FREE ENERGY PREDICTED BY IDOCK:   -6.53 KCAL/MOL
REMARK 924 INTRA-LIGAND FREE ENERGY PREDICTED BY IDOCK:    0.77 KCAL/MOL
REMARK 927      BINDING AFFINITY PREDICTED BY RF-SCORE:    0.00 PKD
ROOT
HETATM    1  C   UNL     1     -10.863  15.296  66.836  1.00  0.00    -0.317 C  
ENDROOT
BRANCH   1   2
HETATM    2  C   UNL     1     -10.933  16.245  65.623  1.00  0.00    -0.109 C  
HETATM    3  C   UNL     1     -11.502  15.632  64.353  1.00  0.00    -0.266 C  
ENDBRANCH   1   2
BRANCH   1   4
HETATM    4  N   UNL     1     -10.843  16.098  68.066  1.00  0.00    -0.324 NA 
HETATM    5  H   UNL     1     -10.486  17.053  68.022  1.00  0.00     0.000 HD 
BRANCH   4   6
HETATM    6  C   UNL     1     -11.290  15.611  69.277  1.00  0.00    -0.345 A  
HETATM    7  C   UNL     1     -12.222  13.941  70.699  1.00  0.00    -0.373 A  
HETATM    8  N   UNL     1     -12.271  14.701  71.800  1.00  0.00    -0.346 NA 
HETATM    9  N   UNL     1     -11.876  13.214  68.573  1.00  0.00    -0.340 NA 
HETATM   10  C   UNL     1     -11.795  15.931  71.537  1.00  0.00    -0.468 A  
HETATM   11  C   UNL     1     -12.424  12.250  69.297  1.00  0.00     0.330 A  
HETATM   12  H   UNL     1     -11.603  13.175  67.591  1.00  0.00     0.000 HD 
HETATM   13  N   UNL     1     -11.326  16.421  70.370  1.00  0.00    -0.296 NA 
HETATM   14  C   UNL     1     -11.756  14.287  69.441  1.00  0.00    -0.316 A  
HETATM   15  N   UNL     1     -12.641  12.645  70.587  1.00  0.00    -0.218 NA 
ENDBRANCH   4   6
ENDBRANCH   1   4
BRANCH   1  16
HETATM   16  C   UNL     1      -9.581  14.380  66.841  1.00  0.00    -0.256 C  
HETATM   17  O   UNL     1      -6.078  14.467  67.614  1.00  0.00    -0.271 OA 
HETATM   18  N   UNL     1      -9.766  13.107  66.621  1.00  0.00    -0.255 NA 
HETATM   19  C   UNL     1      -8.671  12.237  66.649  1.00  0.00    -0.132 A  
HETATM   20  N   UNL     1      -8.323  14.906  67.138  1.00  0.00    -0.209 N  
HETATM   21  C   UNL     1      -7.203  14.076  67.305  1.00  0.00     0.044 C  
HETATM   22  C   UNL     1      -8.865  10.899  66.284  1.00  0.00    -0.187 A  
HETATM   23  C   UNL     1      -7.398  12.647  67.033  1.00  0.00     0.046 A  
HETATM   24  C   UNL     1      -7.809   9.982  66.324  1.00  0.00    -0.111 A  
HETATM   25  C   UNL     1      -6.552  10.395  66.752  1.00  0.00    -0.078 A  
HETATM   26  F   UNL     1      -5.126  12.083  67.511  1.00  0.00    -0.050 F  
HETATM   27  C   UNL     1      -6.352  11.725  67.106  1.00  0.00    -0.145 A  
BRANCH  20  28
HETATM   28  C   UNL     1      -8.092  16.305  67.305  1.00  0.00    -0.176 A  
HETATM   29  C   UNL     1      -8.135  16.903  68.570  1.00  0.00    -0.244 A  
HETATM   30  C   UNL     1      -7.849  18.263  68.712  1.00  0.00    -0.277 A  
HETATM   31  C   UNL     1      -7.530  19.034  67.595  1.00  0.00    -0.251 A  
HETATM   32  C   UNL     1      -7.537  18.458  66.327  1.00  0.00    -0.289 A  
HETATM   33  C   UNL     1      -7.840  17.106  66.180  1.00  0.00    -0.303 A  
ENDBRANCH  20  28
ENDBRANCH   1  16
TORSDOF 5
ENDMDL
MODEL      178
REMARK 921   NORMALIZED FREE ENERGY PREDICTED BY IDOCK:   -4.38 KCAL/MOL
REMARK 922        TOTAL FREE ENERGY PREDICTED BY IDOCK:   -5.73 KCAL/MOL
REMARK 923 INTER-LIGAND FREE ENERGY PREDICTED BY IDOCK:   -4.47 KCAL/MOL
REMARK 924 INTRA-LIGAND FREE ENERGY PREDICTED BY IDOCK:   -1.25 KCAL/MOL
REMARK 927      BINDING AFFINITY PREDICTED BY RF-SCORE:    0.00 PKD
ROOT
HETATM    1  C   UNL     1      -7.658   6.732  66.911  1.00  0.00    -0.091 C  
ENDROOT
BRANCH   1   2
HETATM    2  C   UNL     1      -6.209   6.403  66.502  1.00  0.00    -0.037 C  
HETATM    3  C   UNL     1      -5.465   5.468  67.442  1.00  0.00    -0.012 C  
ENDBRANCH   1   2
BRANCH   1   4
HETATM    4  N   UNL     1      -7.716   8.124  67.374  1.00  0.00    -0.100 NA 
HETATM    5  H   UNL     1      -7.031   8.441  68.060  1.00  0.00     0.000 HD 
BRANCH   4   6
HETATM    6  C   UNL     1      -8.663   9.019  66.918  1.00  0.00    -0.123 A  
HETATM    7  C   UNL     1     -10.509  10.502  67.186  1.00  0.00    -0.249 A  
HETATM    8  N   UNL     1     -10.643  10.800  65.887  1.00  0.00    -0.192 NA 
HETATM    9  N   UNL     1      -9.776   9.624  69.150  1.00  0.00    -0.170 NA 
HETATM   10  C   UNL     1      -9.719  10.144  65.162  1.00  0.00    -0.304 A  
HETATM   11  C   UNL     1     -10.819  10.410  69.368  1.00  0.00    -0.248 A  
HETATM   12  H   UNL     1      -9.235   9.103  69.841  1.00  0.00     0.000 HD 
HETATM   13  N   UNL     1      -8.766   9.289  65.589  1.00  0.00    -0.155 NA 
HETATM   14  C   UNL     1      -9.579   9.665  67.779  1.00  0.00    -0.139 A  
HETATM   15  N   UNL     1     -11.287  10.965  68.210  1.00  0.00    -0.290 NA 
ENDBRANCH   4   6
ENDBRANCH   1   4
BRANCH   1  16
HETATM   16  C   UNL     1      -8.204   5.817  68.072  1.00  0.00    -0.104 C  
HETATM   17  O   UNL     1      -9.832   2.668  68.627  1.00  0.00     0.038 OA 
HETATM   18  N   UNL     1      -7.909   6.175  69.292  1.00  0.00    -0.102 NA 
HETATM   19  C   UNL     1      -8.334   5.384  70.364  1.00  0.00    -0.113 A  
HETATM   20  N   UNL     1      -8.907   4.644  67.793  1.00  0.00    -0.104 N  
HETATM   21  C   UNL     1      -9.256   3.741  68.808  1.00  0.00    -0.156 C  
HETATM   22  C   UNL     1      -8.124   5.847  71.669  1.00  0.00    -0.118 A  
HETATM   23  C   UNL     1      -8.952   4.150  70.184  1.00  0.00    -0.150 A  
HETATM   24  C   UNL     1      -8.503   5.079  72.774  1.00  0.00    -0.116 A  
HETATM   25  C   UNL     1      -9.079   3.828  72.582  1.00  0.00    -0.130 A  
HETATM   26  F   UNL     1      -9.858   2.158  71.145  1.00  0.00    -0.209 F  
HETATM   27  C   UNL     1      -9.299   3.367  71.288  1.00  0.00    -0.138 A  
BRANCH  20  28
HETATM   28  C   UNL     1      -9.304   4.280  66.470  1.00  0.00    -0.167 A  
HETATM   29  C   UNL     1      -8.474   3.504  65.651  1.00  0.00    -0.108 A  
HETATM   30  C   UNL     1      -8.911   3.113  64.382  1.00  0.00    -0.104 A  
HETATM   31  C   UNL     1     -10.168   3.503  63.922  1.00  0.00    -0.222 A  
HETATM   32  C   UNL     1     -10.976   4.318  64.710  1.00  0.00    -0.058 A  
HETATM   33  C   UNL     1     -10.537   4.724  65.968  1.00  0.00    -0.300 A  
ENDBRANCH  20  28
ENDBRANCH   1  16
TORSDOF 5
ENDMDL
MODEL      179
REMARK 921   NORMALIZED FREE ENERGY PREDICTED BY IDOCK:   -4.25 KCAL/MOL
REMARK 922        TOTAL FREE ENERGY PREDICTED BY IDOCK:   -5.57 KCAL/MOL
REMARK 923 INTER-LIGAND FREE ENERGY PREDICTED BY IDOCK:   -5.64 KCAL/MOL
REMARK 924 INTRA-LIGAND FREE ENERGY PREDICTED BY IDOCK:    0.08 KCAL/MOL
REMARK 927      BINDING AFFINITY PREDICTED BY RF-SCORE:    0.00 PKD
ROOT
HETATM    1  C   UNL     1     -10.547   9.820  70.186  1.00  0.00    -0.285 C  
ENDROOT
BRANCH   1   2
HETATM    2  C   UNL     1     -12.029   9.814  70.613  1.00  0.00    -0.340 C  
HETATM    3  C   UNL     1     -12.472  11.011  71.438  1.00  0.00    -0.436 C  
ENDBRANCH   1   2
BRANCH   1   4
HETATM    4  N   UNL     1     -10.474   9.919  68.724  1.00  0.00    -0.204 NA 
HETATM    5  H   UNL     1     -10.294   9.073  68.184  1.00  0.00     0.000 HD 
BRANCH   4   6
HETATM    6  C   UNL     1     -10.639  11.113  68.052  1.00  0.00    -0.198 A  
HETATM    7  C   UNL     1     -10.695  12.480  66.100  1.00  0.00    -0.261 A  
HETATM    8  N   UNL     1     -10.916  13.635  66.740  1.00  0.00    -0.290 NA 
HETATM    9  N   UNL     1     -10.339  10.282  65.642  1.00  0.00    -0.211 NA 
HETATM   10  C   UNL     1     -10.988  13.425  68.067  1.00  0.00    -0.244 A  
HETATM   11  C   UNL     1     -10.325  10.984  64.520  1.00  0.00    -0.354 A  
HETATM   12  H   UNL     1     -10.215   9.274  65.746  1.00  0.00     0.000 HD 
HETATM   13  N   UNL     1     -10.860  12.264  68.743  1.00  0.00    -0.232 NA 
HETATM   14  C   UNL     1     -10.559  11.213  66.644  1.00  0.00    -0.264 A  
HETATM   15  N   UNL     1     -10.544  12.314  64.751  1.00  0.00    -0.284 NA 
ENDBRANCH   4   6
ENDBRANCH   1   4
BRANCH   1  16
HETATM   16  C   UNL     1      -9.766   8.521  70.619  1.00  0.00    -0.176 C  
HETATM   17  O   UNL     1      -6.558   6.946  70.303  1.00  0.00    -0.045 OA 
HETATM   18  N   UNL     1     -10.353   7.743  71.487  1.00  0.00    -0.192 NA 
HETATM   19  C   UNL     1      -9.694   6.594  71.938  1.00  0.00    -0.153 A  
HETATM   20  N   UNL     1      -8.480   8.264  70.143  1.00  0.00    -0.124 N  
HETATM   21  C   UNL     1      -7.713   7.201  70.642  1.00  0.00    -0.094 C  
HETATM   22  C   UNL     1     -10.386   5.703  72.767  1.00  0.00    -0.224 A  
HETATM   23  C   UNL     1      -8.376   6.306  71.599  1.00  0.00    -0.129 A  
HETATM   24  C   UNL     1      -9.762   4.556  73.268  1.00  0.00    -0.152 A  
HETATM   25  C   UNL     1      -8.430   4.302  72.959  1.00  0.00    -0.094 A  
HETATM   26  F   UNL     1      -6.461   4.898  71.851  1.00  0.00    -0.026 F  
HETATM   27  C   UNL     1      -7.742   5.179  72.127  1.00  0.00    -0.099 A  
BRANCH  20  28
HETATM   28  C   UNL     1      -7.857   9.063  69.136  1.00  0.00    -0.093 A  
HETATM   29  C   UNL     1      -7.178  10.242  69.462  1.00  0.00    -0.122 A  
HETATM   30  C   UNL     1      -6.528  10.975  68.465  1.00  0.00    -0.054 A  
HETATM   31  C   UNL     1      -6.562  10.541  67.140  1.00  0.00    -0.074 A  
HETATM   32  C   UNL     1      -7.280   9.397  66.801  1.00  0.00    -0.083 A  
HETATM   33  C   UNL     1      -7.944   8.674  67.790  1.00  0.00    -0.107 A  
ENDBRANCH  20  28
ENDBRANCH   1  16
TORSDOF 5
ENDMDL
MODEL      180
REMARK 921   NORMALIZED FREE ENERGY PREDICTED BY IDOCK:   -4.20 KCAL/MOL
REMARK 922        TOTAL FREE ENERGY PREDICTED BY IDOCK:   -5.50 KCAL/MOL
REMARK 923 INTER-LIGAND FREE ENERGY PREDICTED BY IDOCK:   -5.55 KCAL/MOL
REMARK 924 INTRA-LIGAND FREE ENERGY PREDICTED BY IDOCK:    0.05 KCAL/MOL
REMARK 927      BINDING AFFINITY PREDICTED BY RF-SCORE:    0.00 PKD
ROOT
HETATM    1  C   UNL     1     -10.304   8.305  68.351  1.00  0.00    -0.199 C  
ENDROOT
BRANCH   1   2
HETATM    2  C   UNL     1      -9.658   9.635  67.917  1.00  0.00    -0.159 C  
HETATM    3  C   UNL     1      -9.742   9.944  66.431  1.00  0.00    -0.270 C  
ENDBRANCH   1   2
BRANCH   1   4
HETATM    4  N   UNL     1     -10.261   8.211  69.815  1.00  0.00    -0.199 NA 
HETATM    5  H   UNL     1      -9.362   8.049  70.270  1.00  0.00     0.000 HD 
BRANCH   4   6
HETATM    6  C   UNL     1     -11.389   8.333  70.600  1.00  0.00    -0.244 A  
HETATM    7  C   UNL     1     -13.045   9.567  71.791  1.00  0.00    -0.418 A  
HETATM    8  N   UNL     1     -13.683   8.502  72.293  1.00  0.00    -0.354 NA 
HETATM    9  N   UNL     1     -11.582  10.891  70.662  1.00  0.00    -0.408 NA 
HETATM   10  C   UNL     1     -13.089   7.368  71.883  1.00  0.00    -0.245 A  
HETATM   11  C   UNL     1     -12.449  11.640  71.325  1.00  0.00    -0.266 A  
HETATM   12  H   UNL     1     -10.818  11.207  70.065  1.00  0.00     0.000 HD 
HETATM   13  N   UNL     1     -12.005   7.223  71.092  1.00  0.00    -0.314 NA 
HETATM   14  C   UNL     1     -11.938   9.585  70.958  1.00  0.00    -0.328 A  
HETATM   15  N   UNL     1     -13.354  10.880  72.013  1.00  0.00    -0.398 NA 
ENDBRANCH   4   6
ENDBRANCH   1   4
BRANCH   1  16
HETATM   16  C   UNL     1      -9.575   7.035  67.767  1.00  0.00    -0.123 C  
HETATM   17  O   UNL     1      -6.592   5.083  68.174  1.00  0.00    -0.046 OA 
HETATM   18  N   UNL     1     -10.253   6.300  66.929  1.00  0.00    -0.188 NA 
HETATM   19  C   UNL     1      -9.674   5.140  66.404  1.00  0.00    -0.173 A  
HETATM   20  N   UNL     1      -8.292   6.686  68.189  1.00  0.00    -0.117 N  
HETATM   21  C   UNL     1      -7.697   5.475  67.802  1.00  0.00    -0.092 C  
HETATM   22  C   UNL     1     -10.361   4.434  65.409  1.00  0.00    -0.238 A  
HETATM   23  C   UNL     1      -8.443   4.657  66.838  1.00  0.00    -0.105 A  
HETATM   24  C   UNL     1      -9.838   3.252  64.875  1.00  0.00    -0.060 A  
HETATM   25  C   UNL     1      -8.628   2.755  65.349  1.00  0.00    -0.109 A  
HETATM   26  F   UNL     1      -6.774   2.948  66.758  1.00  0.00    -0.037 F  
HETATM   27  C   UNL     1      -7.937   3.459  66.329  1.00  0.00    -0.091 A  
BRANCH  20  28
HETATM   28  C   UNL     1      -7.508   7.519  69.045  1.00  0.00    -0.096 A  
HETATM   29  C   UNL     1      -7.487   7.322  70.430  1.00  0.00    -0.083 A  
HETATM   30  C   UNL     1      -6.668   8.114  71.239  1.00  0.00    -0.046 A  
HETATM   31  C   UNL     1      -5.876   9.111  70.671  1.00  0.00    -0.041 A  
HETATM   32  C   UNL     1      -5.932   9.349  69.300  1.00  0.00    -0.037 A  
HETATM   33  C   UNL     1      -6.761   8.572  68.494  1.00  0.00    -0.060 A  
ENDBRANCH  20  28
ENDBRANCH   1  16
TORSDOF 5
ENDMDL
MODEL      181
REMARK 921   NORMALIZED FREE ENERGY PREDICTED BY IDOCK:   -4.09 KCAL/MOL
REMARK 922        TOTAL FREE ENERGY PREDICTED BY IDOCK:   -5.35 KCAL/MOL
REMARK 923 INTER-LIGAND FREE ENERGY PREDICTED BY IDOCK:   -7.53 KCAL/MOL
REMARK 924 INTRA-LIGAND FREE ENERGY PREDICTED BY IDOCK:    2.18 KCAL/MOL
REMARK 927      BINDING AFFINITY PREDICTED BY RF-SCORE:    0.00 PKD
ROOT
HETATM    1  C   UNL     1      -9.429  12.778  67.726  1.00  0.00    -0.205 C  
ENDROOT
BRANCH   1   2
HETATM    2  C   UNL     1      -9.945  12.566  66.288  1.00  0.00    -0.263 C  
HETATM    3  C   UNL     1     -10.284  13.837  65.527  1.00  0.00    -0.332 C  
ENDBRANCH   1   2
BRANCH   1   4
HETATM    4  N   UNL     1      -8.536  11.668  68.078  1.00  0.00    -0.143 NA 
HETATM    5  H   UNL     1      -8.378  11.460  69.064  1.00  0.00     0.000 HD 
BRANCH   4   6
HETATM    6  C   UNL     1      -7.901  10.895  67.127  1.00  0.00    -0.127 A  
HETATM    7  C   UNL     1      -6.222   9.381  66.373  1.00  0.00    -0.064 A  
HETATM    8  N   UNL     1      -6.593   9.385  65.086  1.00  0.00    -0.077 NA 
HETATM    9  N   UNL     1      -6.116   9.794  68.606  1.00  0.00    -0.042 NA 
HETATM   10  C   UNL     1      -7.654  10.192  64.911  1.00  0.00    -0.138 A  
HETATM   11  C   UNL     1      -5.139   8.975  68.251  1.00  0.00    -0.034 A  
HETATM   12  H   UNL     1      -6.322  10.147  69.540  1.00  0.00     0.000 HD 
HETATM   13  N   UNL     1      -8.310  10.933  65.830  1.00  0.00    -0.159 NA 
HETATM   14  C   UNL     1      -6.797  10.066  67.431  1.00  0.00    -0.082 A  
HETATM   15  N   UNL     1      -5.171   8.694  66.914  1.00  0.00    -0.035 NA 
ENDBRANCH   4   6
ENDBRANCH   1   4
BRANCH   1  16
HETATM   16  C   UNL     1     -10.579  12.829  68.802  1.00  0.00    -0.189 C  
HETATM   17  O   UNL     1     -12.438  10.706  71.018  1.00  0.00    -0.340 OA 
HETATM   18  N   UNL     1     -10.981  14.012  69.179  1.00  0.00    -0.245 NA 
HETATM   19  C   UNL     1     -11.973  14.123  70.159  1.00  0.00    -0.332 A  
HETATM   20  N   UNL     1     -11.085  11.659  69.369  1.00  0.00    -0.233 N  
HETATM   21  C   UNL     1     -11.990  11.696  70.441  1.00  0.00    -0.358 C  
HETATM   22  C   UNL     1     -12.485  15.392  70.459  1.00  0.00    -0.468 A  
HETATM   23  C   UNL     1     -12.466  13.022  70.852  1.00  0.00    -0.396 A  
HETATM   24  C   UNL     1     -13.456  15.559  71.451  1.00  0.00    -0.583 A  
HETATM   25  C   UNL     1     -13.908  14.456  72.168  1.00  0.00    -0.572 A  
HETATM   26  F   UNL     1     -13.873  12.156  72.579  1.00  0.00    -0.475 F  
HETATM   27  C   UNL     1     -13.411  13.192  71.867  1.00  0.00    -0.455 A  
BRANCH  20  28
HETATM   28  C   UNL     1     -10.712  10.357  68.913  1.00  0.00    -0.224 A  
HETATM   29  C   UNL     1     -11.136   9.875  67.669  1.00  0.00    -0.170 A  
HETATM   30  C   UNL     1     -10.711   8.621  67.222  1.00  0.00    -0.209 A  
HETATM   31  C   UNL     1      -9.871   7.841  68.016  1.00  0.00    -0.192 A  
HETATM   32  C   UNL     1      -9.488   8.292  69.277  1.00  0.00    -0.155 A  
HETATM   33  C   UNL     1      -9.925   9.534  69.733  1.00  0.00    -0.234 A  
ENDBRANCH  20  28
ENDBRANCH   1  16
TORSDOF 5
ENDMDL
MODEL      182
REMARK 921   NORMALIZED FREE ENERGY PREDICTED BY IDOCK:   -3.89 KCAL/MOL
REMARK 922        TOTAL FREE ENERGY PREDICTED BY IDOCK:   -5.10 KCAL/MOL
REMARK 923 INTER-LIGAND FREE ENERGY PREDICTED BY IDOCK:   -4.22 KCAL/MOL
REMARK 924 INTRA-LIGAND FREE ENERGY PREDICTED BY IDOCK:   -0.88 KCAL/MOL
REMARK 927      BINDING AFFINITY PREDICTED BY RF-SCORE:    0.00 PKD
ROOT
HETATM    1  C   UNL     1     -10.404   8.117  70.172  1.00  0.00    -0.215 C  
ENDROOT
BRANCH   1   2
HETATM    2  C   UNL     1     -11.156   9.104  71.086  1.00  0.00    -0.393 C  
HETATM    3  C   UNL     1     -12.105  10.055  70.374  1.00  0.00    -0.284 C  
ENDBRANCH   1   2
BRANCH   1   4
HETATM    4  N   UNL     1      -9.654   7.172  71.008  1.00  0.00    -0.159 NA 
HETATM    5  H   UNL     1      -9.787   6.172  70.856  1.00  0.00     0.000 HD 
BRANCH   4   6
HETATM    6  C   UNL     1      -8.778   7.584  71.991  1.00  0.00    -0.111 A  
HETATM    7  C   UNL     1      -6.633   8.211  72.820  1.00  0.00    -0.085 A  
HETATM    8  N   UNL     1      -7.010   8.358  74.096  1.00  0.00    -0.187 NA 
HETATM    9  N   UNL     1      -6.644   7.809  70.582  1.00  0.00    -0.038 NA 
HETATM   10  C   UNL     1      -8.322   8.093  74.227  1.00  0.00    -0.190 A  
HETATM   11  C   UNL     1      -5.420   8.119  70.979  1.00  0.00    -0.029 A  
HETATM   12  H   UNL     1      -6.953   7.588  69.636  1.00  0.00     0.000 HD 
HETATM   13  N   UNL     1      -9.204   7.718  73.276  1.00  0.00    -0.230 NA 
HETATM   14  C   UNL     1      -7.414   7.852  71.734  1.00  0.00    -0.074 A  
HETATM   15  N   UNL     1      -5.371   8.376  72.321  1.00  0.00    -0.037 NA 
ENDBRANCH   4   6
ENDBRANCH   1   4
BRANCH   1  16
HETATM   16  C   UNL     1      -9.378   8.818  69.203  1.00  0.00    -0.149 C  
HETATM   17  O   UNL     1      -7.907   8.467  65.949  1.00  0.00    -0.090 OA 
HETATM   18  N   UNL     1      -8.947   9.999  69.555  1.00  0.00    -0.198 NA 
HETATM   19  C   UNL     1      -8.063  10.688  68.719  1.00  0.00    -0.139 A  
HETATM   20  N   UNL     1      -9.010   8.226  67.994  1.00  0.00    -0.138 N  
HETATM   21  C   UNL     1      -8.228   8.910  67.051  1.00  0.00    -0.106 C  
HETATM   22  C   UNL     1      -7.509  11.893  69.170  1.00  0.00     0.066 A  
HETATM   23  C   UNL     1      -7.718  10.227  67.452  1.00  0.00    -0.095 A  
HETATM   24  C   UNL     1      -6.644  12.635  68.359  1.00  0.00    -0.081 A  
HETATM   25  C   UNL     1      -6.342  12.185  67.078  1.00  0.00    -0.096 A  
HETATM   26  F   UNL     1      -6.564  10.584  65.390  1.00  0.00    -0.111 F  
HETATM   27  C   UNL     1      -6.881  10.984  66.629  1.00  0.00    -0.137 A  
BRANCH  20  28
HETATM   28  C   UNL     1      -9.411   6.904  67.630  1.00  0.00    -0.123 A  
HETATM   29  C   UNL     1     -10.661   6.658  67.050  1.00  0.00    -0.404 A  
HETATM   30  C   UNL     1     -11.005   5.364  66.651  1.00  0.00    -0.074 A  
HETATM   31  C   UNL     1     -10.111   4.311  66.838  1.00  0.00    -0.097 A  
HETATM   32  C   UNL     1      -8.888   4.539  67.463  1.00  0.00    -0.115 A  
HETATM   33  C   UNL     1      -8.549   5.825  67.878  1.00  0.00    -0.101 A  
ENDBRANCH  20  28
ENDBRANCH   1  16
TORSDOF 5
ENDMDL
MODEL      183
REMARK 921   NORMALIZED FREE ENERGY PREDICTED BY IDOCK:   -3.88 KCAL/MOL
REMARK 922        TOTAL FREE ENERGY PREDICTED BY IDOCK:   -5.08 KCAL/MOL
REMARK 923 INTER-LIGAND FREE ENERGY PREDICTED BY IDOCK:   -4.80 KCAL/MOL
REMARK 924 INTRA-LIGAND FREE ENERGY PREDICTED BY IDOCK:   -0.28 KCAL/MOL
REMARK 927      BINDING AFFINITY PREDICTED BY RF-SCORE:    0.00 PKD
ROOT
HETATM    1  C   UNL     1     -10.214   7.501  70.298  1.00  0.00    -0.204 C  
ENDROOT
BRANCH   1   2
HETATM    2  C   UNL     1     -11.374   8.516  70.333  1.00  0.00    -0.193 C  
HETATM    3  C   UNL     1     -11.273   9.581  71.413  1.00  0.00    -0.452 C  
ENDBRANCH   1   2
BRANCH   1   4
HETATM    4  N   UNL     1      -9.012   8.135  70.854  1.00  0.00    -0.142 NA 
HETATM    5  H   UNL     1      -8.922   9.149  70.796  1.00  0.00     0.000 HD 
BRANCH   4   6
HETATM    6  C   UNL     1      -8.001   7.411  71.452  1.00  0.00    -0.096 A  
HETATM    7  C   UNL     1      -7.060   6.085  73.195  1.00  0.00    -0.085 A  
HETATM    8  N   UNL     1      -5.834   5.999  72.663  1.00  0.00    -0.036 NA 
HETATM    9  N   UNL     1      -9.251   6.586  73.536  1.00  0.00    -0.131 NA 
HETATM   10  C   UNL     1      -5.786   6.665  71.496  1.00  0.00    -0.036 A  
HETATM   11  C   UNL     1      -8.786   5.879  74.553  1.00  0.00    -0.126 A  
HETATM   12  H   UNL     1     -10.198   6.945  73.410  1.00  0.00     0.000 HD 
HETATM   13  N   UNL     1      -6.768   7.353  70.878  1.00  0.00    -0.043 NA 
HETATM   14  C   UNL     1      -8.171   6.733  72.680  1.00  0.00    -0.107 A  
HETATM   15  N   UNL     1      -7.470   5.549  74.383  1.00  0.00    -0.088 NA 
ENDBRANCH   4   6
ENDBRANCH   1   4
BRANCH   1  16
HETATM   16  C   UNL     1      -9.864   6.999  68.846  1.00  0.00    -0.150 C  
HETATM   17  O   UNL     1      -8.828   8.219  65.634  1.00  0.00    -0.165 OA 
HETATM   18  N   UNL     1      -9.772   5.709  68.675  1.00  0.00    -0.130 NA 
HETATM   19  C   UNL     1      -9.428   5.203  67.417  1.00  0.00    -0.132 A  
HETATM   20  N   UNL     1      -9.598   7.904  67.818  1.00  0.00    -0.144 N  
HETATM   21  C   UNL     1      -9.128   7.474  66.567  1.00  0.00    -0.166 C  
HETATM   22  C   UNL     1      -9.460   3.818  67.216  1.00  0.00    -0.238 A  
HETATM   23  C   UNL     1      -9.048   6.023  66.360  1.00  0.00    -0.159 A  
HETATM   24  C   UNL     1      -9.096   3.261  65.986  1.00  0.00    -0.151 A  
HETATM   25  C   UNL     1      -8.675   4.088  64.951  1.00  0.00    -0.118 A  
HETATM   26  F   UNL     1      -8.241   6.229  64.120  1.00  0.00    -0.123 F  
HETATM   27  C   UNL     1      -8.651   5.466  65.142  1.00  0.00    -0.149 A  
BRANCH  20  28
HETATM   28  C   UNL     1      -9.769   9.314  67.968  1.00  0.00    -0.150 A  
HETATM   29  C   UNL     1      -8.739  10.122  68.462  1.00  0.00    -0.123 A  
HETATM   30  C   UNL     1      -8.913  11.506  68.545  1.00  0.00    -0.146 A  
HETATM   31  C   UNL     1     -10.116  12.087  68.147  1.00  0.00    -0.200 A  
HETATM   32  C   UNL     1     -11.164  11.285  67.704  1.00  0.00    -0.357 A  
HETATM   33  C   UNL     1     -11.000   9.903  67.637  1.00  0.00    -0.263 A  
ENDBRANCH  20  28
ENDBRANCH   1  16
TORSDOF 5
ENDMDL
MODEL      184
REMARK 921   NORMALIZED FREE ENERGY PREDICTED BY IDOCK:   -3.85 KCAL/MOL
REMARK 922        TOTAL FREE ENERGY PREDICTED BY IDOCK:   -5.04 KCAL/MOL
REMARK 923 INTER-LIGAND FREE ENERGY PREDICTED BY IDOCK:   -5.35 KCAL/MOL
REMARK 924 INTRA-LIGAND FREE ENERGY PREDICTED BY IDOCK:    0.31 KCAL/MOL
REMARK 927      BINDING AFFINITY PREDICTED BY RF-SCORE:    0.00 PKD
ROOT
HETATM    1  C   UNL     1     -10.268   8.656  70.990  1.00  0.00    -0.220 C  
ENDROOT
BRANCH   1   2
HETATM    2  C   UNL     1     -10.772   9.245  69.658  1.00  0.00    -0.244 C  
HETATM    3  C   UNL     1     -10.209  10.611  69.298  1.00  0.00    -0.235 C  
ENDBRANCH   1   2
BRANCH   1   4
HETATM    4  N   UNL     1      -8.896   9.121  71.226  1.00  0.00    -0.309 NA 
HETATM    5  H   UNL     1      -8.530   9.879  70.650  1.00  0.00     0.000 HD 
BRANCH   4   6
HETATM    6  C   UNL     1      -8.083   8.572  72.197  1.00  0.00    -0.101 A  
HETATM    7  C   UNL     1      -6.198   7.326  72.957  1.00  0.00    -0.056 A  
HETATM    8  N   UNL     1      -6.495   7.399  74.260  1.00  0.00    -0.081 NA 
HETATM    9  N   UNL     1      -6.259   7.569  70.697  1.00  0.00    -0.034 NA 
HETATM   10  C   UNL     1      -7.630   8.096  74.441  1.00  0.00    -0.219 A  
HETATM   11  C   UNL     1      -5.208   6.842  71.045  1.00  0.00    -0.023 A  
HETATM   12  H   UNL     1      -6.537   7.846  69.756  1.00  0.00     0.000 HD 
HETATM   13  N   UNL     1      -8.425   8.667  73.511  1.00  0.00    -0.337 NA 
HETATM   14  C   UNL     1      -6.896   7.869  71.890  1.00  0.00    -0.064 A  
HETATM   15  N   UNL     1      -5.131   6.678  72.400  1.00  0.00    -0.031 NA 
ENDBRANCH   4   6
ENDBRANCH   1   4
BRANCH   1  16
HETATM   16  C   UNL     1     -10.250   7.080  71.011  1.00  0.00    -0.196 C  
HETATM   17  O   UNL     1      -9.139   4.265  69.084  1.00  0.00    -0.105 OA 
HETATM   18  N   UNL     1     -10.640   6.501  72.114  1.00  0.00    -0.210 NA 
HETATM   19  C   UNL     1     -10.612   5.106  72.207  1.00  0.00    -0.218 A  
HETATM   20  N   UNL     1      -9.772   6.352  69.921  1.00  0.00    -0.165 N  
HETATM   21  C   UNL     1      -9.600   4.961  69.988  1.00  0.00    -0.191 C  
HETATM   22  C   UNL     1     -11.154   4.496  73.345  1.00  0.00    -0.408 A  
HETATM   23  C   UNL     1     -10.060   4.301  71.216  1.00  0.00    -0.178 A  
HETATM   24  C   UNL     1     -11.123   3.106  73.500  1.00  0.00    -0.316 A  
HETATM   25  C   UNL     1     -10.529   2.315  72.522  1.00  0.00    -0.187 A  
HETATM   26  F   UNL     1      -9.437   2.119  70.465  1.00  0.00    -0.170 F  
HETATM   27  C   UNL     1      -9.999   2.916  71.384  1.00  0.00     0.002 A  
BRANCH  20  28
HETATM   28  C   UNL     1      -9.416   6.965  68.681  1.00  0.00    -0.134 A  
HETATM   29  C   UNL     1     -10.367   7.175  67.675  1.00  0.00    -0.276 A  
HETATM   30  C   UNL     1     -10.004   7.829  66.494  1.00  0.00    -0.244 A  
HETATM   31  C   UNL     1      -8.694   8.264  66.308  1.00  0.00    -0.173 A  
HETATM   32  C   UNL     1      -7.730   8.012  67.281  1.00  0.00    -0.101 A  
HETATM   33  C   UNL     1      -8.084   7.345  68.452  1.00  0.00    -0.125 A  
ENDBRANCH  20  28
ENDBRANCH   1  16
TORSDOF 5
ENDMDL
MODEL      185
REMARK 921   NORMALIZED FREE ENERGY PREDICTED BY IDOCK:   -3.82 KCAL/MOL
REMARK 922        TOTAL FREE ENERGY PREDICTED BY IDOCK:   -5.00 KCAL/MOL
REMARK 923 INTER-LIGAND FREE ENERGY PREDICTED BY IDOCK:   -4.82 KCAL/MOL
REMARK 924 INTRA-LIGAND FREE ENERGY PREDICTED BY IDOCK:   -0.18 KCAL/MOL
REMARK 927      BINDING AFFINITY PREDICTED BY RF-SCORE:    0.00 PKD
ROOT
HETATM    1  C   UNL     1     -10.545   5.513  70.023  1.00  0.00    -0.314 C  
ENDROOT
BRANCH   1   2
HETATM    2  C   UNL     1     -11.758   6.456  69.902  1.00  0.00    -0.309 C  
HETATM    3  C   UNL     1     -12.172   7.149  71.189  1.00  0.00    -0.405 C  
ENDBRANCH   1   2
BRANCH   1   4
HETATM    4  N   UNL     1      -9.597   6.080  70.990  1.00  0.00    -0.171 NA 
HETATM    5  H   UNL     1      -9.444   7.089  70.991  1.00  0.00     0.000 HD 
BRANCH   4   6
HETATM    6  C   UNL     1      -8.905   5.302  71.895  1.00  0.00    -0.135 A  
HETATM    7  C   UNL     1      -8.738   3.696  73.649  1.00  0.00    -0.089 A  
HETATM    8  N   UNL     1      -7.411   3.784  73.797  1.00  0.00    -0.066 NA 
HETATM    9  N   UNL     1     -10.869   4.005  72.918  1.00  0.00    -0.140 NA 
HETATM   10  C   UNL     1      -6.904   4.677  72.929  1.00  0.00    -0.069 A  
HETATM   11  C   UNL     1     -10.854   3.128  73.910  1.00  0.00    -0.212 A  
HETATM   12  H   UNL     1     -11.679   4.333  72.392  1.00  0.00     0.000 HD 
HETATM   13  N   UNL     1      -7.555   5.426  72.015  1.00  0.00    -0.097 NA 
HETATM   14  C   UNL     1      -9.545   4.378  72.753  1.00  0.00    -0.134 A  
HETATM   15  N   UNL     1      -9.587   2.908  74.375  1.00  0.00    -0.087 NA 
ENDBRANCH   4   6
ENDBRANCH   1   4
BRANCH   1  16
HETATM   16  C   UNL     1      -9.776   5.304  68.663  1.00  0.00    -0.145 C  
HETATM   17  O   UNL     1      -7.863   7.106  66.220  1.00  0.00    -0.100 OA 
HETATM   18  N   UNL     1      -9.617   4.072  68.260  1.00  0.00    -0.152 NA 
HETATM   19  C   UNL     1      -8.911   3.820  67.079  1.00  0.00    -0.143 A  
HETATM   20  N   UNL     1      -9.234   6.386  67.970  1.00  0.00    -0.112 N  
HETATM   21  C   UNL     1      -8.412   6.200  66.849  1.00  0.00    -0.105 C  
HETATM   22  C   UNL     1      -8.861   2.508  66.592  1.00  0.00    -0.140 A  
HETATM   23  C   UNL     1      -8.251   4.821  66.374  1.00  0.00    -0.107 A  
HETATM   24  C   UNL     1      -8.143   2.199  65.432  1.00  0.00    -0.080 A  
HETATM   25  C   UNL     1      -7.450   3.201  64.761  1.00  0.00    -0.075 A  
HETATM   26  F   UNL     1      -6.826   5.443  64.559  1.00  0.00    -0.043 F  
HETATM   27  C   UNL     1      -7.505   4.507  65.235  1.00  0.00    -0.077 A  
BRANCH  20  28
HETATM   28  C   UNL     1      -9.465   7.742  68.356  1.00  0.00    -0.147 A  
HETATM   29  C   UNL     1     -10.503   8.492  67.790  1.00  0.00    -0.287 A  
HETATM   30  C   UNL     1     -10.743   9.797  68.226  1.00  0.00    -0.277 A  
HETATM   31  C   UNL     1      -9.944  10.363  69.219  1.00  0.00    -0.246 A  
HETATM   32  C   UNL     1      -8.877   9.643  69.749  1.00  0.00    -0.224 A  
HETATM   33  C   UNL     1      -8.624   8.347  69.303  1.00  0.00    -0.130 A  
ENDBRANCH  20  28
ENDBRANCH   1  16
TORSDOF 5
ENDMDL
MODEL      186
REMARK 921   NORMALIZED FREE ENERGY PREDICTED BY IDOCK:   -3.72 KCAL/MOL
REMARK 922        TOTAL FREE ENERGY PREDICTED BY IDOCK:   -4.87 KCAL/MOL
REMARK 923 INTER-LIGAND FREE ENERGY PREDICTED BY IDOCK:   -6.25 KCAL/MOL
REMARK 924 INTRA-LIGAND FREE ENERGY PREDICTED BY IDOCK:    1.38 KCAL/MOL
REMARK 927      BINDING AFFINITY PREDICTED BY RF-SCORE:    0.00 PKD
ROOT
HETATM    1  C   UNL     1      -8.526  13.000  67.271  1.00  0.00    -0.199 C  
ENDROOT
BRANCH   1   2
HETATM    2  C   UNL     1      -8.994  14.412  67.674  1.00  0.00    -0.192 C  
HETATM    3  C   UNL     1      -7.933  15.498  67.587  1.00  0.00    -0.168 C  
ENDBRANCH   1   2
BRANCH   1   4
HETATM    4  N   UNL     1      -8.856  12.776  65.858  1.00  0.00    -0.236 NA 
HETATM    5  H   UNL     1      -8.096  12.622  65.196  1.00  0.00     0.000 HD 
BRANCH   4   6
HETATM    6  C   UNL     1     -10.155  12.766  65.392  1.00  0.00    -0.259 A  
HETATM    7  C   UNL     1     -12.108  13.781  64.477  1.00  0.00    -0.428 A  
HETATM    8  N   UNL     1     -12.873  12.683  64.518  1.00  0.00    -0.745 NA 
HETATM    9  N   UNL     1     -10.356  15.218  64.662  1.00  0.00    -0.486 NA 
HETATM   10  C   UNL     1     -12.175  11.649  65.023  1.00  0.00     0.497 A  
HETATM   11  C   UNL     1     -11.412  15.854  64.180  1.00  0.00    -0.052 A  
HETATM   12  H   UNL     1      -9.429  15.604  64.844  1.00  0.00     0.000 HD 
HETATM   13  N   UNL     1     -10.897  11.627  65.456  1.00  0.00    -0.287 NA 
HETATM   14  C   UNL     1     -10.785  13.916  64.864  1.00  0.00    -0.410 A  
HETATM   15  N   UNL     1     -12.488  15.021  64.045  1.00  0.00    -0.774 NA 
ENDBRANCH   4   6
ENDBRANCH   1   4
BRANCH   1  16
HETATM   16  C   UNL     1      -9.204  11.852  68.110  1.00  0.00    -0.187 C  
HETATM   17  O   UNL     1     -12.162  11.146  70.015  1.00  0.00    -0.311 OA 
HETATM   18  N   UNL     1      -8.640  10.676  68.062  1.00  0.00    -0.120 NA 
HETATM   19  C   UNL     1      -9.215   9.607  68.757  1.00  0.00    -0.141 A  
HETATM   20  N   UNL     1     -10.390  12.077  68.809  1.00  0.00    -0.198 N  
HETATM   21  C   UNL     1     -11.088  11.027  69.425  1.00  0.00    -0.262 C  
HETATM   22  C   UNL     1      -8.530   8.387  68.803  1.00  0.00    -0.124 A  
HETATM   23  C   UNL     1     -10.446   9.707  69.398  1.00  0.00    -0.236 A  
HETATM   24  C   UNL     1      -9.078   7.279  69.458  1.00  0.00    -0.143 A  
HETATM   25  C   UNL     1     -10.329   7.379  70.057  1.00  0.00    -0.224 A  
HETATM   26  F   UNL     1     -12.211   8.649  70.613  1.00  0.00    -0.230 F  
HETATM   27  C   UNL     1     -11.009   8.592  70.023  1.00  0.00    -0.203 A  
BRANCH  20  28
HETATM   28  C   UNL     1     -10.977  13.374  68.935  1.00  0.00    -0.248 A  
HETATM   29  C   UNL     1     -11.966  13.812  68.046  1.00  0.00    -0.390 A  
HETATM   30  C   UNL     1     -12.564  15.062  68.226  1.00  0.00     0.679 A  
HETATM   31  C   UNL     1     -12.172  15.882  69.282  1.00  0.00    -0.051 A  
HETATM   32  C   UNL     1     -11.152  15.475  70.138  1.00  0.00    -0.337 A  
HETATM   33  C   UNL     1     -10.541  14.237  69.952  1.00  0.00     0.211 A  
ENDBRANCH  20  28
ENDBRANCH   1  16
TORSDOF 5
ENDMDL
MODEL      187
REMARK 921   NORMALIZED FREE ENERGY PREDICTED BY IDOCK:   -3.59 KCAL/MOL
REMARK 922        TOTAL FREE ENERGY PREDICTED BY IDOCK:   -4.70 KCAL/MOL
REMARK 923 INTER-LIGAND FREE ENERGY PREDICTED BY IDOCK:   -4.14 KCAL/MOL
REMARK 924 INTRA-LIGAND FREE ENERGY PREDICTED BY IDOCK:   -0.57 KCAL/MOL
REMARK 927      BINDING AFFINITY PREDICTED BY RF-SCORE:    0.00 PKD
ROOT
HETATM    1  C   UNL     1      -7.469   5.964  67.086  1.00  0.00    -0.084 C  
ENDROOT
BRANCH   1   2
HETATM    2  C   UNL     1      -6.013   5.539  66.813  1.00  0.00    -0.019 C  
HETATM    3  C   UNL     1      -5.830   4.540  65.682  1.00  0.00    -0.022 C  
ENDBRANCH   1   2
BRANCH   1   4
HETATM    4  N   UNL     1      -7.476   7.350  67.571  1.00  0.00    -0.098 NA 
HETATM    5  H   UNL     1      -6.868   7.599  68.351  1.00  0.00     0.000 HD 
BRANCH   4   6
HETATM    6  C   UNL     1      -8.275   8.327  67.013  1.00  0.00    -0.104 A  
HETATM    7  C   UNL     1      -9.097   9.645  65.205  1.00  0.00    -0.218 A  
HETATM    8  N   UNL     1      -9.898  10.420  65.946  1.00  0.00    -0.221 NA 
HETATM    9  N   UNL     1      -7.613   8.053  64.549  1.00  0.00    -0.106 NA 
HETATM   10  C   UNL     1      -9.822  10.066  67.241  1.00  0.00    -0.181 A  
HETATM   11  C   UNL     1      -8.002   8.765  63.504  1.00  0.00    -0.158 A  
HETATM   12  H   UNL     1      -6.960   7.269  64.558  1.00  0.00     0.000 HD 
HETATM   13  N   UNL     1      -9.072   9.095  67.805  1.00  0.00    -0.127 NA 
HETATM   14  C   UNL     1      -8.286   8.604  65.627  1.00  0.00    -0.123 A  
HETATM   15  N   UNL     1      -8.903   9.732  63.855  1.00  0.00    -0.218 NA 
ENDBRANCH   4   6
ENDBRANCH   1   4
BRANCH   1  16
HETATM   16  C   UNL     1      -8.189   5.073  68.168  1.00  0.00    -0.096 C  
HETATM   17  O   UNL     1      -9.811   1.896  68.553  1.00  0.00    -0.069 OA 
HETATM   18  N   UNL     1      -8.124   5.483  69.406  1.00  0.00    -0.094 NA 
HETATM   19  C   UNL     1      -8.712   4.716  70.417  1.00  0.00    -0.089 A  
HETATM   20  N   UNL     1      -8.802   3.870  67.816  1.00  0.00    -0.107 N  
HETATM   21  C   UNL     1      -9.303   2.992  68.789  1.00  0.00    -0.168 C  
HETATM   22  C   UNL     1      -8.748   5.231  71.718  1.00  0.00    -0.139 A  
HETATM   23  C   UNL     1      -9.257   3.458  70.181  1.00  0.00    -0.225 A  
HETATM   24  C   UNL     1      -9.298   4.491  72.770  1.00  0.00    -0.149 A  
HETATM   25  C   UNL     1      -9.799   3.216  72.529  1.00  0.00    -0.218 A  
HETATM   26  F   UNL     1     -10.269   1.473  71.045  1.00  0.00    -0.170 F  
HETATM   27  C   UNL     1      -9.775   2.704  71.236  1.00  0.00    -0.132 A  
BRANCH  20  28
HETATM   28  C   UNL     1      -8.949   3.447  66.460  1.00  0.00    -0.150 A  
HETATM   29  C   UNL     1      -9.564   4.267  65.507  1.00  0.00    -0.188 A  
HETATM   30  C   UNL     1      -9.644   3.853  64.174  1.00  0.00    -0.165 A  
HETATM   31  C   UNL     1      -9.121   2.619  63.790  1.00  0.00    -0.099 A  
HETATM   32  C   UNL     1      -8.555   1.776  64.743  1.00  0.00    -0.097 A  
HETATM   33  C   UNL     1      -8.490   2.178  66.075  1.00  0.00    -0.102 A  
ENDBRANCH  20  28
ENDBRANCH   1  16
TORSDOF 5
ENDMDL
MODEL      188
REMARK 921   NORMALIZED FREE ENERGY PREDICTED BY IDOCK:   -3.48 KCAL/MOL
REMARK 922        TOTAL FREE ENERGY PREDICTED BY IDOCK:   -4.57 KCAL/MOL
REMARK 923 INTER-LIGAND FREE ENERGY PREDICTED BY IDOCK:   -3.44 KCAL/MOL
REMARK 924 INTRA-LIGAND FREE ENERGY PREDICTED BY IDOCK:   -1.13 KCAL/MOL
REMARK 927      BINDING AFFINITY PREDICTED BY RF-SCORE:    0.00 PKD
ROOT
HETATM    1  C   UNL     1      -7.199   6.880  66.129  1.00  0.00    -0.074 C  
ENDROOT
BRANCH   1   2
HETATM    2  C   UNL     1      -5.823   6.373  65.652  1.00  0.00    -0.025 C  
HETATM    3  C   UNL     1      -5.833   5.014  64.971  1.00  0.00    -0.017 C  
ENDBRANCH   1   2
BRANCH   1   4
HETATM    4  N   UNL     1      -7.202   8.348  66.096  1.00  0.00    -0.076 NA 
HETATM    5  H   UNL     1      -6.372   8.846  66.419  1.00  0.00     0.000 HD 
BRANCH   4   6
HETATM    6  C   UNL     1      -8.283   9.078  65.647  1.00  0.00    -0.119 A  
HETATM    7  C   UNL     1      -9.430  10.459  64.079  1.00  0.00    -0.299 A  
HETATM    8  N   UNL     1     -10.529  10.637  64.822  1.00  0.00    -0.287 NA 
HETATM    9  N   UNL     1      -7.385   9.785  63.349  1.00  0.00    -0.120 NA 
HETATM   10  C   UNL     1     -10.412   9.980  65.990  1.00  0.00    -0.074 A  
HETATM   11  C   UNL     1      -7.949  10.572  62.447  1.00  0.00    -0.175 A  
HETATM   12  H   UNL     1      -6.474   9.329  63.293  1.00  0.00     0.000 HD 
HETATM   13  N   UNL     1      -9.379   9.236  66.438  1.00  0.00    -0.176 NA 
HETATM   14  C   UNL     1      -8.301   9.716  64.386  1.00  0.00    -0.168 A  
HETATM   15  N   UNL     1      -9.187  10.994  62.845  1.00  0.00    -0.316 NA 
ENDBRANCH   4   6
ENDBRANCH   1   4
BRANCH   1  16
HETATM   16  C   UNL     1      -7.557   6.432  67.597  1.00  0.00    -0.101 C  
HETATM   17  O   UNL     1      -9.157   3.778  69.405  1.00  0.00    -0.103 OA 
HETATM   18  N   UNL     1      -7.038   7.132  68.569  1.00  0.00    -0.079 NA 
HETATM   19  C   UNL     1      -7.290   6.762  69.894  1.00  0.00    -0.089 A  
HETATM   20  N   UNL     1      -8.335   5.298  67.833  1.00  0.00    -0.099 N  
HETATM   21  C   UNL     1      -8.525   4.798  69.130  1.00  0.00    -0.080 C  
HETATM   22  C   UNL     1      -6.835   7.595  70.924  1.00  0.00    -0.042 A  
HETATM   23  C   UNL     1      -7.967   5.594  70.229  1.00  0.00    -0.103 A  
HETATM   24  C   UNL     1      -7.035   7.254  72.266  1.00  0.00    -0.063 A  
HETATM   25  C   UNL     1      -7.674   6.062  72.588  1.00  0.00    -0.100 A  
HETATM   26  F   UNL     1      -8.749   4.097  71.921  1.00  0.00    -0.102 F  
HETATM   27  C   UNL     1      -8.137   5.236  71.569  1.00  0.00    -0.116 A  
BRANCH  20  28
HETATM   28  C   UNL     1      -8.972   4.568  66.783  1.00  0.00    -0.115 A  
HETATM   29  C   UNL     1      -8.556   3.277  66.440  1.00  0.00    -0.121 A  
HETATM   30  C   UNL     1      -9.234   2.563  65.448  1.00  0.00    -0.096 A  
HETATM   31  C   UNL     1     -10.320   3.137  64.789  1.00  0.00     0.229 A  
HETATM   32  C   UNL     1     -10.706   4.441  65.087  1.00  0.00    -0.144 A  
HETATM   33  C   UNL     1     -10.021   5.162  66.063  1.00  0.00    -0.187 A  
ENDBRANCH  20  28
ENDBRANCH   1  16
TORSDOF 5
ENDMDL
MODEL      189
REMARK 921   NORMALIZED FREE ENERGY PREDICTED BY IDOCK:   -3.48 KCAL/MOL
REMARK 922        TOTAL FREE ENERGY PREDICTED BY IDOCK:   -4.57 KCAL/MOL
REMARK 923 INTER-LIGAND FREE ENERGY PREDICTED BY IDOCK:   -5.90 KCAL/MOL
REMARK 924 INTRA-LIGAND FREE ENERGY PREDICTED BY IDOCK:    1.33 KCAL/MOL
REMARK 927      BINDING AFFINITY PREDICTED BY RF-SCORE:    0.00 PKD
ROOT
HETATM    1  C   UNL     1     -11.045  10.107  68.125  1.00  0.00    -0.230 C  
ENDROOT
BRANCH   1   2
HETATM    2  C   UNL     1     -11.509   9.142  69.235  1.00  0.00     0.369 C  
HETATM    3  C   UNL     1     -11.930   9.805  70.536  1.00  0.00    -0.282 C  
ENDBRANCH   1   2
BRANCH   1   4
HETATM    4  N   UNL     1      -9.597   9.952  67.937  1.00  0.00    -0.138 NA 
HETATM    5  H   UNL     1      -9.219   9.988  66.990  1.00  0.00     0.000 HD 
BRANCH   4   6
HETATM    6  C   UNL     1      -8.728   9.759  68.991  1.00  0.00    -0.148 A  
HETATM    7  C   UNL     1      -6.984  10.420  70.476  1.00  0.00     0.112 A  
HETATM    8  N   UNL     1      -6.905   9.256  71.131  1.00  0.00    -0.202 NA 
HETATM    9  N   UNL     1      -7.604  12.066  69.035  1.00  0.00    -0.319 NA 
HETATM   10  C   UNL     1      -7.799   8.382  70.636  1.00  0.00    -0.092 A  
HETATM   11  C   UNL     1      -6.614  12.489  69.804  1.00  0.00     0.057 A  
HETATM   12  H   UNL     1      -8.089  12.587  68.304  1.00  0.00     0.000 HD 
HETATM   13  N   UNL     1      -8.678   8.557  69.627  1.00  0.00    -0.131 NA 
HETATM   14  C   UNL     1      -7.838  10.762  69.440  1.00  0.00    -0.087 A  
HETATM   15  N   UNL     1      -6.215  11.530  70.693  1.00  0.00    -0.292 NA 
ENDBRANCH   4   6
ENDBRANCH   1   4
BRANCH   1  16
HETATM   16  C   UNL     1     -11.327  11.622  68.454  1.00  0.00    -0.279 C  
HETATM   17  O   UNL     1     -11.960  14.767  66.847  1.00  0.00    -0.334 OA 
HETATM   18  N   UNL     1     -11.542  11.922  69.706  1.00  0.00    -0.300 NA 
HETATM   19  C   UNL     1     -11.834  13.245  70.057  1.00  0.00    -0.295 A  
HETATM   20  N   UNL     1     -11.410  12.574  67.438  1.00  0.00    -0.293 N  
HETATM   21  C   UNL     1     -11.819  13.891  67.700  1.00  0.00    -0.386 C  
HETATM   22  C   UNL     1     -11.934  13.575  71.414  1.00  0.00     0.273 A  
HETATM   23  C   UNL     1     -12.037  14.243  69.109  1.00  0.00    -0.337 A  
HETATM   24  C   UNL     1     -12.254  14.876  71.815  1.00  0.00    -0.416 A  
HETATM   25  C   UNL     1     -12.497  15.855  70.857  1.00  0.00    -0.352 A  
HETATM   26  F   UNL     1     -12.630  16.505  68.616  1.00  0.00     0.362 F  
HETATM   27  C   UNL     1     -12.389  15.534  69.508  1.00  0.00    -0.153 A  
BRANCH  20  28
HETATM   28  C   UNL     1     -11.101  12.277  66.075  1.00  0.00    -0.309 A  
HETATM   29  C   UNL     1      -9.783  12.048  65.663  1.00  0.00    -0.241 A  
HETATM   30  C   UNL     1      -9.515  11.702  64.336  1.00  0.00    -0.050 A  
HETATM   31  C   UNL     1     -10.556  11.596  63.414  1.00  0.00    -0.472 A  
HETATM   32  C   UNL     1     -11.863  11.875  63.805  1.00  0.00    -0.558 A  
HETATM   33  C   UNL     1     -12.132  12.236  65.123  1.00  0.00    -0.379 A  
ENDBRANCH  20  28
ENDBRANCH   1  16
TORSDOF 5
ENDMDL
MODEL      190
REMARK 921   NORMALIZED FREE ENERGY PREDICTED BY IDOCK:   -3.48 KCAL/MOL
REMARK 922        TOTAL FREE ENERGY PREDICTED BY IDOCK:   -4.57 KCAL/MOL
REMARK 923 INTER-LIGAND FREE ENERGY PREDICTED BY IDOCK:   -5.87 KCAL/MOL
REMARK 924 INTRA-LIGAND FREE ENERGY PREDICTED BY IDOCK:    1.30 KCAL/MOL
REMARK 927      BINDING AFFINITY PREDICTED BY RF-SCORE:    0.00 PKD
ROOT
HETATM    1  C   UNL     1      -9.328  11.106  66.895  1.00  0.00    -0.175 C  
ENDROOT
BRANCH   1   2
HETATM    2  C   UNL     1     -10.465  10.091  66.671  1.00  0.00    -0.244 C  
HETATM    3  C   UNL     1     -10.025   8.723  66.174  1.00  0.00    -0.244 C  
ENDBRANCH   1   2
BRANCH   1   4
HETATM    4  N   UNL     1      -8.400  10.567  67.897  1.00  0.00    -0.114 NA 
HETATM    5  H   UNL     1      -8.562  10.783  68.881  1.00  0.00     0.000 HD 
BRANCH   4   6
HETATM    6  C   UNL     1      -7.318   9.781  67.560  1.00  0.00    -0.090 A  
HETATM    7  C   UNL     1      -5.614   9.004  66.084  1.00  0.00    -0.045 A  
HETATM    8  N   UNL     1      -5.132   8.063  66.905  1.00  0.00    -0.030 NA 
HETATM    9  N   UNL     1      -6.846  10.704  65.212  1.00  0.00    -0.335 NA 
HETATM   10  C   UNL     1      -5.821   8.056  68.060  1.00  0.00    -0.041 A  
HETATM   11  C   UNL     1      -5.944  10.301  64.331  1.00  0.00    -0.134 A  
HETATM   12  H   UNL     1      -7.531  11.452  65.102  1.00  0.00     0.000 HD 
HETATM   13  N   UNL     1      -6.862   8.834  68.425  1.00  0.00    -0.064 NA 
HETATM   14  C   UNL     1      -6.657   9.887  66.315  1.00  0.00    -0.078 A  
HETATM   15  N   UNL     1      -5.176   9.282  64.820  1.00  0.00    -0.048 NA 
ENDBRANCH   4   6
ENDBRANCH   1   4
BRANCH   1  16
HETATM   16  C   UNL     1      -9.832  12.507  67.413  1.00  0.00    -0.201 C  
HETATM   17  O   UNL     1     -11.351  14.057  70.270  1.00  0.00    -0.145 OA 
HETATM   18  N   UNL     1      -9.536  13.546  66.681  1.00  0.00    -0.272 NA 
HETATM   19  C   UNL     1      -9.924  14.821  67.106  1.00  0.00    -0.236 A  
HETATM   20  N   UNL     1     -10.499  12.625  68.633  1.00  0.00    -0.230 N  
HETATM   21  C   UNL     1     -10.808  13.879  69.180  1.00  0.00    -0.189 C  
HETATM   22  C   UNL     1      -9.716  15.909  66.250  1.00  0.00    -0.332 A  
HETATM   23  C   UNL     1     -10.503  15.051  68.351  1.00  0.00    -0.238 A  
HETATM   24  C   UNL     1     -10.058  17.208  66.641  1.00  0.00    -0.306 A  
HETATM   25  C   UNL     1     -10.595  17.430  67.905  1.00  0.00    -0.383 A  
HETATM   26  F   UNL     1     -11.335  16.607  69.963  1.00  0.00    -0.302 F  
HETATM   27  C   UNL     1     -10.814  16.351  68.755  1.00  0.00    -0.338 A  
BRANCH  20  28
HETATM   28  C   UNL     1     -10.897  11.492  69.406  1.00  0.00    -0.126 A  
HETATM   29  C   UNL     1      -9.952  10.675  70.038  1.00  0.00     0.254 A  
HETATM   30  C   UNL     1     -10.371   9.607  70.836  1.00  0.00    -0.334 A  
HETATM   31  C   UNL     1     -11.730   9.342  70.997  1.00  0.00    -0.395 A  
HETATM   32  C   UNL     1     -12.674  10.118  70.329  1.00  0.00    -0.105 A  
HETATM   33  C   UNL     1     -12.260  11.173  69.519  1.00  0.00    -0.347 A  
ENDBRANCH  20  28
ENDBRANCH   1  16
TORSDOF 5
ENDMDL
MODEL      191
REMARK 921   NORMALIZED FREE ENERGY PREDICTED BY IDOCK:   -3.47 KCAL/MOL
REMARK 922        TOTAL FREE ENERGY PREDICTED BY IDOCK:   -4.55 KCAL/MOL
REMARK 923 INTER-LIGAND FREE ENERGY PREDICTED BY IDOCK:   -5.01 KCAL/MOL
REMARK 924 INTRA-LIGAND FREE ENERGY PREDICTED BY IDOCK:    0.46 KCAL/MOL
REMARK 927      BINDING AFFINITY PREDICTED BY RF-SCORE:    0.00 PKD
ROOT
HETATM    1  C   UNL     1      -9.743   8.762  70.974  1.00  0.00    -0.230 C  
ENDROOT
BRANCH   1   2
HETATM    2  C   UNL     1     -11.275   8.627  70.865  1.00  0.00    -0.311 C  
HETATM    3  C   UNL     1     -12.041   8.856  72.157  1.00  0.00    -0.430 C  
ENDBRANCH   1   2
BRANCH   1   4
HETATM    4  N   UNL     1      -9.256   9.573  69.852  1.00  0.00    -0.203 NA 
HETATM    5  H   UNL     1      -8.256   9.582  69.651  1.00  0.00     0.000 HD 
BRANCH   4   6
HETATM    6  C   UNL     1     -10.099  10.324  69.058  1.00  0.00    -0.213 A  
HETATM    7  C   UNL     1     -10.953  11.090  66.969  1.00  0.00    -0.272 A  
HETATM    8  N   UNL     1     -11.822  11.969  67.483  1.00  0.00    -0.574 NA 
HETATM    9  N   UNL     1      -9.355   9.488  66.749  1.00  0.00    -0.148 NA 
HETATM   10  C   UNL     1     -11.758  11.955  68.826  1.00  0.00    -0.321 A  
HETATM   11  C   UNL     1      -9.759   9.889  65.554  1.00  0.00    -0.302 A  
HETATM   12  H   UNL     1      -8.655   8.777  66.961  1.00  0.00     0.000 HD 
HETATM   13  N   UNL     1     -10.965  11.209  69.623  1.00  0.00    -0.227 NA 
HETATM   14  C   UNL     1     -10.090  10.245  67.647  1.00  0.00    -0.191 A  
HETATM   15  N   UNL     1     -10.729  10.849  65.642  1.00  0.00    -0.163 NA 
ENDBRANCH   4   6
ENDBRANCH   1   4
BRANCH   1  16
HETATM   16  C   UNL     1      -8.988   7.380  70.930  1.00  0.00    -0.149 C  
HETATM   17  O   UNL     1      -5.678   5.994  70.944  1.00  0.00    -0.017 OA 
HETATM   18  N   UNL     1      -9.719   6.305  71.048  1.00  0.00    -0.175 NA 
HETATM   19  C   UNL     1      -9.103   5.049  71.053  1.00  0.00    -0.141 A  
HETATM   20  N   UNL     1      -7.596   7.323  70.841  1.00  0.00    -0.083 N  
HETATM   21  C   UNL     1      -6.903   6.110  70.964  1.00  0.00    -0.066 C  
HETATM   22  C   UNL     1      -9.908   3.904  71.048  1.00  0.00    -0.219 A  
HETATM   23  C   UNL     1      -7.720   4.895  71.070  1.00  0.00    -0.082 A  
HETATM   24  C   UNL     1      -9.341   2.626  71.084  1.00  0.00    -0.210 A  
HETATM   25  C   UNL     1      -7.958   2.485  71.145  1.00  0.00    -0.050 A  
HETATM   26  F   UNL     1      -5.827   3.442  71.198  1.00  0.00    -0.011 F  
HETATM   27  C   UNL     1      -7.154   3.620  71.139  1.00  0.00    -0.033 A  
BRANCH  20  28
HETATM   28  C   UNL     1      -6.790   8.484  70.635  1.00  0.00    -0.041 A  
HETATM   29  C   UNL     1      -6.281   9.216  71.714  1.00  0.00    -0.034 A  
HETATM   30  C   UNL     1      -5.448  10.314  71.485  1.00  0.00     0.003 A  
HETATM   31  C   UNL     1      -5.127  10.691  70.182  1.00  0.00    -0.041 A  
HETATM   32  C   UNL     1      -5.671  10.000  69.103  1.00  0.00    -0.034 A  
HETATM   33  C   UNL     1      -6.517   8.916  69.328  1.00  0.00    -0.042 A  
ENDBRANCH  20  28
ENDBRANCH   1  16
TORSDOF 5
ENDMDL
MODEL      192
REMARK 921   NORMALIZED FREE ENERGY PREDICTED BY IDOCK:   -3.37 KCAL/MOL
REMARK 922        TOTAL FREE ENERGY PREDICTED BY IDOCK:   -4.43 KCAL/MOL
REMARK 923 INTER-LIGAND FREE ENERGY PREDICTED BY IDOCK:   -4.68 KCAL/MOL
REMARK 924 INTRA-LIGAND FREE ENERGY PREDICTED BY IDOCK:    0.26 KCAL/MOL
REMARK 927      BINDING AFFINITY PREDICTED BY RF-SCORE:    0.00 PKD
ROOT
HETATM    1  C   UNL     1      -6.039  15.957  67.841  1.00  0.00    -0.134 C  
ENDROOT
BRANCH   1   2
HETATM    2  C   UNL     1      -5.769  16.629  66.480  1.00  0.00     0.212 C  
HETATM    3  C   UNL     1      -7.004  17.133  65.750  1.00  0.00     0.320 C  
ENDBRANCH   1   2
BRANCH   1   4
HETATM    4  N   UNL     1      -5.538  14.578  67.797  1.00  0.00    -0.307 NA 
HETATM    5  H   UNL     1      -5.141  14.228  66.925  1.00  0.00     0.000 HD 
BRANCH   4   6
HETATM    6  C   UNL     1      -5.584  13.737  68.890  1.00  0.00    -0.078 A  
HETATM    7  C   UNL     1      -6.001  11.654  69.971  1.00  0.00    -0.152 A  
HETATM    8  N   UNL     1      -5.730  12.079  71.211  1.00  0.00    -0.365 NA 
HETATM    9  N   UNL     1      -6.303  11.569  67.719  1.00  0.00    -0.059 NA 
HETATM   10  C   UNL     1      -5.385  13.379  71.192  1.00  0.00    -0.191 A  
HETATM   11  C   UNL     1      -6.582  10.392  68.256  1.00  0.00    -0.060 A  
HETATM   12  H   UNL     1      -6.341  11.826  66.733  1.00  0.00     0.000 HD 
HETATM   13  N   UNL     1      -5.303  14.213  70.134  1.00  0.00    -0.093 NA 
HETATM   14  C   UNL     1      -5.948  12.374  68.789  1.00  0.00    -0.066 A  
HETATM   15  N   UNL     1      -6.406  10.398  69.612  1.00  0.00    -0.058 NA 
ENDBRANCH   4   6
ENDBRANCH   1   4
BRANCH   1  16
HETATM   16  C   UNL     1      -7.567  15.901  68.220  1.00  0.00    -0.135 C  
HETATM   17  O   UNL     1     -10.323  18.035  69.073  1.00  0.00    -0.350 OA 
HETATM   18  N   UNL     1      -8.163  14.746  68.095  1.00  0.00    -0.135 NA 
HETATM   19  C   UNL     1      -9.528  14.640  68.381  1.00  0.00    -0.209 A  
HETATM   20  N   UNL     1      -8.256  17.053  68.602  1.00  0.00    -0.255 N  
HETATM   21  C   UNL     1      -9.647  17.047  68.784  1.00  0.00    -0.269 C  
HETATM   22  C   UNL     1     -10.122  13.373  68.368  1.00  0.00    -0.244 A  
HETATM   23  C   UNL     1     -10.319  15.747  68.671  1.00  0.00    -0.225 A  
HETATM   24  C   UNL     1     -11.490  13.217  68.618  1.00  0.00    -0.339 A  
HETATM   25  C   UNL     1     -12.279  14.336  68.862  1.00  0.00    -0.240 A  
HETATM   26  F   UNL     1     -12.485  16.648  69.128  1.00  0.00     0.280 F  
HETATM   27  C   UNL     1     -11.691  15.596  68.887  1.00  0.00    -0.384 A  
BRANCH  20  28
HETATM   28  C   UNL     1      -7.604  18.305  68.818  1.00  0.00    -0.279 A  
HETATM   29  C   UNL     1      -6.659  18.465  69.838  1.00  0.00     0.084 A  
HETATM   30  C   UNL     1      -5.994  19.684  69.992  1.00  0.00    -0.323 A  
HETATM   31  C   UNL     1      -6.276  20.750  69.138  1.00  0.00    -0.160 A  
HETATM   32  C   UNL     1      -7.253  20.615  68.156  1.00  0.00    -0.127 A  
HETATM   33  C   UNL     1      -7.930  19.406  68.011  1.00  0.00    -0.340 A  
ENDBRANCH  20  28
ENDBRANCH   1  16
TORSDOF 5
ENDMDL
MODEL      193
REMARK 921   NORMALIZED FREE ENERGY PREDICTED BY IDOCK:   -3.25 KCAL/MOL
REMARK 922        TOTAL FREE ENERGY PREDICTED BY IDOCK:   -4.27 KCAL/MOL
REMARK 923 INTER-LIGAND FREE ENERGY PREDICTED BY IDOCK:   -5.45 KCAL/MOL
REMARK 924 INTRA-LIGAND FREE ENERGY PREDICTED BY IDOCK:    1.18 KCAL/MOL
REMARK 927      BINDING AFFINITY PREDICTED BY RF-SCORE:    0.00 PKD
ROOT
HETATM    1  C   UNL     1      -9.358   8.819  71.570  1.00  0.00    -0.267 C  
ENDROOT
BRANCH   1   2
HETATM    2  C   UNL     1     -10.868   8.507  71.541  1.00  0.00    -0.332 C  
HETATM    3  C   UNL     1     -11.392   7.730  72.738  1.00  0.00    -0.446 C  
ENDBRANCH   1   2
BRANCH   1   4
HETATM    4  N   UNL     1      -8.986   9.478  70.312  1.00  0.00    -0.238 NA 
HETATM    5  H   UNL     1      -8.052   9.318  69.933  1.00  0.00     0.000 HD 
BRANCH   4   6
HETATM    6  C   UNL     1      -9.849  10.305  69.623  1.00  0.00    -0.198 A  
HETATM    7  C   UNL     1     -10.418  11.833  67.884  1.00  0.00    -0.196 A  
HETATM    8  N   UNL     1     -11.671  12.061  68.299  1.00  0.00    -0.344 NA 
HETATM    9  N   UNL     1      -8.294  11.039  67.718  1.00  0.00    -0.116 NA 
HETATM   10  C   UNL     1     -11.930  11.349  69.410  1.00  0.00    -0.339 A  
HETATM   11  C   UNL     1      -8.531  11.904  66.744  1.00  0.00    -0.167 A  
HETATM   12  H   UNL     1      -7.434  10.520  67.892  1.00  0.00     0.000 HD 
HETATM   13  N   UNL     1     -11.113  10.511  70.083  1.00  0.00    -0.300 NA 
HETATM   14  C   UNL     1      -9.470  10.996  68.449  1.00  0.00    -0.182 A  
HETATM   15  N   UNL     1      -9.804  12.400  66.803  1.00  0.00    -0.217 NA 
ENDBRANCH   4   6
ENDBRANCH   1   4
BRANCH   1  16
HETATM   16  C   UNL     1      -8.456   7.535  71.724  1.00  0.00    -0.107 C  
HETATM   17  O   UNL     1      -7.275   4.700  69.869  1.00  0.00    -0.051 OA 
HETATM   18  N   UNL     1      -7.758   7.436  72.823  1.00  0.00    -0.089 NA 
HETATM   19  C   UNL     1      -6.911   6.338  73.003  1.00  0.00    -0.074 A  
HETATM   20  N   UNL     1      -8.363   6.594  70.698  1.00  0.00    -0.128 N  
HETATM   21  C   UNL     1      -7.444   5.536  70.757  1.00  0.00    -0.088 C  
HETATM   22  C   UNL     1      -6.269   6.177  74.237  1.00  0.00    -0.066 A  
HETATM   23  C   UNL     1      -6.674   5.402  72.000  1.00  0.00    -0.058 A  
HETATM   24  C   UNL     1      -5.388   5.113  74.457  1.00  0.00    -0.022 A  
HETATM   25  C   UNL     1      -5.127   4.210  73.432  1.00  0.00     0.000 A  
HETATM   26  F   UNL     1      -5.492   3.468  71.246  1.00  0.00    -0.006 F  
HETATM   27  C   UNL     1      -5.769   4.359  72.207  1.00  0.00    -0.011 A  
BRANCH  20  28
HETATM   28  C   UNL     1      -9.177   6.649  69.526  1.00  0.00    -0.143 A  
HETATM   29  C   UNL     1     -10.425   6.016  69.478  1.00  0.00    -0.330 A  
HETATM   30  C   UNL     1     -11.226   6.133  68.340  1.00  0.00    -0.215 A  
HETATM   31  C   UNL     1     -10.783   6.870  67.242  1.00  0.00    -0.421 A  
HETATM   32  C   UNL     1      -9.521   7.457  67.262  1.00  0.00    -0.179 A  
HETATM   33  C   UNL     1      -8.712   7.328  68.389  1.00  0.00    -0.122 A  
ENDBRANCH  20  28
ENDBRANCH   1  16
TORSDOF 5
ENDMDL
MODEL      194
REMARK 921   NORMALIZED FREE ENERGY PREDICTED BY IDOCK:   -3.19 KCAL/MOL
REMARK 922        TOTAL FREE ENERGY PREDICTED BY IDOCK:   -4.19 KCAL/MOL
REMARK 923 INTER-LIGAND FREE ENERGY PREDICTED BY IDOCK:   -3.83 KCAL/MOL
REMARK 924 INTRA-LIGAND FREE ENERGY PREDICTED BY IDOCK:   -0.36 KCAL/MOL
REMARK 927      BINDING AFFINITY PREDICTED BY RF-SCORE:    0.00 PKD
ROOT
HETATM    1  C   UNL     1      -8.674  14.785  66.224  1.00  0.00     0.098 C  
ENDROOT
BRANCH   1   2
HETATM    2  C   UNL     1      -7.673  15.921  66.510  1.00  0.00    -0.098 C  
HETATM    3  C   UNL     1      -7.939  17.222  65.770  1.00  0.00     0.201 C  
ENDBRANCH   1   2
BRANCH   1   4
HETATM    4  N   UNL     1     -10.030  15.257  66.531  1.00  0.00    -0.254 NA 
HETATM    5  H   UNL     1     -10.692  15.378  65.764  1.00  0.00     0.000 HD 
BRANCH   4   6
HETATM    6  C   UNL     1     -10.443  15.544  67.816  1.00  0.00    -0.273 A  
HETATM    7  C   UNL     1     -10.836  17.000  69.662  1.00  0.00     0.030 A  
HETATM    8  N   UNL     1     -11.239  16.047  70.512  1.00  0.00    -0.370 NA 
HETATM    9  N   UNL     1     -10.099  18.088  67.807  1.00  0.00    -0.335 NA 
HETATM   10  C   UNL     1     -11.212  14.845  69.910  1.00  0.00    -0.275 A  
HETATM   11  C   UNL     1     -10.264  18.948  68.799  1.00  0.00    -0.264 A  
HETATM   12  H   UNL     1      -9.786  18.288  66.857  1.00  0.00     0.000 HD 
HETATM   13  N   UNL     1     -10.842  14.544  68.647  1.00  0.00    -0.243 NA 
HETATM   14  C   UNL     1     -10.443  16.857  68.341  1.00  0.00    -0.355 A  
HETATM   15  N   UNL     1     -10.715  18.334  69.934  1.00  0.00     1.120 NA 
ENDBRANCH   4   6
ENDBRANCH   1   4
BRANCH   1  16
HETATM   16  C   UNL     1      -8.412  13.489  67.082  1.00  0.00    -0.166 C  
HETATM   17  O   UNL     1      -9.076   9.963  67.107  1.00  0.00    -0.137 OA 
HETATM   18  N   UNL     1      -7.581  13.603  68.082  1.00  0.00    -0.122 NA 
HETATM   19  C   UNL     1      -7.280  12.480  68.859  1.00  0.00    -0.050 A  
HETATM   20  N   UNL     1      -8.992  12.268  66.736  1.00  0.00    -0.209 N  
HETATM   21  C   UNL     1      -8.641  11.078  67.392  1.00  0.00    -0.132 C  
HETATM   22  C   UNL     1      -6.491  12.644  70.004  1.00  0.00     0.104 A  
HETATM   23  C   UNL     1      -7.728  11.203  68.534  1.00  0.00    -0.129 A  
HETATM   24  C   UNL     1      -6.136  11.548  70.797  1.00  0.00     0.197 A  
HETATM   25  C   UNL     1      -6.554  10.271  70.437  1.00  0.00    -0.126 A  
HETATM   26  F   UNL     1      -7.729   8.858  68.994  1.00  0.00    -0.083 F  
HETATM   27  C   UNL     1      -7.346  10.103  69.306  1.00  0.00    -0.098 A  
BRANCH  20  28
HETATM   28  C   UNL     1      -9.962  12.143  65.694  1.00  0.00    -0.249 A  
HETATM   29  C   UNL     1      -9.578  11.902  64.370  1.00  0.00    -0.041 A  
HETATM   30  C   UNL     1     -10.548  11.727  63.380  1.00  0.00    -0.479 A  
HETATM   31  C   UNL     1     -11.902  11.802  63.704  1.00  0.00    -0.498 A  
HETATM   32  C   UNL     1     -12.291  12.094  65.009  1.00  0.00    -0.196 A  
HETATM   33  C   UNL     1     -11.325  12.286  65.995  1.00  0.00    -0.398 A  
ENDBRANCH  20  28
ENDBRANCH   1  16
TORSDOF 5
ENDMDL
MODEL      195
REMARK 921   NORMALIZED FREE ENERGY PREDICTED BY IDOCK:   -3.08 KCAL/MOL
REMARK 922        TOTAL FREE ENERGY PREDICTED BY IDOCK:   -4.04 KCAL/MOL
REMARK 923 INTER-LIGAND FREE ENERGY PREDICTED BY IDOCK:   -4.28 KCAL/MOL
REMARK 924 INTRA-LIGAND FREE ENERGY PREDICTED BY IDOCK:    0.23 KCAL/MOL
REMARK 927      BINDING AFFINITY PREDICTED BY RF-SCORE:    0.00 PKD
ROOT
HETATM    1  C   UNL     1      -9.364   8.729  71.407  1.00  0.00    -0.258 C  
ENDROOT
BRANCH   1   2
HETATM    2  C   UNL     1     -10.902   8.624  71.427  1.00  0.00    -0.339 C  
HETATM    3  C   UNL     1     -11.505   8.186  72.752  1.00  0.00    -0.397 C  
ENDBRANCH   1   2
BRANCH   1   4
HETATM    4  N   UNL     1      -8.942   9.278  70.113  1.00  0.00    -0.194 NA 
HETATM    5  H   UNL     1      -9.554   9.154  69.305  1.00  0.00     0.000 HD 
BRANCH   4   6
HETATM    6  C   UNL     1      -7.751   9.953  69.945  1.00  0.00    -0.171 A  
HETATM    7  C   UNL     1      -6.412  11.776  69.193  1.00  0.00    -0.097 A  
HETATM    8  N   UNL     1      -5.237  11.253  69.565  1.00  0.00    -0.044 NA 
HETATM    9  N   UNL     1      -8.634  12.088  68.827  1.00  0.00    -0.363 NA 
HETATM   10  C   UNL     1      -5.423  10.049  70.134  1.00  0.00    -0.044 A  
HETATM   11  C   UNL     1      -7.950  13.119  68.357  1.00  0.00    -0.130 A  
HETATM   12  H   UNL     1      -9.645  11.954  68.811  1.00  0.00     0.000 HD 
HETATM   13  N   UNL     1      -6.579   9.383  70.335  1.00  0.00    -0.066 NA 
HETATM   14  C   UNL     1      -7.676  11.231  69.344  1.00  0.00     0.092 A  
HETATM   15  N   UNL     1      -6.606  12.974  68.564  1.00  0.00    -0.080 NA 
ENDBRANCH   4   6
ENDBRANCH   1   4
BRANCH   1  16
HETATM   16  C   UNL     1      -8.639   7.344  71.600  1.00  0.00    -0.116 C  
HETATM   17  O   UNL     1      -7.730   4.381  69.791  1.00  0.00    -0.053 OA 
HETATM   18  N   UNL     1      -8.015   7.158  72.732  1.00  0.00    -0.104 NA 
HETATM   19  C   UNL     1      -7.322   5.962  72.948  1.00  0.00    -0.091 A  
HETATM   20  N   UNL     1      -8.613   6.397  70.575  1.00  0.00    -0.141 N  
HETATM   21  C   UNL     1      -7.837   5.232  70.674  1.00  0.00    -0.089 C  
HETATM   22  C   UNL     1      -6.769   5.724  74.212  1.00  0.00    -0.080 A  
HETATM   23  C   UNL     1      -7.155   5.004  71.953  1.00  0.00    -0.067 A  
HETATM   24  C   UNL     1      -6.041   4.558  74.470  1.00  0.00    -0.046 A  
HETATM   25  C   UNL     1      -5.843   3.628  73.454  1.00  0.00    -0.007 A  
HETATM   26  F   UNL     1      -6.187   2.935  71.250  1.00  0.00    -0.016 F  
HETATM   27  C   UNL     1      -6.399   3.856  72.200  1.00  0.00    -0.014 A  
BRANCH  20  28
HETATM   28  C   UNL     1      -9.353   6.552  69.364  1.00  0.00    -0.143 A  
HETATM   29  C   UNL     1     -10.685   6.132  69.268  1.00  0.00    -0.383 A  
HETATM   30  C   UNL     1     -11.405   6.347  68.089  1.00  0.00    -0.097 A  
HETATM   31  C   UNL     1     -10.797   6.971  67.001  1.00  0.00    -0.413 A  
HETATM   32  C   UNL     1      -9.458   7.344  67.070  1.00  0.00    -0.199 A  
HETATM   33  C   UNL     1      -8.732   7.115  68.238  1.00  0.00    -0.128 A  
ENDBRANCH  20  28
ENDBRANCH   1  16
TORSDOF 5
ENDMDL
MODEL      196
REMARK 921   NORMALIZED FREE ENERGY PREDICTED BY IDOCK:   -2.96 KCAL/MOL
REMARK 922        TOTAL FREE ENERGY PREDICTED BY IDOCK:   -3.89 KCAL/MOL
REMARK 923 INTER-LIGAND FREE ENERGY PREDICTED BY IDOCK:   -5.23 KCAL/MOL
REMARK 924 INTRA-LIGAND FREE ENERGY PREDICTED BY IDOCK:    1.34 KCAL/MOL
REMARK 927      BINDING AFFINITY PREDICTED BY RF-SCORE:    0.00 PKD
ROOT
HETATM    1  C   UNL     1     -12.180  11.913  68.250  1.00  0.00     0.245 C  
ENDROOT
BRANCH   1   2
HETATM    2  C   UNL     1     -12.617  11.717  69.715  1.00  0.00     0.037 C  
HETATM    3  C   UNL     1     -12.275  12.863  70.653  1.00  0.00    -0.386 C  
ENDBRANCH   1   2
BRANCH   1   4
HETATM    4  N   UNL     1     -11.079  10.988  67.954  1.00  0.00    -0.265 NA 
HETATM    5  H   UNL     1     -10.981  10.631  67.003  1.00  0.00     0.000 HD 
BRANCH   4   6
HETATM    6  C   UNL     1     -10.174  10.581  68.913  1.00  0.00    -0.208 A  
HETATM    7  C   UNL     1      -8.102  10.699  70.086  1.00  0.00     0.711 A  
HETATM    8  N   UNL     1      -8.318   9.631  70.865  1.00  0.00    -0.221 NA 
HETATM    9  N   UNL     1      -8.348  12.346  68.539  1.00  0.00    -0.310 NA 
HETATM   10  C   UNL     1      -9.519   9.091  70.590  1.00  0.00    -0.236 A  
HETATM   11  C   UNL     1      -7.167  12.452  69.127  1.00  0.00     0.060 A  
HETATM   12  H   UNL     1      -8.737  12.948  67.813  1.00  0.00     0.000 HD 
HETATM   13  N   UNL     1     -10.433   9.488  69.680  1.00  0.00    -0.211 NA 
HETATM   14  C   UNL     1      -8.941  11.239  69.125  1.00  0.00     0.136 A  
HETATM   15  N   UNL     1      -6.982  11.482  70.072  1.00  0.00     0.054 NA 
ENDBRANCH   4   6
ENDBRANCH   1   4
BRANCH   1  16
HETATM   16  C   UNL     1     -11.676  13.373  67.937  1.00  0.00    -0.361 C  
HETATM   17  O   UNL     1     -10.758  15.492  65.190  1.00  0.00    -0.389 OA 
HETATM   18  N   UNL     1     -11.671  14.220  68.930  1.00  0.00    -0.308 NA 
HETATM   19  C   UNL     1     -11.269  15.541  68.707  1.00  0.00    -0.315 A  
HETATM   20  N   UNL     1     -11.323  13.749  66.640  1.00  0.00    -0.318 N  
HETATM   21  C   UNL     1     -11.029  15.083  66.319  1.00  0.00    -0.338 C  
HETATM   22  C   UNL     1     -11.144  16.401  69.805  1.00  0.00    -0.305 A  
HETATM   23  C   UNL     1     -10.995  16.035  67.436  1.00  0.00    -0.237 A  
HETATM   24  C   UNL     1     -10.775  17.739  69.632  1.00  0.00     0.702 A  
HETATM   25  C   UNL     1     -10.547  18.233  68.351  1.00  0.00    -0.194 A  
HETATM   26  F   UNL     1     -10.431  17.893  66.042  1.00  0.00    -0.359 F  
HETATM   27  C   UNL     1     -10.660  17.379  67.258  1.00  0.00    -0.284 A  
BRANCH  20  28
HETATM   28  C   UNL     1     -11.250  12.817  65.560  1.00  0.00    -0.294 A  
HETATM   29  C   UNL     1     -12.311  12.663  64.661  1.00  0.00    -0.546 A  
HETATM   30  C   UNL     1     -12.191  11.786  63.580  1.00  0.00    -0.489 A  
HETATM   31  C   UNL     1     -11.019  11.053  63.397  1.00  0.00     0.044 A  
HETATM   32  C   UNL     1      -9.980  11.162  64.317  1.00  0.00    -0.359 A  
HETATM   33  C   UNL     1     -10.103  12.022  65.406  1.00  0.00    -0.285 A  
ENDBRANCH  20  28
ENDBRANCH   1  16
TORSDOF 5
ENDMDL
MODEL      197
REMARK 921   NORMALIZED FREE ENERGY PREDICTED BY IDOCK:   -2.48 KCAL/MOL
REMARK 922        TOTAL FREE ENERGY PREDICTED BY IDOCK:   -3.28 KCAL/MOL
REMARK 923 INTER-LIGAND FREE ENERGY PREDICTED BY IDOCK:   -4.38 KCAL/MOL
REMARK 924 INTRA-LIGAND FREE ENERGY PREDICTED BY IDOCK:    1.10 KCAL/MOL
REMARK 927      BINDING AFFINITY PREDICTED BY RF-SCORE:    0.00 PKD
ROOT
HETATM    1  C   UNL     1     -10.043   7.254  70.803  1.00  0.00    -0.190 C  
ENDROOT
BRANCH   1   2
HETATM    2  C   UNL     1     -10.894   7.730  71.996  1.00  0.00    -0.295 C  
HETATM    3  C   UNL     1     -10.112   8.092  73.248  1.00  0.00    -0.225 C  
ENDBRANCH   1   2
BRANCH   1   4
HETATM    4  N   UNL     1      -8.644   7.137  71.234  1.00  0.00    -0.124 NA 
HETATM    5  H   UNL     1      -7.984   7.864  70.960  1.00  0.00     0.000 HD 
BRANCH   4   6
HETATM    6  C   UNL     1      -8.189   6.080  71.995  1.00  0.00    -0.107 A  
HETATM    7  C   UNL     1      -8.472   4.139  73.350  1.00  0.00    -0.089 A  
HETATM    8  N   UNL     1      -7.173   3.965  73.625  1.00  0.00    -0.063 NA 
HETATM    9  N   UNL     1     -10.431   4.953  72.532  1.00  0.00    -0.200 NA 
HETATM   10  C   UNL     1      -6.440   4.920  73.025  1.00  0.00    -0.051 A  
HETATM   11  C   UNL     1     -10.665   3.899  73.298  1.00  0.00    -0.199 A  
HETATM   12  H   UNL     1     -11.114   5.517  72.027  1.00  0.00     0.000 HD 
HETATM   13  N   UNL     1      -6.859   5.943  72.253  1.00  0.00    -0.072 NA 
HETATM   14  C   UNL     1      -9.056   5.121  72.566  1.00  0.00    -0.133 A  
HETATM   15  N   UNL     1      -9.509   3.374  73.805  1.00  0.00    -0.095 NA 
ENDBRANCH   4   6
ENDBRANCH   1   4
BRANCH   1  16
HETATM   16  C   UNL     1     -10.084   8.237  69.571  1.00  0.00    -0.197 C  
HETATM   17  O   UNL     1     -10.149   8.233  65.984  1.00  0.00    -0.050 OA 
HETATM   18  N   UNL     1     -10.284   9.500  69.833  1.00  0.00    -0.214 NA 
HETATM   19  C   UNL     1     -10.367  10.416  68.780  1.00  0.00    -0.196 A  
HETATM   20  N   UNL     1      -9.981   7.757  68.265  1.00  0.00    -0.172 N  
HETATM   21  C   UNL     1     -10.178   8.598  67.159  1.00  0.00    -0.283 C  
HETATM   22  C   UNL     1     -10.451  11.782  69.080  1.00  0.00    -0.060 A  
HETATM   23  C   UNL     1     -10.377  10.024  67.445  1.00  0.00    -0.292 A  
HETATM   24  C   UNL     1     -10.567  12.736  68.064  1.00  0.00    -0.238 A  
HETATM   25  C   UNL     1     -10.620  12.327  66.735  1.00  0.00    -0.251 A  
HETATM   26  F   UNL     1     -10.580  10.620  65.140  1.00  0.00    -0.352 F  
HETATM   27  C   UNL     1     -10.526  10.973  66.431  1.00  0.00    -0.258 A  
BRANCH  20  28
HETATM   28  C   UNL     1      -9.685   6.392  67.966  1.00  0.00    -0.122 A  
HETATM   29  C   UNL     1      -8.364   5.944  67.852  1.00  0.00    -0.111 A  
HETATM   30  C   UNL     1      -8.101   4.592  67.616  1.00  0.00    -0.100 A  
HETATM   31  C   UNL     1      -9.152   3.686  67.481  1.00  0.00    -0.185 A  
HETATM   32  C   UNL     1     -10.469   4.134  67.540  1.00  0.00     0.731 A  
HETATM   33  C   UNL     1     -10.735   5.484  67.758  1.00  0.00    -0.186 A  
ENDBRANCH  20  28
ENDBRANCH   1  16
TORSDOF 5
ENDMDL
MODEL      198
REMARK 921   NORMALIZED FREE ENERGY PREDICTED BY IDOCK:   -2.35 KCAL/MOL
REMARK 922        TOTAL FREE ENERGY PREDICTED BY IDOCK:   -3.10 KCAL/MOL
REMARK 923 INTER-LIGAND FREE ENERGY PREDICTED BY IDOCK:   -3.58 KCAL/MOL
REMARK 924 INTRA-LIGAND FREE ENERGY PREDICTED BY IDOCK:    0.48 KCAL/MOL
REMARK 927      BINDING AFFINITY PREDICTED BY RF-SCORE:    0.00 PKD
ROOT
HETATM    1  C   UNL     1      -7.493  17.691  65.499  1.00  0.00     0.545 C  
ENDROOT
BRANCH   1   2
HETATM    2  C   UNL     1      -6.113  18.105  64.950  1.00  0.00     0.166 C  
HETATM    3  C   UNL     1      -5.980  19.570  64.566  1.00  0.00    -0.314 C  
ENDBRANCH   1   2
BRANCH   1   4
HETATM    4  N   UNL     1      -8.227  18.899  65.897  1.00  0.00    -0.466 NA 
HETATM    5  H   UNL     1      -8.494  19.570  65.176  1.00  0.00     0.000 HD 
BRANCH   4   6
HETATM    6  C   UNL     1      -8.570  19.161  67.207  1.00  0.00    -0.282 A  
HETATM    7  C   UNL     1      -8.097  19.778  69.461  1.00  0.00     0.297 A  
HETATM    8  N   UNL     1      -9.343  19.608  69.920  1.00  0.00     0.396 NA 
HETATM    9  N   UNL     1      -6.275  19.880  68.104  1.00  0.00    -0.237 NA 
HETATM   10  C   UNL     1     -10.154  19.204  68.926  1.00  0.00    -0.354 A  
HETATM   11  C   UNL     1      -5.935  20.202  69.342  1.00  0.00    -0.324 A  
HETATM   12  H   UNL     1      -5.671  19.845  67.283  1.00  0.00     0.000 HD 
HETATM   13  N   UNL     1      -9.849  18.971  67.633  1.00  0.00    -0.319 NA 
HETATM   14  C   UNL     1      -7.630  19.599  68.169  1.00  0.00    -0.307 A  
HETATM   15  N   UNL     1      -7.006  20.161  70.191  1.00  0.00    -0.054 NA 
ENDBRANCH   4   6
ENDBRANCH   1   4
BRANCH   1  16
HETATM   16  C   UNL     1      -7.409  16.745  66.756  1.00  0.00    -0.240 C  
HETATM   17  O   UNL     1      -8.798  13.713  68.080  1.00  0.00    -0.171 OA 
HETATM   18  N   UNL     1      -6.456  16.990  67.614  1.00  0.00    -0.139 NA 
HETATM   19  C   UNL     1      -6.306  16.163  68.732  1.00  0.00    -0.119 A  
HETATM   20  N   UNL     1      -8.273  15.659  66.898  1.00  0.00    -0.232 N  
HETATM   21  C   UNL     1      -8.104  14.718  67.925  1.00  0.00    -0.141 C  
HETATM   22  C   UNL     1      -5.366  16.513  69.709  1.00  0.00    -0.157 A  
HETATM   23  C   UNL     1      -7.052  15.001  68.908  1.00  0.00    -0.119 A  
HETATM   24  C   UNL     1      -5.157  15.703  70.830  1.00  0.00    -0.169 A  
HETATM   25  C   UNL     1      -5.877  14.521  70.972  1.00  0.00    -0.147 A  
HETATM   26  F   UNL     1      -7.494  13.029  70.184  1.00  0.00     0.729 F  
HETATM   27  C   UNL     1      -6.820  14.174  70.010  1.00  0.00     0.072 A  
BRANCH  20  28
HETATM   28  C   UNL     1      -9.367  15.424  66.010  1.00  0.00    -0.329 A  
HETATM   29  C   UNL     1      -9.546  14.181  65.392  1.00  0.00     0.020 A  
HETATM   30  C   UNL     1     -10.657  13.960  64.573  1.00  0.00    -0.375 A  
HETATM   31  C   UNL     1     -11.585  14.978  64.360  1.00  0.00    -0.281 A  
HETATM   32  C   UNL     1     -11.386  16.232  64.929  1.00  0.00    -0.161 A  
HETATM   33  C   UNL     1     -10.270  16.462  65.732  1.00  0.00    -0.370 A  
ENDBRANCH  20  28
ENDBRANCH   1  16
TORSDOF 5
ENDMDL
MODEL      199
REMARK 921   NORMALIZED FREE ENERGY PREDICTED BY IDOCK:   -1.63 KCAL/MOL
REMARK 922        TOTAL FREE ENERGY PREDICTED BY IDOCK:   -2.17 KCAL/MOL
REMARK 923 INTER-LIGAND FREE ENERGY PREDICTED BY IDOCK:   -3.33 KCAL/MOL
REMARK 924 INTRA-LIGAND FREE ENERGY PREDICTED BY IDOCK:    1.16 KCAL/MOL
REMARK 927      BINDING AFFINITY PREDICTED BY RF-SCORE:    0.00 PKD
ROOT
HETATM    1  C   UNL     1      -6.415   8.071  68.589  1.00  0.00    -0.053 C  
ENDROOT
BRANCH   1   2
HETATM    2  C   UNL     1      -6.869   7.885  70.050  1.00  0.00    -0.045 C  
HETATM    3  C   UNL     1      -5.968   8.523  71.096  1.00  0.00    -0.037 C  
ENDBRANCH   1   2
BRANCH   1   4
HETATM    4  N   UNL     1      -6.949   9.342  68.084  1.00  0.00    -0.074 NA 
HETATM    5  H   UNL     1      -6.302  10.019  67.679  1.00  0.00     0.000 HD 
BRANCH   4   6
HETATM    6  C   UNL     1      -8.291   9.656  68.136  1.00  0.00    -0.117 A  
HETATM    7  C   UNL     1     -10.251  10.804  67.411  1.00  0.00    -0.204 A  
HETATM    8  N   UNL     1     -11.061  10.317  68.359  1.00  0.00    -0.259 NA 
HETATM    9  N   UNL     1      -8.430  11.240  66.121  1.00  0.00    -0.254 NA 
HETATM   10  C   UNL     1     -10.381   9.487  69.170  1.00  0.00    -0.207 A  
HETATM   11  C   UNL     1      -9.469  11.932  65.684  1.00  0.00    -0.166 A  
HETATM   12  H   UNL     1      -7.485  11.228  65.737  1.00  0.00     0.000 HD 
HETATM   13  N   UNL     1      -9.078   9.141  69.120  1.00  0.00    -0.142 NA 
HETATM   14  C   UNL     1      -8.906  10.536  67.215  1.00  0.00    -0.136 A  
HETATM   15  N   UNL     1     -10.590  11.693  66.429  1.00  0.00    -0.248 NA 
ENDBRANCH   4   6
ENDBRANCH   1   4
BRANCH   1  16
HETATM   16  C   UNL     1      -6.913   6.926  67.627  1.00  0.00    -0.083 C  
HETATM   17  O   UNL     1      -8.015   3.512  67.672  1.00  0.00    -0.080 OA 
HETATM   18  N   UNL     1      -7.159   7.262  66.390  1.00  0.00    -0.075 NA 
HETATM   19  C   UNL     1      -7.639   6.298  65.497  1.00  0.00    -0.087 A  
HETATM   20  N   UNL     1      -7.144   5.636  68.106  1.00  0.00    -0.069 N  
HETATM   21  C   UNL     1      -7.739   4.652  67.301  1.00  0.00    -0.090 C  
HETATM   22  C   UNL     1      -7.774   6.639  64.146  1.00  0.00    -0.109 A  
HETATM   23  C   UNL     1      -7.994   5.014  65.902  1.00  0.00    -0.107 A  
HETATM   24  C   UNL     1      -8.278   5.721  63.219  1.00  0.00    -0.075 A  
HETATM   25  C   UNL     1      -8.671   4.456  63.644  1.00  0.00    -0.129 A  
HETATM   26  F   UNL     1      -8.917   2.880  65.352  1.00  0.00    -0.121 F  
HETATM   27  C   UNL     1      -8.529   4.108  64.983  1.00  0.00    -0.115 A  
BRANCH  20  28
HETATM   28  C   UNL     1      -6.807   5.234  69.434  1.00  0.00    -0.054 A  
HETATM   29  C   UNL     1      -5.496   4.882  69.776  1.00  0.00    -0.008 A  
HETATM   30  C   UNL     1      -5.182   4.548  71.096  1.00  0.00    -0.003 A  
HETATM   31  C   UNL     1      -6.174   4.554  72.076  1.00  0.00    -0.021 A  
HETATM   32  C   UNL     1      -7.490   4.852  71.733  1.00  0.00    -0.087 A  
HETATM   33  C   UNL     1      -7.810   5.168  70.415  1.00  0.00    -0.075 A  
ENDBRANCH  20  28
ENDBRANCH   1  16
TORSDOF 5
ENDMDL
MODEL      200
REMARK 921   NORMALIZED FREE ENERGY PREDICTED BY IDOCK:   -1.51 KCAL/MOL
REMARK 922        TOTAL FREE ENERGY PREDICTED BY IDOCK:   -2.02 KCAL/MOL
REMARK 923 INTER-LIGAND FREE ENERGY PREDICTED BY IDOCK:   -3.41 KCAL/MOL
REMARK 924 INTRA-LIGAND FREE ENERGY PREDICTED BY IDOCK:    1.38 KCAL/MOL
REMARK 927      BINDING AFFINITY PREDICTED BY RF-SCORE:    0.00 PKD
ROOT
HETATM    1  C   UNL     1      -9.000   6.959  68.821  1.00  0.00    -0.130 C  
ENDROOT
BRANCH   1   2
HETATM    2  C   UNL     1     -10.220   7.719  69.377  1.00  0.00    -0.208 C  
HETATM    3  C   UNL     1     -10.848   8.724  68.424  1.00  0.00    -0.019 C  
ENDBRANCH   1   2
BRANCH   1   4
HETATM    4  N   UNL     1      -8.209   6.443  69.945  1.00  0.00    -0.124 NA 
HETATM    5  H   UNL     1      -7.326   5.972  69.747  1.00  0.00     0.000 HD 
BRANCH   4   6
HETATM    6  C   UNL     1      -8.614   6.571  71.258  1.00  0.00    -0.127 A  
HETATM    7  C   UNL     1      -8.413   7.381  73.491  1.00  0.00    -0.152 A  
HETATM    8  N   UNL     1      -9.471   6.721  73.978  1.00  0.00    -0.205 NA 
HETATM    9  N   UNL     1      -6.813   8.195  72.096  1.00  0.00    -0.072 NA 
HETATM   10  C   UNL     1     -10.054   5.995  73.007  1.00  0.00    -0.182 A  
HETATM   11  C   UNL     1      -6.622   8.658  73.321  1.00  0.00    -0.003 A  
HETATM   12  H   UNL     1      -6.258   8.395  71.263  1.00  0.00     0.000 HD 
HETATM   13  N   UNL     1      -9.694   5.878  71.712  1.00  0.00    -0.155 NA 
HETATM   14  C   UNL     1      -7.929   7.380  72.192  1.00  0.00    -0.093 A  
HETATM   15  N   UNL     1      -7.570   8.197  74.192  1.00  0.00    -0.190 NA 
ENDBRANCH   4   6
ENDBRANCH   1   4
BRANCH   1  16
HETATM   16  C   UNL     1      -8.051   7.857  67.939  1.00  0.00    -0.129 C  
HETATM   17  O   UNL     1      -6.895   8.237  64.563  1.00  0.00    -0.067 OA 
HETATM   18  N   UNL     1      -7.563   8.928  68.502  1.00  0.00    -0.096 NA 
HETATM   19  C   UNL     1      -6.743   9.784  67.760  1.00  0.00    -0.069 A  
HETATM   20  N   UNL     1      -7.811   7.548  66.599  1.00  0.00    -0.104 N  
HETATM   21  C   UNL     1      -7.102   8.423  65.762  1.00  0.00    -0.071 C  
HETATM   22  C   UNL     1      -6.123  10.856  68.412  1.00  0.00    -0.046 A  
HETATM   23  C   UNL     1      -6.527   9.616  66.395  1.00  0.00    -0.070 A  
HETATM   24  C   UNL     1      -5.319  11.758  67.708  1.00  0.00    -0.057 A  
HETATM   25  C   UNL     1      -5.146  11.605  66.336  1.00  0.00    -0.009 A  
HETATM   26  F   UNL     1      -5.560  10.422  64.364  1.00  0.00    -0.095 F  
HETATM   27  C   UNL     1      -5.752  10.536  65.685  1.00  0.00    -0.123 A  
BRANCH  20  28
HETATM   28  C   UNL     1      -8.274   6.341  65.991  1.00  0.00    -0.125 A  
HETATM   29  C   UNL     1      -8.096   6.104  64.623  1.00  0.00    -0.126 A  
HETATM   30  C   UNL     1      -8.508   4.891  64.064  1.00  0.00    -0.137 A  
HETATM   31  C   UNL     1      -9.105   3.917  64.862  1.00  0.00    -0.141 A  
HETATM   32  C   UNL     1      -9.333   4.168  66.213  1.00  0.00    -0.173 A  
HETATM   33  C   UNL     1      -8.941   5.383  66.770  1.00  0.00    -0.112 A  
ENDBRANCH  20  28
ENDBRANCH   1  16
TORSDOF 5
ENDMDL
MODEL      201
REMARK 921   NORMALIZED FREE ENERGY PREDICTED BY IDOCK:   -1.43 KCAL/MOL
REMARK 922        TOTAL FREE ENERGY PREDICTED BY IDOCK:   -1.92 KCAL/MOL
REMARK 923 INTER-LIGAND FREE ENERGY PREDICTED BY IDOCK:   -4.49 KCAL/MOL
REMARK 924 INTRA-LIGAND FREE ENERGY PREDICTED BY IDOCK:    2.57 KCAL/MOL
REMARK 927      BINDING AFFINITY PREDICTED BY RF-SCORE:    0.00 PKD
ROOT
HETATM    1  C   UNL     1      -7.773   6.298  66.577  1.00  0.00    -0.099 C  
ENDROOT
BRANCH   1   2
HETATM    2  C   UNL     1      -6.728   5.238  66.978  1.00  0.00    -0.058 C  
HETATM    3  C   UNL     1      -6.601   4.060  66.026  1.00  0.00    -0.041 C  
ENDBRANCH   1   2
BRANCH   1   4
HETATM    4  N   UNL     1      -7.079   7.549  66.250  1.00  0.00    -0.069 NA 
HETATM    5  H   UNL     1      -6.066   7.531  66.131  1.00  0.00     0.000 HD 
BRANCH   4   6
HETATM    6  C   UNL     1      -7.743   8.749  66.099  1.00  0.00    -0.101 A  
HETATM    7  C   UNL     1      -8.362  10.952  66.766  1.00  0.00    -0.138 A  
HETATM    8  N   UNL     1      -9.214  11.173  65.757  1.00  0.00    -0.211 NA 
HETATM    9  N   UNL     1      -6.844   9.989  68.158  1.00  0.00    -0.063 NA 
HETATM   10  C   UNL     1      -9.266  10.100  64.949  1.00  0.00    -0.232 A  
HETATM   11  C   UNL     1      -7.165  11.193  68.604  1.00  0.00    -0.098 A  
HETATM   12  H   UNL     1      -6.184   9.330  68.570  1.00  0.00     0.000 HD 
HETATM   13  N   UNL     1      -8.604   8.929  65.060  1.00  0.00    -0.176 NA 
HETATM   14  C   UNL     1      -7.599   9.821  67.008  1.00  0.00    -0.092 A  
HETATM   15  N   UNL     1      -8.073  11.811  67.789  1.00  0.00    -0.134 NA 
ENDBRANCH   4   6
ENDBRANCH   1   4
BRANCH   1  16
HETATM   16  C   UNL     1      -8.816   6.611  67.716  1.00  0.00    -0.114 C  
HETATM   17  O   UNL     1     -10.569   5.035  70.421  1.00  0.00    -0.215 OA 
HETATM   18  N   UNL     1      -9.122   7.866  67.906  1.00  0.00    -0.132 NA 
HETATM   19  C   UNL     1     -10.014   8.211  68.926  1.00  0.00    -0.192 A  
HETATM   20  N   UNL     1      -9.326   5.594  68.524  1.00  0.00    -0.120 N  
HETATM   21  C   UNL     1     -10.127   5.877  69.641  1.00  0.00    -0.200 C  
HETATM   22  C   UNL     1     -10.432   9.543  69.033  1.00  0.00    -0.229 A  
HETATM   23  C   UNL     1     -10.496   7.283  69.844  1.00  0.00    -0.236 A  
HETATM   24  C   UNL     1     -11.299   9.945  70.054  1.00  0.00    -0.303 A  
HETATM   25  C   UNL     1     -11.739   9.017  70.992  1.00  0.00    -0.353 A  
HETATM   26  F   UNL     1     -11.782   6.827  71.806  1.00  0.00    -0.285 F  
HETATM   27  C   UNL     1     -11.335   7.690  70.884  1.00  0.00    -0.276 A  
BRANCH  20  28
HETATM   28  C   UNL     1      -9.062   4.211  68.281  1.00  0.00    -0.132 A  
HETATM   29  C   UNL     1      -8.174   3.489  69.086  1.00  0.00    -0.075 A  
HETATM   30  C   UNL     1      -7.977   2.124  68.862  1.00  0.00    -0.062 A  
HETATM   31  C   UNL     1      -8.655   1.477  67.830  1.00  0.00    -0.097 A  
HETATM   32  C   UNL     1      -9.500   2.200  66.992  1.00  0.00     0.095 A  
HETATM   33  C   UNL     1      -9.685   3.565  67.201  1.00  0.00    -0.053 A  
ENDBRANCH  20  28
ENDBRANCH   1  16
TORSDOF 5
ENDMDL
MODEL      202
REMARK 921   NORMALIZED FREE ENERGY PREDICTED BY IDOCK:   -1.13 KCAL/MOL
REMARK 922        TOTAL FREE ENERGY PREDICTED BY IDOCK:   -1.52 KCAL/MOL
REMARK 923 INTER-LIGAND FREE ENERGY PREDICTED BY IDOCK:   -4.61 KCAL/MOL
REMARK 924 INTRA-LIGAND FREE ENERGY PREDICTED BY IDOCK:    3.09 KCAL/MOL
REMARK 927      BINDING AFFINITY PREDICTED BY RF-SCORE:    0.00 PKD
ROOT
HETATM    1  C   UNL     1     -10.453  10.265  66.848  1.00  0.00    -0.229 C  
ENDROOT
BRANCH   1   2
HETATM    2  C   UNL     1     -10.672  10.356  65.325  1.00  0.00     0.086 C  
HETATM    3  C   UNL     1     -10.841  11.764  64.777  1.00  0.00    -0.358 C  
ENDBRANCH   1   2
BRANCH   1   4
HETATM    4  N   UNL     1     -11.725  10.542  67.528  1.00  0.00    -0.485 NA 
HETATM    5  H   UNL     1     -12.501  10.915  66.981  1.00  0.00     0.000 HD 
BRANCH   4   6
HETATM    6  C   UNL     1     -11.910  10.319  68.877  1.00  0.00     0.127 A  
HETATM    7  C   UNL     1     -11.325   9.387  70.992  1.00  0.00    -0.337 A  
HETATM    8  N   UNL     1     -12.403   9.833  71.648  1.00  0.00    -0.388 NA 
HETATM    9  N   UNL     1      -9.793   8.954  69.369  1.00  0.00    -0.179 NA 
HETATM   10  C   UNL     1     -13.198  10.531  70.816  1.00  0.00    -0.149 A  
HETATM   11  C   UNL     1      -9.422   8.382  70.504  1.00  0.00    -0.169 A  
HETATM   12  H   UNL     1      -9.300   8.938  68.476  1.00  0.00     0.000 HD 
HETATM   13  N   UNL     1     -13.023  10.788  69.503  1.00  0.00     0.042 NA 
HETATM   14  C   UNL     1     -10.994   9.579  69.660  1.00  0.00    -0.212 A  
HETATM   15  N   UNL     1     -10.316   8.625  71.510  1.00  0.00    -0.244 NA 
ENDBRANCH   4   6
ENDBRANCH   1   4
BRANCH   1  16
HETATM   16  C   UNL     1      -9.386  11.290  67.391  1.00  0.00    -0.162 C  
HETATM   17  O   UNL     1      -5.854  11.647  67.907  1.00  0.00    -0.043 OA 
HETATM   18  N   UNL     1      -9.810  12.495  67.658  1.00  0.00    -0.198 NA 
HETATM   19  C   UNL     1      -8.904  13.460  68.108  1.00  0.00    -0.180 A  
HETATM   20  N   UNL     1      -8.042  10.934  67.508  1.00  0.00    -0.115 N  
HETATM   21  C   UNL     1      -7.060  11.881  67.834  1.00  0.00    -0.093 C  
HETATM   22  C   UNL     1      -9.394  14.708  68.513  1.00  0.00    -0.201 A  
HETATM   23  C   UNL     1      -7.532  13.231  68.161  1.00  0.00    -0.128 A  
HETATM   24  C   UNL     1      -8.525  15.717  68.942  1.00  0.00    -0.213 A  
HETATM   25  C   UNL     1      -7.153  15.490  68.949  1.00  0.00    -0.134 A  
HETATM   26  F   UNL     1      -5.334  14.071  68.579  1.00  0.00    -0.077 F  
HETATM   27  C   UNL     1      -6.662  14.249  68.557  1.00  0.00    -0.099 A  
BRANCH  20  28
HETATM   28  C   UNL     1      -7.577   9.600  67.294  1.00  0.00    -0.091 A  
HETATM   29  C   UNL     1      -6.256   9.238  67.584  1.00  0.00    -0.058 A  
HETATM   30  C   UNL     1      -5.842   7.913  67.420  1.00  0.00    -0.038 A  
HETATM   31  C   UNL     1      -6.737   6.950  66.957  1.00  0.00    -0.056 A  
HETATM   32  C   UNL     1      -8.037   7.314  66.618  1.00  0.00    -0.113 A  
HETATM   33  C   UNL     1      -8.449   8.637  66.763  1.00  0.00    -0.117 A  
ENDBRANCH  20  28
ENDBRANCH   1  16
TORSDOF 5
ENDMDL
MODEL      203
REMARK 921   NORMALIZED FREE ENERGY PREDICTED BY IDOCK:    1.33 KCAL/MOL
REMARK 922        TOTAL FREE ENERGY PREDICTED BY IDOCK:    1.65 KCAL/MOL
REMARK 923 INTER-LIGAND FREE ENERGY PREDICTED BY IDOCK:    1.27 KCAL/MOL
REMARK 924 INTRA-LIGAND FREE ENERGY PREDICTED BY IDOCK:    0.38 KCAL/MOL
REMARK 927      BINDING AFFINITY PREDICTED BY RF-SCORE:    0.00 PKD
ROOT
HETATM    1  C   UNL     1      -9.274  11.048  68.627  1.00  0.00    -0.185 C  
ENDROOT
BRANCH   1   2
HETATM    2  C   UNL     1      -9.687  11.083  67.143  1.00  0.00    -0.198 C  
HETATM    3  C   UNL     1     -10.522   9.902  66.674  1.00  0.00    -0.239 C  
ENDBRANCH   1   2
BRANCH   1   4
HETATM    4  N   UNL     1      -7.992  10.341  68.747  1.00  0.00    -0.105 NA 
HETATM    5  H   UNL     1      -7.666  10.072  69.675  1.00  0.00     0.000 HD 
BRANCH   4   6
HETATM    6  C   UNL     1      -7.213  10.028  67.653  1.00  0.00    -0.088 A  
HETATM    7  C   UNL     1      -5.993  10.553  65.673  1.00  0.00    -0.130 A  
HETATM    8  N   UNL     1      -5.669   9.291  65.366  1.00  0.00    -0.056 NA 
HETATM    9  N   UNL     1      -6.838  12.388  66.717  1.00  0.00    -0.384 NA 
HETATM   10  C   UNL     1      -6.172   8.446  66.282  1.00  0.00    -0.049 A  
HETATM   11  C   UNL     1      -6.203  12.749  65.612  1.00  0.00     5.511 A  
HETATM   12  H   UNL     1      -7.308  12.994  67.389  1.00  0.00     0.000 HD 
HETATM   13  N   UNL     1      -6.910   8.731  67.375  1.00  0.00    -0.070 NA 
HETATM   14  C   UNL     1      -6.723  11.008  66.759  1.00  0.00    -0.128 A  
HETATM   15  N   UNL     1      -5.672  11.673  64.957  1.00  0.00     0.992 NA 
ENDBRANCH   4   6
ENDBRANCH   1   4
BRANCH   1  16
HETATM   16  C   UNL     1     -10.316  10.310  69.551  1.00  0.00    -0.242 C  
HETATM   17  O   UNL     1     -13.448  10.839  71.220  1.00  0.00    -0.179 OA 
HETATM   18  N   UNL     1     -10.137   9.031  69.736  1.00  0.00    -0.193 NA 
HETATM   19  C   UNL     1     -11.049   8.313  70.516  1.00  0.00    -0.249 A  
HETATM   20  N   UNL     1     -11.413  10.990  70.082  1.00  0.00    -0.304 N  
HETATM   21  C   UNL     1     -12.432  10.312  70.769  1.00  0.00    -0.346 C  
HETATM   22  C   UNL     1     -10.774   6.972  70.812  1.00  0.00    -0.252 A  
HETATM   23  C   UNL     1     -12.224   8.877  71.003  1.00  0.00    -0.248 A  
HETATM   24  C   UNL     1     -11.670   6.203  71.562  1.00  0.00    -0.264 A  
HETATM   25  C   UNL     1     -12.862   6.767  72.006  1.00  0.00    -0.191 A  
HETATM   26  F   UNL     1     -14.292   8.607  72.170  1.00  0.00    -0.442 F  
HETATM   27  C   UNL     1     -13.135   8.101  71.723  1.00  0.00    -0.345 A  
BRANCH  20  28
HETATM   28  C   UNL     1     -11.581  12.402  69.954  1.00  0.00    -0.186 A  
HETATM   29  C   UNL     1     -11.522  13.245  71.070  1.00  0.00     1.178 A  
HETATM   30  C   UNL     1     -11.633  14.628  70.910  1.00  0.00    -0.276 A  
HETATM   31  C   UNL     1     -11.812  15.175  69.640  1.00  0.00    -0.362 A  
HETATM   32  C   UNL     1     -11.925  14.341  68.532  1.00  0.00    -0.352 A  
HETATM   33  C   UNL     1     -11.833  12.959  68.690  1.00  0.00    -0.347 A  
ENDBRANCH  20  28
ENDBRANCH   1  16
TORSDOF 5
ENDMDL
MODEL      204
REMARK 921   NORMALIZED FREE ENERGY PREDICTED BY IDOCK:    1.78 KCAL/MOL
REMARK 922        TOTAL FREE ENERGY PREDICTED BY IDOCK:    2.23 KCAL/MOL
REMARK 923 INTER-LIGAND FREE ENERGY PREDICTED BY IDOCK:   -1.09 KCAL/MOL
REMARK 924 INTRA-LIGAND FREE ENERGY PREDICTED BY IDOCK:    3.31 KCAL/MOL
REMARK 927      BINDING AFFINITY PREDICTED BY RF-SCORE:    0.00 PKD
ROOT
HETATM    1  C   UNL     1     -10.648  15.671  66.374  1.00  0.00    -0.308 C  
ENDROOT
BRANCH   1   2
HETATM    2  C   UNL     1     -10.835  16.275  64.968  1.00  0.00    -0.337 C  
HETATM    3  C   UNL     1     -12.055  15.783  64.207  1.00  0.00     0.010 C  
ENDBRANCH   1   2
BRANCH   1   4
HETATM    4  N   UNL     1      -9.902  16.623  67.205  1.00  0.00    -0.250 NA 
HETATM    5  H   UNL     1      -9.052  17.042  66.828  1.00  0.00     0.000 HD 
BRANCH   4   6
HETATM    6  C   UNL     1     -10.305  16.972  68.478  1.00  0.00    -0.359 A  
HETATM    7  C   UNL     1     -11.072  16.500  70.685  1.00  0.00    -0.043 A  
HETATM    8  N   UNL     1     -11.207  17.777  71.065  1.00  0.00     2.018 NA 
HETATM    9  N   UNL     1     -10.637  14.629  69.470  1.00  0.00    -0.381 NA 
HETATM   10  C   UNL     1     -10.859  18.601  70.061  1.00  0.00     2.227 A  
HETATM   11  C   UNL     1     -11.088  14.294  70.669  1.00  0.00     0.311 A  
HETATM   12  H   UNL     1     -10.353  14.003  68.716  1.00  0.00     0.000 HD 
HETATM   13  N   UNL     1     -10.433  18.283  68.821  1.00  0.00    -0.208 NA 
HETATM   14  C   UNL     1     -10.634  16.014  69.464  1.00  0.00    -0.290 A  
HETATM   15  N   UNL     1     -11.355  15.394  71.436  1.00  0.00    -0.382 NA 
ENDBRANCH   4   6
ENDBRANCH   1   4
BRANCH   1  16
HETATM   16  C   UNL     1      -9.852  14.311  66.370  1.00  0.00    -0.296 C  
HETATM   17  O   UNL     1      -6.703  12.905  67.363  1.00  0.00    -0.158 OA 
HETATM   18  N   UNL     1     -10.513  13.242  66.017  1.00  0.00    -0.281 NA 
HETATM   19  C   UNL     1      -9.871  12.000  66.029  1.00  0.00    -0.237 A  
HETATM   20  N   UNL     1      -8.523  14.255  66.794  1.00  0.00    -0.105 N  
HETATM   21  C   UNL     1      -7.856  13.030  66.949  1.00  0.00     0.154 C  
HETATM   22  C   UNL     1     -10.552  10.885  65.524  1.00  0.00    -0.240 A  
HETATM   23  C   UNL     1      -8.584  11.827  66.529  1.00  0.00    -0.148 A  
HETATM   24  C   UNL     1      -9.965   9.615  65.542  1.00  0.00    -0.279 A  
HETATM   25  C   UNL     1      -8.695   9.448  66.085  1.00  0.00    -0.165 A  
HETATM   26  F   UNL     1      -6.790  10.352  67.091  1.00  0.00    -0.076 F  
HETATM   27  C   UNL     1      -8.011  10.554  66.578  1.00  0.00    -0.132 A  
BRANCH  20  28
HETATM   28  C   UNL     1      -7.764  15.423  67.109  1.00  0.00    -0.211 A  
HETATM   29  C   UNL     1      -7.731  16.522  66.243  1.00  0.00    -0.215 A  
HETATM   30  C   UNL     1      -7.027  17.675  66.601  1.00  0.00    -0.257 A  
HETATM   31  C   UNL     1      -6.346  17.732  67.816  1.00  0.00    -0.180 A  
HETATM   32  C   UNL     1      -6.331  16.623  68.659  1.00  0.00    -0.148 A  
HETATM   33  C   UNL     1      -7.018  15.466  68.296  1.00  0.00    -0.119 A  
ENDBRANCH  20  28
ENDBRANCH   1  16
TORSDOF 5
ENDMDL
MODEL      205
REMARK 921   NORMALIZED FREE ENERGY PREDICTED BY IDOCK:    1.96 KCAL/MOL
REMARK 922        TOTAL FREE ENERGY PREDICTED BY IDOCK:    2.47 KCAL/MOL
REMARK 923 INTER-LIGAND FREE ENERGY PREDICTED BY IDOCK:    1.82 KCAL/MOL
REMARK 924 INTRA-LIGAND FREE ENERGY PREDICTED BY IDOCK:    0.65 KCAL/MOL
REMARK 927      BINDING AFFINITY PREDICTED BY RF-SCORE:    0.00 PKD
ROOT
HETATM    1  C   UNL     1      -7.716  10.435  69.101  1.00  0.00    -0.126 C  
ENDROOT
BRANCH   1   2
HETATM    2  C   UNL     1      -6.518  10.650  70.046  1.00  0.00    -0.138 C  
HETATM    3  C   UNL     1      -6.831  10.529  71.529  1.00  0.00     1.838 C  
ENDBRANCH   1   2
BRANCH   1   4
HETATM    4  N   UNL     1      -8.212  11.744  68.658  1.00  0.00    -0.276 NA 
HETATM    5  H   UNL     1      -8.415  12.455  69.361  1.00  0.00     0.000 HD 
BRANCH   4   6
HETATM    6  C   UNL     1      -8.414  12.050  67.328  1.00  0.00    -0.175 A  
HETATM    7  C   UNL     1      -9.012  11.531  65.079  1.00  0.00     0.147 A  
HETATM    8  N   UNL     1      -8.732  12.739  64.574  1.00  0.00     2.076 NA 
HETATM    9  N   UNL     1      -9.291   9.782  66.506  1.00  0.00    -0.155 NA 
HETATM   10  C   UNL     1      -8.290  13.557  65.545  1.00  0.00     2.865 A  
HETATM   11  C   UNL     1      -9.609   9.415  65.274  1.00  0.00    -0.180 A  
HETATM   12  H   UNL     1      -9.324   9.213  67.351  1.00  0.00     0.000 HD 
HETATM   13  N   UNL     1      -8.113  13.290  66.856  1.00  0.00     0.002 NA 
HETATM   14  C   UNL     1      -8.902  11.107  66.394  1.00  0.00    -0.178 A  
HETATM   15  N   UNL     1      -9.462  10.443  64.384  1.00  0.00    -0.261 NA 
ENDBRANCH   4   6
ENDBRANCH   1   4
BRANCH   1  16
HETATM   16  C   UNL     1      -8.917   9.670  69.776  1.00  0.00    -0.211 C  
HETATM   17  O   UNL     1      -9.721   6.545  71.345  1.00  0.00    -0.172 OA 
HETATM   18  N   UNL     1     -10.003  10.360  70.000  1.00  0.00    -0.076 NA 
HETATM   19  C   UNL     1     -11.091   9.746  70.629  1.00  0.00    -0.332 A  
HETATM   20  N   UNL     1      -8.788   8.340  70.175  1.00  0.00    -0.139 N  
HETATM   21  C   UNL     1      -9.790   7.699  70.920  1.00  0.00    -0.176 C  
HETATM   22  C   UNL     1     -12.291  10.458  70.745  1.00  0.00    -0.463 A  
HETATM   23  C   UNL     1     -11.024   8.459  71.152  1.00  0.00    -0.292 A  
HETATM   24  C   UNL     1     -13.398   9.901  71.393  1.00  0.00    -0.447 A  
HETATM   25  C   UNL     1     -13.304   8.629  71.950  1.00  0.00    -0.418 A  
HETATM   26  F   UNL     1     -12.069   6.693  72.378  1.00  0.00    -0.303 F  
HETATM   27  C   UNL     1     -12.118   7.914  71.829  1.00  0.00    -0.303 A  
BRANCH  20  28
HETATM   28  C   UNL     1      -7.638   7.551  69.869  1.00  0.00    -0.093 A  
HETATM   29  C   UNL     1      -7.014   7.631  68.618  1.00  0.00    -0.075 A  
HETATM   30  C   UNL     1      -5.856   6.891  68.364  1.00  0.00    -0.018 A  
HETATM   31  C   UNL     1      -5.323   6.062  69.349  1.00  0.00    -0.005 A  
HETATM   32  C   UNL     1      -5.968   5.937  70.577  1.00  0.00    -0.029 A  
HETATM   33  C   UNL     1      -7.132   6.659  70.828  1.00  0.00    -0.069 A  
ENDBRANCH  20  28
ENDBRANCH   1  16
TORSDOF 5
ENDMDL
MODEL      206
REMARK 921   NORMALIZED FREE ENERGY PREDICTED BY IDOCK:    2.35 KCAL/MOL
REMARK 922        TOTAL FREE ENERGY PREDICTED BY IDOCK:    2.96 KCAL/MOL
REMARK 923 INTER-LIGAND FREE ENERGY PREDICTED BY IDOCK:   -4.59 KCAL/MOL
REMARK 924 INTRA-LIGAND FREE ENERGY PREDICTED BY IDOCK:    7.56 KCAL/MOL
REMARK 927      BINDING AFFINITY PREDICTED BY RF-SCORE:    0.00 PKD
ROOT
HETATM    1  C   UNL     1     -11.049   9.760  67.591  1.00  0.00    -0.049 C  
ENDROOT
BRANCH   1   2
HETATM    2  C   UNL     1     -10.429   8.969  68.759  1.00  0.00    -0.230 C  
HETATM    3  C   UNL     1      -9.445   9.746  69.618  1.00  0.00    -0.237 C  
ENDBRANCH   1   2
BRANCH   1   4
HETATM    4  N   UNL     1     -10.152   9.679  66.432  1.00  0.00    -0.251 NA 
HETATM    5  H   UNL     1     -10.557   9.709  65.496  1.00  0.00     0.000 HD 
BRANCH   4   6
HETATM    6  C   UNL     1      -8.783   9.561  66.560  1.00  0.00    -0.134 A  
HETATM    7  C   UNL     1      -6.561  10.420  66.655  1.00  0.00    -0.082 A  
HETATM    8  N   UNL     1      -5.953   9.231  66.750  1.00  0.00    -0.059 NA 
HETATM    9  N   UNL     1      -8.142  12.045  66.486  1.00  0.00    -0.388 NA 
HETATM   10  C   UNL     1      -6.863   8.241  66.744  1.00  0.00    -0.069 A  
HETATM   11  C   UNL     1      -6.935  12.589  66.501  1.00  0.00     0.927 A  
HETATM   12  H   UNL     1      -9.039  12.527  66.426  1.00  0.00     0.000 HD 
HETATM   13  N   UNL     1      -8.206   8.332  66.650  1.00  0.00    -0.104 NA 
HETATM   14  C   UNL     1      -7.919  10.680  66.570  1.00  0.00    -0.138 A  
HETATM   15  N   UNL     1      -5.953  11.643  66.610  1.00  0.00    -0.138 NA 
ENDBRANCH   4   6
ENDBRANCH   1   4
BRANCH   1  16
HETATM   16  C   UNL     1     -11.274  11.285  67.917  1.00  0.00    -0.290 C  
HETATM   17  O   UNL     1     -11.949  14.424  66.314  1.00  0.00    -0.396 OA 
HETATM   18  N   UNL     1     -11.394  11.607  69.176  1.00  0.00    -0.259 NA 
HETATM   19  C   UNL     1     -11.632  12.939  69.528  1.00  0.00    -0.282 A  
HETATM   20  N   UNL     1     -11.407  12.227  66.896  1.00  0.00    -0.312 N  
HETATM   21  C   UNL     1     -11.767  13.556  67.167  1.00  0.00    -0.379 C  
HETATM   22  C   UNL     1     -11.628  13.289  70.884  1.00  0.00     0.632 A  
HETATM   23  C   UNL     1     -11.878  13.930  68.582  1.00  0.00    -0.407 A  
HETATM   24  C   UNL     1     -11.890  14.602  71.288  1.00  0.00    -0.378 A  
HETATM   25  C   UNL     1     -12.179  15.574  70.336  1.00  0.00    -0.443 A  
HETATM   26  F   UNL     1     -12.455  16.199  68.101  1.00  0.00     0.229 F  
HETATM   27  C   UNL     1     -12.173  15.234  68.987  1.00  0.00    -0.124 A  
BRANCH  20  28
HETATM   28  C   UNL     1     -11.202  11.906  65.519  1.00  0.00    -0.299 A  
HETATM   29  C   UNL     1      -9.958  11.461  65.055  1.00  0.00    -0.312 A  
HETATM   30  C   UNL     1      -9.799  11.099  63.715  1.00  0.00    -0.374 A  
HETATM   31  C   UNL     1     -10.874  11.189  62.832  1.00  0.00     0.296 A  
HETATM   32  C   UNL     1     -12.099  11.680  63.274  1.00  0.00    -0.255 A  
HETATM   33  C   UNL     1     -12.256  12.059  64.606  1.00  0.00    -0.289 A  
ENDBRANCH  20  28
ENDBRANCH   1  16
TORSDOF 5
ENDMDL
MODEL      207
REMARK 921   NORMALIZED FREE ENERGY PREDICTED BY IDOCK:    2.67 KCAL/MOL
REMARK 922        TOTAL FREE ENERGY PREDICTED BY IDOCK:    3.38 KCAL/MOL
REMARK 923 INTER-LIGAND FREE ENERGY PREDICTED BY IDOCK:    4.67 KCAL/MOL
REMARK 924 INTRA-LIGAND FREE ENERGY PREDICTED BY IDOCK:   -1.28 KCAL/MOL
REMARK 927      BINDING AFFINITY PREDICTED BY RF-SCORE:    0.00 PKD
ROOT
HETATM    1  C   UNL     1     -11.453  11.623  65.478  1.00  0.00    -0.102 C  
ENDROOT
BRANCH   1   2
HETATM    2  C   UNL     1     -12.964  11.680  65.176  1.00  0.00     2.382 C  
HETATM    3  C   UNL     1     -13.341  12.394  63.887  1.00  0.00     0.341 C  
ENDBRANCH   1   2
BRANCH   1   4
HETATM    4  N   UNL     1     -10.741  11.202  64.265  1.00  0.00    -0.358 NA 
HETATM    5  H   UNL     1     -11.276  11.056  63.409  1.00  0.00     0.000 HD 
BRANCH   4   6
HETATM    6  C   UNL     1      -9.377  10.997  64.239  1.00  0.00    -0.205 A  
HETATM    7  C   UNL     1      -7.416   9.641  64.257  1.00  0.00    -0.125 A  
HETATM    8  N   UNL     1      -6.542  10.655  64.263  1.00  0.00     0.101 NA 
HETATM    9  N   UNL     1      -9.341   8.430  64.236  1.00  0.00     0.465 NA 
HETATM   10  C   UNL     1      -7.194  11.831  64.254  1.00  0.00     3.307 A  
HETATM   11  C   UNL     1      -8.296   7.618  64.278  1.00  0.00     0.082 A  
HETATM   12  H   UNL     1     -10.327   8.173  64.210  1.00  0.00     0.000 HD 
HETATM   13  N   UNL     1      -8.524  12.057  64.249  1.00  0.00     1.491 NA 
HETATM   14  C   UNL     1      -8.800   9.706  64.234  1.00  0.00    -0.228 A  
HETATM   15  N   UNL     1      -7.116   8.308  64.285  1.00  0.00    -0.080 NA 
ENDBRANCH   4   6
ENDBRANCH   1   4
BRANCH   1  16
HETATM   16  C   UNL     1     -11.083  10.610  66.627  1.00  0.00     0.019 C  
HETATM   17  O   UNL     1     -10.237  10.515  70.113  1.00  0.00    -0.110 OA 
HETATM   18  N   UNL     1     -11.216   9.340  66.358  1.00  0.00     0.997 NA 
HETATM   19  C   UNL     1     -10.938   8.393  67.349  1.00  0.00     0.173 A  
HETATM   20  N   UNL     1     -10.701  11.064  67.890  1.00  0.00    -0.203 N  
HETATM   21  C   UNL     1     -10.526  10.179  68.965  1.00  0.00    -0.219 C  
HETATM   22  C   UNL     1     -10.959   7.035  67.008  1.00  0.00    -0.357 A  
HETATM   23  C   UNL     1     -10.648   8.748  68.663  1.00  0.00    -0.174 A  
HETATM   24  C   UNL     1     -10.718   6.048  67.970  1.00  0.00    -0.359 A  
HETATM   25  C   UNL     1     -10.473   6.414  69.289  1.00  0.00    -0.277 A  
HETATM   26  F   UNL     1     -10.200   8.073  70.911  1.00  0.00    -0.190 F  
HETATM   27  C   UNL     1     -10.441   7.762  69.631  1.00  0.00    -0.229 A  
BRANCH  20  28
HETATM   28  C   UNL     1     -10.476  12.445  68.177  1.00  0.00    -0.219 A  
HETATM   29  C   UNL     1      -9.273  13.072  67.831  1.00  0.00    -0.208 A  
HETATM   30  C   UNL     1      -9.101  14.438  68.072  1.00  0.00    -0.188 A  
HETATM   31  C   UNL     1     -10.120  15.180  68.667  1.00  0.00    -0.222 A  
HETATM   32  C   UNL     1     -11.298  14.552  69.063  1.00  0.00    -0.296 A  
HETATM   33  C   UNL     1     -11.467  13.186  68.840  1.00  0.00    -0.343 A  
ENDBRANCH  20  28
ENDBRANCH   1  16
TORSDOF 5
ENDMDL
MODEL      208
REMARK 921   NORMALIZED FREE ENERGY PREDICTED BY IDOCK:    2.86 KCAL/MOL
REMARK 922        TOTAL FREE ENERGY PREDICTED BY IDOCK:    3.64 KCAL/MOL
REMARK 923 INTER-LIGAND FREE ENERGY PREDICTED BY IDOCK:    2.49 KCAL/MOL
REMARK 924 INTRA-LIGAND FREE ENERGY PREDICTED BY IDOCK:    1.14 KCAL/MOL
REMARK 927      BINDING AFFINITY PREDICTED BY RF-SCORE:    0.00 PKD
ROOT
HETATM    1  C   UNL     1     -11.271  12.388  64.976  1.00  0.00    -0.312 C  
ENDROOT
BRANCH   1   2
HETATM    2  C   UNL     1     -12.766  12.124  65.246  1.00  0.00     0.539 C  
HETATM    3  C   UNL     1     -13.680  12.282  64.042  1.00  0.00     1.381 C  
ENDBRANCH   1   2
BRANCH   1   4
HETATM    4  N   UNL     1     -10.889  11.719  63.726  1.00  0.00    -0.385 NA 
HETATM    5  H   UNL     1     -11.616  11.503  63.044  1.00  0.00     0.000 HD 
BRANCH   4   6
HETATM    6  C   UNL     1      -9.585  11.370  63.440  1.00  0.00    -0.329 A  
HETATM    7  C   UNL     1      -7.762   9.841  63.293  1.00  0.00    -0.138 A  
HETATM    8  N   UNL     1      -6.851  10.742  62.904  1.00  0.00     0.034 NA 
HETATM    9  N   UNL     1      -9.706   8.855  63.938  1.00  0.00     0.663 NA 
HETATM   10  C   UNL     1      -7.413  11.959  62.806  1.00  0.00     2.123 A  
HETATM   11  C   UNL     1      -8.733   7.958  63.909  1.00  0.00     0.531 A  
HETATM   12  H   UNL     1     -10.685   8.702  64.182  1.00  0.00     0.000 HD 
HETATM   13  N   UNL     1      -8.691  12.319  63.051  1.00  0.00     0.968 NA 
HETATM   14  C   UNL     1      -9.105  10.046  63.564  1.00  0.00    -0.272 A  
HETATM   15  N   UNL     1      -7.545   8.510  63.517  1.00  0.00    -0.120 NA 
ENDBRANCH   4   6
ENDBRANCH   1   4
BRANCH   1  16
HETATM   16  C   UNL     1     -10.325  11.852  66.116  1.00  0.00    -0.226 C  
HETATM   17  O   UNL     1      -8.946  12.800  69.290  1.00  0.00     0.606 OA 
HETATM   18  N   UNL     1      -9.958  10.601  66.037  1.00  0.00    -0.229 NA 
HETATM   19  C   UNL     1      -9.148  10.057  67.039  1.00  0.00    -0.142 A  
HETATM   20  N   UNL     1      -9.962  12.664  67.190  1.00  0.00    -0.215 N  
HETATM   21  C   UNL     1      -9.256  12.153  68.290  1.00  0.00    -0.192 C  
HETATM   22  C   UNL     1      -8.657   8.756  66.875  1.00  0.00    -0.120 A  
HETATM   23  C   UNL     1      -8.817  10.755  68.196  1.00  0.00    -0.133 A  
HETATM   24  C   UNL     1      -7.868   8.155  67.862  1.00  0.00    -0.122 A  
HETATM   25  C   UNL     1      -7.582   8.847  69.034  1.00  0.00    -0.085 A  
HETATM   26  F   UNL     1      -7.759  10.777  70.339  1.00  0.00     0.112 F  
HETATM   27  C   UNL     1      -8.058  10.144  69.197  1.00  0.00    -0.134 A  
BRANCH  20  28
HETATM   28  C   UNL     1     -10.290  14.053  67.252  1.00  0.00    -0.264 A  
HETATM   29  C   UNL     1      -9.516  15.012  66.588  1.00  0.00    -0.288 A  
HETATM   30  C   UNL     1      -9.892  16.358  66.617  1.00  0.00    -0.272 A  
HETATM   31  C   UNL     1     -11.032  16.753  67.316  1.00  0.00    -0.040 A  
HETATM   32  C   UNL     1     -11.776  15.812  68.022  1.00  0.00    -0.116 A  
HETATM   33  C   UNL     1     -11.394  14.472  68.010  1.00  0.00    -0.326 A  
ENDBRANCH  20  28
ENDBRANCH   1  16
TORSDOF 5
ENDMDL
MODEL      209
REMARK 921   NORMALIZED FREE ENERGY PREDICTED BY IDOCK:   20.89 KCAL/MOL
REMARK 922        TOTAL FREE ENERGY PREDICTED BY IDOCK:   26.93 KCAL/MOL
REMARK 923 INTER-LIGAND FREE ENERGY PREDICTED BY IDOCK:   13.28 KCAL/MOL
REMARK 924 INTRA-LIGAND FREE ENERGY PREDICTED BY IDOCK:   13.65 KCAL/MOL
REMARK 927      BINDING AFFINITY PREDICTED BY RF-SCORE:    0.00 PKD
ROOT
HETATM    1  C   UNL     1      -9.543  13.893  67.876  1.00  0.00    -0.227 C  
ENDROOT
BRANCH   1   2
HETATM    2  C   UNL     1     -10.378  14.912  67.076  1.00  0.00    -0.264 C  
HETATM    3  C   UNL     1     -10.600  16.250  67.763  1.00  0.00    -0.314 C  
ENDBRANCH   1   2
BRANCH   1   4
HETATM    4  N   UNL     1      -8.507  13.335  66.999  1.00  0.00    -0.360 NA 
HETATM    5  H   UNL     1      -8.572  13.504  65.995  1.00  0.00     0.000 HD 
BRANCH   4   6
HETATM    6  C   UNL     1      -7.449  12.591  67.480  1.00  0.00    -0.151 A  
HETATM    7  C   UNL     1      -6.433  11.025  68.961  1.00  0.00    -0.056 A  
HETATM    8  N   UNL     1      -5.193  11.146  68.470  1.00  0.00    -0.043 NA 
HETATM    9  N   UNL     1      -8.666  11.269  69.312  1.00  0.00    -0.370 NA 
HETATM   10  C   UNL     1      -5.179  12.033  67.459  1.00  0.00    -0.089 A  
HETATM   11  C   UNL     1      -8.162  10.413  70.187  1.00  0.00     0.370 A  
HETATM   12  H   UNL     1      -9.637  11.568  69.224  1.00  0.00     0.000 HD 
HETATM   13  N   UNL     1      -6.204  12.749  66.952  1.00  0.00    -0.062 NA 
HETATM   14  C   UNL     1      -7.585  11.670  68.543  1.00  0.00    -0.127 A  
HETATM   15  N   UNL     1      -6.819  10.231  70.005  1.00  0.00    -0.131 NA 
ENDBRANCH   4   6
ENDBRANCH   1   4
BRANCH   1  16
HETATM   16  C   UNL     1     -10.394  12.691  68.438  1.00  0.00    -0.235 C  
HETATM   17  O   UNL     1     -13.114  10.526  67.549  1.00  0.00     5.621 OA 
HETATM   18  N   UNL     1      -9.974  12.139  69.544  1.00  0.00     0.720 NA 
HETATM   19  C   UNL     1     -10.666  11.044  70.073  1.00  0.00     0.116 A  
HETATM   20  N   UNL     1     -11.499  12.204  67.739  1.00  0.00    -0.309 N  
HETATM   21  C   UNL     1     -12.165  11.037  68.144  1.00  0.00     0.500 C  
HETATM   22  C   UNL     1     -10.282  10.547  71.324  1.00  0.00     2.393 A  
HETATM   23  C   UNL     1     -11.715  10.426  69.401  1.00  0.00    -0.231 A  
HETATM   24  C   UNL     1     -10.922   9.435  71.883  1.00  0.00    -0.143 A  
HETATM   25  C   UNL     1     -11.940   8.799  71.181  1.00  0.00    -0.331 A  
HETATM   26  F   UNL     1     -13.317   8.656  69.298  1.00  0.00     3.647 F  
HETATM   27  C   UNL     1     -12.332   9.296  69.942  1.00  0.00     0.840 A  
BRANCH  20  28
HETATM   28  C   UNL     1     -12.016  12.843  66.571  1.00  0.00    -0.377 A  
HETATM   29  C   UNL     1     -11.417  12.662  65.319  1.00  0.00    -0.368 A  
HETATM   30  C   UNL     1     -11.976  13.253  64.183  1.00  0.00    -0.505 A  
HETATM   31  C   UNL     1     -13.126  14.034  64.292  1.00  0.00     0.808 A  
HETATM   32  C   UNL     1     -13.696  14.262  65.542  1.00  0.00     1.714 A  
HETATM   33  C   UNL     1     -13.131  13.689  66.679  1.00  0.00     1.245 A  
ENDBRANCH  20  28
ENDBRANCH   1  16
TORSDOF 5
ENDMDL
MODEL      210
REMARK 921   NORMALIZED FREE ENERGY PREDICTED BY IDOCK:   28.44 KCAL/MOL
REMARK 922        TOTAL FREE ENERGY PREDICTED BY IDOCK:   36.69 KCAL/MOL
REMARK 923 INTER-LIGAND FREE ENERGY PREDICTED BY IDOCK:   33.98 KCAL/MOL
REMARK 924 INTRA-LIGAND FREE ENERGY PREDICTED BY IDOCK:    2.71 KCAL/MOL
REMARK 927      BINDING AFFINITY PREDICTED BY RF-SCORE:    0.00 PKD
ROOT
HETATM    1  C   UNL     1      -7.392  15.838  69.751  1.00  0.00    -0.016 C  
ENDROOT
BRANCH   1   2
HETATM    2  C   UNL     1      -6.046  16.412  70.237  1.00  0.00     0.005 C  
HETATM    3  C   UNL     1      -5.396  15.658  71.385  1.00  0.00     0.051 C  
ENDBRANCH   1   2
BRANCH   1   4
HETATM    4  N   UNL     1      -8.441  16.212  70.707  1.00  0.00     2.908 NA 
HETATM    5  H   UNL     1      -8.498  15.710  71.593  1.00  0.00     0.000 HD 
BRANCH   4   6
HETATM    6  C   UNL     1      -9.353  17.216  70.453  1.00  0.00     2.754 A  
HETATM    7  C   UNL     1     -10.959  18.860  71.088  1.00  0.00     3.880 A  
HETATM    8  N   UNL     1     -11.285  19.229  69.843  1.00  0.00     3.051 NA 
HETATM    9  N   UNL     1      -9.990  17.823  72.864  1.00  0.00     7.522 NA 
HETATM   10  C   UNL     1     -10.576  18.521  68.947  1.00  0.00     0.262 A  
HETATM   11  C   UNL     1     -10.891  18.696  73.287  1.00  0.00     2.807 A  
HETATM   12  H   UNL     1      -9.395  17.220  73.432  1.00  0.00     0.000 HD 
HETATM   13  N   UNL     1      -9.658  17.557  69.171  1.00  0.00    -0.121 NA 
HETATM   14  C   UNL     1     -10.032  17.908  71.482  1.00  0.00     5.464 A  
HETATM   15  N   UNL     1     -11.493  19.348  72.247  1.00  0.00     6.724 NA 
ENDBRANCH   4   6
ENDBRANCH   1   4
BRANCH   1  16
HETATM   16  C   UNL     1      -7.395  14.267  69.626  1.00  0.00     0.110 C  
HETATM   17  O   UNL     1      -8.714  11.620  67.595  1.00  0.00    -0.147 OA 
HETATM   18  N   UNL     1      -6.574  13.614  70.403  1.00  0.00     0.141 NA 
HETATM   19  C   UNL     1      -6.504  12.220  70.313  1.00  0.00     0.304 A  
HETATM   20  N   UNL     1      -8.189  13.623  68.677  1.00  0.00    -0.107 N  
HETATM   21  C   UNL     1      -8.080  12.243  68.447  1.00  0.00    -0.151 C  
HETATM   22  C   UNL     1      -5.717  11.524  71.240  1.00  0.00     0.233 A  
HETATM   23  C   UNL     1      -7.180  11.498  69.334  1.00  0.00     0.001 A  
HETATM   24  C   UNL     1      -5.590  10.133  71.174  1.00  0.00    -0.074 A  
HETATM   25  C   UNL     1      -6.235   9.427  70.164  1.00  0.00    -0.055 A  
HETATM   26  F   UNL     1      -7.632   9.396  68.291  1.00  0.00    -0.080 F  
HETATM   27  C   UNL     1      -7.026  10.112  69.247  1.00  0.00    -0.068 A  
BRANCH  20  28
HETATM   28  C   UNL     1      -9.147  14.315  67.875  1.00  0.00    -0.190 A  
HETATM   29  C   UNL     1     -10.236  14.977  68.454  1.00  0.00    -0.228 A  
HETATM   30  C   UNL     1     -11.127  15.694  67.651  1.00  0.00    -0.305 A  
HETATM   31  C   UNL     1     -10.941  15.746  66.270  1.00  0.00    -0.163 A  
HETATM   32  C   UNL     1      -9.890  15.047  65.682  1.00  0.00    -0.380 A  
HETATM   33  C   UNL     1      -9.011  14.316  66.478  1.00  0.00    -0.161 A  
ENDBRANCH  20  28
ENDBRANCH   1  16
TORSDOF 5
ENDMDL
MODEL      211
REMARK 921   NORMALIZED FREE ENERGY PREDICTED BY IDOCK:   29.34 KCAL/MOL
REMARK 922        TOTAL FREE ENERGY PREDICTED BY IDOCK:   37.85 KCAL/MOL
REMARK 923 INTER-LIGAND FREE ENERGY PREDICTED BY IDOCK:   28.59 KCAL/MOL
REMARK 924 INTRA-LIGAND FREE ENERGY PREDICTED BY IDOCK:    9.26 KCAL/MOL
REMARK 927      BINDING AFFINITY PREDICTED BY RF-SCORE:    0.00 PKD
ROOT
HETATM    1  C   UNL     1     -11.366  12.522  65.246  1.00  0.00    -0.324 C  
ENDROOT
BRANCH   1   2
HETATM    2  C   UNL     1     -12.452  11.511  65.660  1.00  0.00     1.961 C  
HETATM    3  C   UNL     1     -13.482  11.189  64.590  1.00  0.00     4.589 C  
ENDBRANCH   1   2
BRANCH   1   4
HETATM    4  N   UNL     1     -10.579  11.950  64.146  1.00  0.00    -0.317 NA 
HETATM    5  H   UNL     1     -10.852  12.161  63.186  1.00  0.00     0.000 HD 
BRANCH   4   6
HETATM    6  C   UNL     1      -9.484  11.138  64.362  1.00  0.00    -0.220 A  
HETATM    7  C   UNL     1      -8.145   9.203  63.976  1.00  0.00    -0.151 A  
HETATM    8  N   UNL     1      -7.235   9.469  64.921  1.00  0.00    -0.106 NA 
HETATM    9  N   UNL     1      -9.948   9.333  62.596  1.00  0.00     0.512 NA 
HETATM   10  C   UNL     1      -7.538  10.619  65.549  1.00  0.00    -0.072 A  
HETATM   11  C   UNL     1      -9.270   8.223  62.351  1.00  0.00     0.904 A  
HETATM   12  H   UNL     1     -10.794   9.661  62.130  1.00  0.00     0.000 HD 
HETATM   13  N   UNL     1      -8.584  11.444  65.335  1.00  0.00     0.059 NA 
HETATM   14  C   UNL     1      -9.257   9.952  63.625  1.00  0.00    -0.240 A  
HETATM   15  N   UNL     1      -8.171   8.110  63.156  1.00  0.00    -0.127 NA 
ENDBRANCH   4   6
ENDBRANCH   1   4
BRANCH   1  16
HETATM   16  C   UNL     1     -10.369  12.884  66.411  1.00  0.00    -0.268 C  
HETATM   17  O   UNL     1      -9.890  15.267  69.050  1.00  0.00    -0.208 OA 
HETATM   18  N   UNL     1      -9.426  12.019  66.669  1.00  0.00    -0.211 NA 
HETATM   19  C   UNL     1      -8.532  12.266  67.716  1.00  0.00    -0.163 A  
HETATM   20  N   UNL     1     -10.540  14.042  67.170  1.00  0.00    -0.273 N  
HETATM   21  C   UNL     1      -9.761  14.293  68.310  1.00  0.00    -0.221 C  
HETATM   22  C   UNL     1      -7.449  11.396  67.897  1.00  0.00    -0.095 A  
HETATM   23  C   UNL     1      -8.681  13.338  68.590  1.00  0.00     0.032 A  
HETATM   24  C   UNL     1      -6.545  11.582  68.948  1.00  0.00    -0.073 A  
HETATM   25  C   UNL     1      -6.731  12.633  69.841  1.00  0.00     0.243 A  
HETATM   26  F   UNL     1      -7.941  14.505  70.540  1.00  0.00     0.465 F  
HETATM   27  C   UNL     1      -7.799  13.505  69.660  1.00  0.00     0.945 A  
BRANCH  20  28
HETATM   28  C   UNL     1     -11.517  15.034  66.853  1.00  0.00    -0.263 A  
HETATM   29  C   UNL     1     -11.148  16.268  66.305  1.00  0.00     0.137 A  
HETATM   30  C   UNL     1     -12.128  17.199  65.950  1.00  0.00     3.567 A  
HETATM   31  C   UNL     1     -13.476  16.908  66.150  1.00  0.00    10.029 A  
HETATM   32  C   UNL     1     -13.849  15.705  66.743  1.00  0.00     7.036 A  
HETATM   33  C   UNL     1     -12.873  14.782  67.115  1.00  0.00     1.448 A  
ENDBRANCH  20  28
ENDBRANCH   1  16
TORSDOF 5
ENDMDL
MODEL      212
REMARK 921   NORMALIZED FREE ENERGY PREDICTED BY IDOCK:   38.21 KCAL/MOL
REMARK 922        TOTAL FREE ENERGY PREDICTED BY IDOCK:   49.31 KCAL/MOL
REMARK 923 INTER-LIGAND FREE ENERGY PREDICTED BY IDOCK:   33.94 KCAL/MOL
REMARK 924 INTRA-LIGAND FREE ENERGY PREDICTED BY IDOCK:   15.37 KCAL/MOL
REMARK 927      BINDING AFFINITY PREDICTED BY RF-SCORE:    0.00 PKD
ROOT
HETATM    1  C   UNL     1     -11.812  18.072  67.509  1.00  0.00     2.132 C  
ENDROOT
BRANCH   1   2
HETATM    2  C   UNL     1     -10.768  19.132  67.106  1.00  0.00    -0.567 C  
HETATM    3  C   UNL     1     -10.460  19.207  65.619  1.00  0.00    -0.269 C  
ENDBRANCH   1   2
BRANCH   1   4
HETATM    4  N   UNL     1     -11.775  17.900  68.967  1.00  0.00     1.644 NA 
HETATM    5  H   UNL     1     -11.232  18.559  69.525  1.00  0.00     0.000 HD 
BRANCH   4   6
HETATM    6  C   UNL     1     -12.446  16.881  69.611  1.00  0.00     3.122 A  
HETATM    7  C   UNL     1     -12.694  15.209  71.292  1.00  0.00    -0.369 A  
HETATM    8  N   UNL     1     -13.858  14.724  70.841  1.00  0.00    -0.198 NA 
HETATM    9  N   UNL     1     -10.801  16.444  71.531  1.00  0.00     0.642 NA 
HETATM   10  C   UNL     1     -14.249  15.398  69.745  1.00  0.00     3.127 A  
HETATM   11  C   UNL     1     -10.858  15.517  72.475  1.00  0.00     0.951 A  
HETATM   12  H   UNL     1     -10.073  17.145  71.393  1.00  0.00     0.000 HD 
HETATM   13  N   UNL     1     -13.626  16.417  69.116  1.00  0.00     3.344 NA 
HETATM   14  C   UNL     1     -11.944  16.252  70.774  1.00  0.00    -0.015 A  
HETATM   15  N   UNL     1     -11.988  14.755  72.371  1.00  0.00    -0.269 NA 
ENDBRANCH   4   6
ENDBRANCH   1   4
BRANCH   1  16
HETATM   16  C   UNL     1     -11.557  16.661  66.854  1.00  0.00     0.938 C  
HETATM   17  O   UNL     1      -9.079  14.834  65.012  1.00  0.00     0.967 OA 
HETATM   18  N   UNL     1     -12.430  15.726  67.111  1.00  0.00     1.470 NA 
HETATM   19  C   UNL     1     -12.240  14.443  66.588  1.00  0.00    -0.311 A  
HETATM   20  N   UNL     1     -10.412  16.418  66.095  1.00  0.00    -0.328 N  
HETATM   21  C   UNL     1     -10.094  15.128  65.643  1.00  0.00    -0.363 C  
HETATM   22  C   UNL     1     -13.249  13.488  66.763  1.00  0.00     2.275 A  
HETATM   23  C   UNL     1     -11.084  14.077  65.906  1.00  0.00    -0.301 A  
HETATM   24  C   UNL     1     -13.093  12.182  66.286  1.00  0.00     3.645 A  
HETATM   25  C   UNL     1     -11.914  11.817  65.644  1.00  0.00     0.164 A  
HETATM   26  F   UNL     1      -9.795  12.374  64.835  1.00  0.00    -0.260 F  
HETATM   27  C   UNL     1     -10.914  12.765  65.458  1.00  0.00    -0.280 A  
BRANCH  20  28
HETATM   28  C   UNL     1      -9.488  17.448  65.740  1.00  0.00     0.144 A  
HETATM   29  C   UNL     1      -9.659  18.207  64.577  1.00  0.00     5.950 A  
HETATM   30  C   UNL     1      -8.773  19.247  64.283  1.00  0.00     6.821 A  
HETATM   31  C   UNL     1      -7.710  19.526  65.140  1.00  0.00     0.721 A  
HETATM   32  C   UNL     1      -7.503  18.742  66.271  1.00  0.00    -0.288 A  
HETATM   33  C   UNL     1      -8.374  17.693  66.558  1.00  0.00    -0.300 A  
ENDBRANCH  20  28
ENDBRANCH   1  16
TORSDOF 5
ENDMDL
MODEL      213
REMARK 921   NORMALIZED FREE ENERGY PREDICTED BY IDOCK:   52.07 KCAL/MOL
REMARK 922        TOTAL FREE ENERGY PREDICTED BY IDOCK:   67.22 KCAL/MOL
REMARK 923 INTER-LIGAND FREE ENERGY PREDICTED BY IDOCK:   63.35 KCAL/MOL
REMARK 924 INTRA-LIGAND FREE ENERGY PREDICTED BY IDOCK:    3.87 KCAL/MOL
REMARK 927      BINDING AFFINITY PREDICTED BY RF-SCORE:    0.00 PKD
ROOT
HETATM    1  C   UNL     1      -9.889  14.084  67.992  1.00  0.00    -0.228 C  
ENDROOT
BRANCH   1   2
HETATM    2  C   UNL     1     -10.760  14.945  67.057  1.00  0.00    -0.307 C  
HETATM    3  C   UNL     1     -10.069  15.436  65.795  1.00  0.00    -0.391 C  
ENDBRANCH   1   2
BRANCH   1   4
HETATM    4  N   UNL     1      -9.270  13.008  67.207  1.00  0.00    -0.205 NA 
HETATM    5  H   UNL     1      -9.841  12.507  66.527  1.00  0.00     0.000 HD 
BRANCH   4   6
HETATM    6  C   UNL     1      -7.946  12.650  67.355  1.00  0.00    -0.177 A  
HETATM    7  C   UNL     1      -5.960  12.265  68.617  1.00  0.00    -0.055 A  
HETATM    8  N   UNL     1      -5.179  11.973  67.570  1.00  0.00    -0.078 NA 
HETATM    9  N   UNL     1      -7.747  12.824  69.908  1.00  0.00     0.836 NA 
HETATM   10  C   UNL     1      -5.886  12.045  66.428  1.00  0.00     0.541 A  
HETATM   11  C   UNL     1      -6.675  12.658  70.667  1.00  0.00     1.514 A  
HETATM   12  H   UNL     1      -8.690  13.070  70.209  1.00  0.00     0.000 HD 
HETATM   13  N   UNL     1      -7.187  12.364  66.262  1.00  0.00     0.796 NA 
HETATM   14  C   UNL     1      -7.307  12.592  68.615  1.00  0.00    -0.099 A  
HETATM   15  N   UNL     1      -5.578  12.313  69.929  1.00  0.00    -0.099 NA 
ENDBRANCH   4   6
ENDBRANCH   1   4
BRANCH   1  16
HETATM   16  C   UNL     1     -10.701  13.415  69.165  1.00  0.00    -0.060 C  
HETATM   17  O   UNL     1     -14.045  13.076  70.421  1.00  0.00     2.337 OA 
HETATM   18  N   UNL     1     -10.052  12.579  69.929  1.00  0.00     1.599 NA 
HETATM   19  C   UNL     1     -10.727  11.926  70.965  1.00  0.00     4.073 A  
HETATM   20  N   UNL     1     -12.066  13.658  69.324  1.00  0.00    -0.335 N  
HETATM   21  C   UNL     1     -12.832  12.947  70.261  1.00  0.00     0.278 C  
HETATM   22  C   UNL     1      -9.991  11.134  71.855  1.00  0.00     9.807 A  
HETATM   23  C   UNL     1     -12.104  12.026  71.141  1.00  0.00     0.056 A  
HETATM   24  C   UNL     1     -10.623  10.436  72.889  1.00  0.00     8.435 A  
HETATM   25  C   UNL     1     -12.005  10.509  73.027  1.00  0.00     5.194 A  
HETATM   26  F   UNL     1     -14.069  11.347  72.320  1.00  0.00    -0.087 F  
HETATM   27  C   UNL     1     -12.740  11.302  72.152  1.00  0.00     0.196 A  
BRANCH  20  28
HETATM   28  C   UNL     1     -12.772  14.626  68.547  1.00  0.00     0.770 A  
HETATM   29  C   UNL     1     -13.186  14.346  67.240  1.00  0.00     2.948 A  
HETATM   30  C   UNL     1     -13.926  15.289  66.522  1.00  0.00     6.458 A  
HETATM   31  C   UNL     1     -14.245  16.518  67.099  1.00  0.00    10.344 A  
HETATM   32  C   UNL     1     -13.791  16.824  68.379  1.00  0.00     7.515 A  
HETATM   33  C   UNL     1     -13.038  15.893  69.091  1.00  0.00     1.775 A  
ENDBRANCH  20  28
ENDBRANCH   1  16
TORSDOF 5
ENDMDL
