MODEL        1
REMARK 921   NORMALIZED FREE ENERGY PREDICTED BY IDOCK:   -6.68 KCAL/MOL
REMARK 922        TOTAL FREE ENERGY PREDICTED BY IDOCK:   -7.78 KCAL/MOL
REMARK 923 INTER-LIGAND FREE ENERGY PREDICTED BY IDOCK:   -7.46 KCAL/MOL
REMARK 924 INTRA-LIGAND FREE ENERGY PREDICTED BY IDOCK:   -0.32 KCAL/MOL
REMARK 927      BINDING AFFINITY PREDICTED BY RF-SCORE:    0.00 PKD
ROOT
HETATM    1  O5* UNL     1     -11.656  12.393  70.400  1.00  0.00    -0.530 OA 
HETATM    2  H5* UNL     1     -11.593  12.484  71.343  1.00  0.00     0.000 HD 
HETATM    3  C5* UNL     1     -11.607  11.024  70.001  1.00  0.00    -0.344 C  
ENDROOT
BRANCH   3   4
HETATM    4  C4* UNL     1     -11.707  10.878  68.484  1.00  0.00    -0.237 C  
HETATM    5  O4* UNL     1     -12.033  12.131  67.855  1.00  0.00    -0.489 OA 
HETATM    6  C1* UNL     1     -11.632  11.980  66.484  1.00  0.00    -0.314 C  
HETATM    7  H3* UNL     1      -9.671   8.696  67.179  1.00  0.00     0.000 HD 
HETATM    8  C2* UNL     1     -10.341  11.168  66.521  1.00  0.00    -0.290 C  
HETATM    9  C3* UNL     1     -10.416  10.399  67.825  1.00  0.00    -0.226 C  
HETATM   10  O3* UNL     1     -10.474   8.994  67.589  1.00  0.00    -0.245 OA 
BRANCH   6  11
HETATM   11  N   UNL     1     -11.509  13.265  65.801  1.00  0.00    -0.315 N  
HETATM   12  C   UNL     1     -10.751  15.536  65.791  1.00  0.00    -0.353 C  
HETATM   13  C   UNL     1     -10.788  14.316  66.345  1.00  0.00    -0.307 C  
HETATM   14  I   UNL     1      -9.727  17.093  66.631  1.00  0.00    -0.323 I  
HETATM   15  C   UNL     1     -11.515  15.748  64.531  1.00  0.00    -0.289 C  
HETATM   16  O   UNL     1     -11.612  16.834  63.971  1.00  0.00    -1.195 OA 
HETATM   17  N   UNL     1     -12.134  14.640  64.020  1.00  0.00    -0.858 N  
HETATM   18  C   UNL     1     -12.225  13.414  64.620  1.00  0.00    -0.407 C  
HETATM   19  H   UNL     1     -12.569  14.737  63.103  1.00  0.00     0.000 HD 
HETATM   20  O   UNL     1     -12.916  12.532  64.117  1.00  0.00    -0.740 OA 
ENDBRANCH   6  11
ENDBRANCH   3   4
TORSDOF 2
ENDMDL
MODEL        2
REMARK 921   NORMALIZED FREE ENERGY PREDICTED BY IDOCK:   -6.68 KCAL/MOL
REMARK 922        TOTAL FREE ENERGY PREDICTED BY IDOCK:   -7.78 KCAL/MOL
REMARK 923 INTER-LIGAND FREE ENERGY PREDICTED BY IDOCK:   -7.41 KCAL/MOL
REMARK 924 INTRA-LIGAND FREE ENERGY PREDICTED BY IDOCK:   -0.37 KCAL/MOL
REMARK 927      BINDING AFFINITY PREDICTED BY RF-SCORE:    0.00 PKD
ROOT
HETATM    1  O5* UNL     1     -11.583  16.474  63.733  1.00  0.00    -1.617 OA 
HETATM    2  H5* UNL     1     -11.519  17.395  63.509  1.00  0.00     0.000 HD 
HETATM    3  C5* UNL     1     -10.734  16.140  64.830  1.00  0.00    -0.274 C  
ENDROOT
BRANCH   3   4
HETATM    4  C4* UNL     1     -10.836  14.659  65.189  1.00  0.00    -0.401 C  
HETATM    5  O4* UNL     1     -10.828  14.462  66.615  1.00  0.00    -0.295 OA 
HETATM    6  C1* UNL     1     -11.396  13.158  66.817  1.00  0.00    -0.316 C  
HETATM    7  H3* UNL     1     -12.637  12.875  63.145  1.00  0.00     0.000 HD 
HETATM    8  C2* UNL     1     -12.508  13.029  65.781  1.00  0.00    -0.394 C  
HETATM    9  C3* UNL     1     -12.109  13.989  64.678  1.00  0.00    -0.440 C  
HETATM   10  O3* UNL     1     -11.845  13.292  63.463  1.00  0.00    -0.479 OA 
BRANCH   6  11
HETATM   11  N   UNL     1     -11.838  12.958  68.195  1.00  0.00    -0.348 N  
HETATM   12  C   UNL     1     -12.393  13.865  70.340  1.00  0.00    -0.363 C  
HETATM   13  C   UNL     1     -12.092  14.024  69.044  1.00  0.00    -0.323 C  
HETATM   14  I   UNL     1     -12.713  15.447  71.595  1.00  0.00    -0.626 I  
HETATM   15  C   UNL     1     -12.465  12.476  70.869  1.00  0.00    -0.269 C  
HETATM   16  O   UNL     1     -12.664  12.208  72.049  1.00  0.00    -0.185 OA 
HETATM   17  N   UNL     1     -12.280  11.480  69.948  1.00  0.00    -0.279 N  
HETATM   18  C   UNL     1     -11.908  11.645  68.643  1.00  0.00    -0.308 C  
HETATM   19  H   UNL     1     -12.434  10.524  70.267  1.00  0.00     0.000 HD 
HETATM   20  O   UNL     1     -11.650  10.665  67.947  1.00  0.00    -0.491 OA 
ENDBRANCH   6  11
ENDBRANCH   3   4
TORSDOF 2
ENDMDL
MODEL        3
REMARK 921   NORMALIZED FREE ENERGY PREDICTED BY IDOCK:   -6.26 KCAL/MOL
REMARK 922        TOTAL FREE ENERGY PREDICTED BY IDOCK:   -7.31 KCAL/MOL
REMARK 923 INTER-LIGAND FREE ENERGY PREDICTED BY IDOCK:   -6.84 KCAL/MOL
REMARK 924 INTRA-LIGAND FREE ENERGY PREDICTED BY IDOCK:   -0.46 KCAL/MOL
REMARK 927      BINDING AFFINITY PREDICTED BY RF-SCORE:    0.00 PKD
ROOT
HETATM    1  O5* UNL     1      -5.828  18.103  67.915  1.00  0.00    -0.157 OA 
HETATM    2  H5* UNL     1      -4.956  17.846  68.187  1.00  0.00     0.000 HD 
HETATM    3  C5* UNL     1      -6.311  17.281  66.853  1.00  0.00    -0.190 C  
ENDROOT
BRANCH   3   4
HETATM    4  C4* UNL     1      -7.715  17.695  66.416  1.00  0.00    -0.290 C  
HETATM    5  O4* UNL     1      -8.441  16.583  65.859  1.00  0.00    -0.420 OA 
HETATM    6  C1* UNL     1      -9.825  16.959  65.943  1.00  0.00    -0.215 C  
HETATM    7  H3* UNL     1      -9.099  19.998  68.255  1.00  0.00     0.000 HD 
HETATM    8  C2* UNL     1      -9.969  17.706  67.266  1.00  0.00    -0.322 C  
HETATM    9  C3* UNL     1      -8.578  18.236  67.553  1.00  0.00    -0.250 C  
HETATM   10  O3* UNL     1      -8.562  19.661  67.548  1.00  0.00    -0.294 OA 
BRANCH   6  11
HETATM   11  N   UNL     1     -10.717  15.811  65.807  1.00  0.00    -0.333 N  
HETATM   12  C   UNL     1     -11.419  13.642  66.537  1.00  0.00    -0.335 C  
HETATM   13  C   UNL     1     -10.689  14.753  66.702  1.00  0.00    -0.309 C  
HETATM   14  I   UNL     1     -11.330  12.065  67.836  1.00  0.00    -0.410 I  
HETATM   15  C   UNL     1     -12.300  13.563  65.339  1.00  0.00    -0.478 C  
HETATM   16  O   UNL     1     -12.961  12.573  65.047  1.00  0.00    -0.779 OA 
HETATM   17  N   UNL     1     -12.329  14.681  64.550  1.00  0.00    -0.577 N  
HETATM   18  C   UNL     1     -11.535  15.786  64.684  1.00  0.00    -0.282 C  
HETATM   19  H   UNL     1     -13.007  14.690  63.789  1.00  0.00     0.000 HD 
HETATM   20  O   UNL     1     -11.567  16.674  63.835  1.00  0.00    -1.204 OA 
ENDBRANCH   6  11
ENDBRANCH   3   4
TORSDOF 2
ENDMDL
MODEL        4
REMARK 921   NORMALIZED FREE ENERGY PREDICTED BY IDOCK:   -6.24 KCAL/MOL
REMARK 922        TOTAL FREE ENERGY PREDICTED BY IDOCK:   -7.28 KCAL/MOL
REMARK 923 INTER-LIGAND FREE ENERGY PREDICTED BY IDOCK:   -6.82 KCAL/MOL
REMARK 924 INTRA-LIGAND FREE ENERGY PREDICTED BY IDOCK:   -0.46 KCAL/MOL
REMARK 927      BINDING AFFINITY PREDICTED BY RF-SCORE:    0.00 PKD
ROOT
HETATM    1  O5* UNL     1      -7.423  20.631  67.568  1.00  0.00    -0.325 OA 
HETATM    2  H5* UNL     1      -6.540  20.976  67.512  1.00  0.00     0.000 HD 
HETATM    3  C5* UNL     1      -7.772  19.892  66.398  1.00  0.00    -0.304 C  
ENDROOT
BRANCH   3   4
HETATM    4  C4* UNL     1      -9.192  19.338  66.487  1.00  0.00    -0.350 C  
HETATM    5  O4* UNL     1      -9.334  18.128  65.719  1.00  0.00    -0.476 OA 
HETATM    6  C1* UNL     1     -10.498  17.478  66.252  1.00  0.00    -0.283 C  
HETATM    7  H3* UNL     1     -10.679  19.830  69.342  1.00  0.00     0.000 HD 
HETATM    8  C2* UNL     1     -10.453  17.725  67.758  1.00  0.00    -0.402 C  
HETATM    9  C3* UNL     1      -9.628  18.988  67.908  1.00  0.00    -0.318 C  
HETATM   10  O3* UNL     1     -10.407  20.047  68.459  1.00  0.00    -0.438 OA 
BRANCH   6  11
HETATM   11  N   UNL     1     -10.559  16.067  65.882  1.00  0.00    -0.335 N  
HETATM   12  C   UNL     1      -9.924  13.794  66.288  1.00  0.00    -0.305 C  
HETATM   13  C   UNL     1      -9.975  15.080  66.661  1.00  0.00    -0.256 C  
HETATM   14  I   UNL     1      -9.014  12.356  67.420  1.00  0.00    -0.214 I  
HETATM   15  C   UNL     1     -10.535  13.427  64.980  1.00  0.00    -0.365 C  
HETATM   16  O   UNL     1     -10.491  12.299  64.502  1.00  0.00    -0.280 OA 
HETATM   17  N   UNL     1     -11.159  14.446  64.311  1.00  0.00    -0.605 N  
HETATM   18  C   UNL     1     -11.153  15.767  64.663  1.00  0.00    -0.361 C  
HETATM   19  H   UNL     1     -11.679  14.195  63.470  1.00  0.00     0.000 HD 
HETATM   20  O   UNL     1     -11.645  16.606  63.911  1.00  0.00    -1.204 OA 
ENDBRANCH   6  11
ENDBRANCH   3   4
TORSDOF 2
ENDMDL
MODEL        5
REMARK 921   NORMALIZED FREE ENERGY PREDICTED BY IDOCK:   -6.14 KCAL/MOL
REMARK 922        TOTAL FREE ENERGY PREDICTED BY IDOCK:   -7.18 KCAL/MOL
REMARK 923 INTER-LIGAND FREE ENERGY PREDICTED BY IDOCK:   -6.76 KCAL/MOL
REMARK 924 INTRA-LIGAND FREE ENERGY PREDICTED BY IDOCK:   -0.42 KCAL/MOL
REMARK 927      BINDING AFFINITY PREDICTED BY RF-SCORE:    0.00 PKD
ROOT
HETATM    1  O5* UNL     1     -11.468  16.691  63.893  1.00  0.00    -1.604 OA 
HETATM    2  H5* UNL     1     -11.456  17.626  64.056  1.00  0.00     0.000 HD 
HETATM    3  C5* UNL     1     -10.809  15.967  64.931  1.00  0.00    -0.400 C  
ENDROOT
BRANCH   3   4
HETATM    4  C4* UNL     1     -10.829  14.463  64.667  1.00  0.00    -0.346 C  
HETATM    5  O4* UNL     1     -10.139  13.738  65.703  1.00  0.00    -0.302 OA 
HETATM    6  C1* UNL     1     -10.627  12.390  65.607  1.00  0.00    -0.265 C  
HETATM    7  H3* UNL     1     -13.522  13.364  63.203  1.00  0.00     0.000 HD 
HETATM    8  C2* UNL     1     -12.111  12.513  65.270  1.00  0.00    -0.500 C  
HETATM    9  C3* UNL     1     -12.234  13.868  64.601  1.00  0.00    -0.419 C  
HETATM   10  O3* UNL     1     -12.649  13.734  63.244  1.00  0.00    -0.830 OA 
BRANCH   6  11
HETATM   11  N   UNL     1     -10.353  11.619  66.817  1.00  0.00    -0.217 N  
HETATM   12  C   UNL     1     -10.971  10.965  69.035  1.00  0.00    -0.235 C  
HETATM   13  C   UNL     1     -11.247  11.575  67.875  1.00  0.00    -0.279 C  
HETATM   14  I   UNL     1     -12.276  10.953  70.609  1.00  0.00    -0.469 I  
HETATM   15  C   UNL     1      -9.645  10.301  69.170  1.00  0.00    -0.218 C  
HETATM   16  O   UNL     1      -9.253   9.771  70.204  1.00  0.00    -0.234 OA 
HETATM   17  N   UNL     1      -8.855  10.322  68.053  1.00  0.00    -0.122 N  
HETATM   18  C   UNL     1      -9.111  11.001  66.894  1.00  0.00    -0.156 C  
HETATM   19  H   UNL     1      -7.992   9.779  68.088  1.00  0.00     0.000 HD 
HETATM   20  O   UNL     1      -8.263  11.045  66.005  1.00  0.00    -0.164 OA 
ENDBRANCH   6  11
ENDBRANCH   3   4
TORSDOF 2
ENDMDL
MODEL        6
REMARK 921   NORMALIZED FREE ENERGY PREDICTED BY IDOCK:   -6.07 KCAL/MOL
REMARK 922        TOTAL FREE ENERGY PREDICTED BY IDOCK:   -7.10 KCAL/MOL
REMARK 923 INTER-LIGAND FREE ENERGY PREDICTED BY IDOCK:   -6.78 KCAL/MOL
REMARK 924 INTRA-LIGAND FREE ENERGY PREDICTED BY IDOCK:   -0.32 KCAL/MOL
REMARK 927      BINDING AFFINITY PREDICTED BY RF-SCORE:    0.00 PKD
ROOT
HETATM    1  O5* UNL     1     -10.100  10.538  62.349  1.00  0.00    -0.746 OA 
HETATM    2  H5* UNL     1      -9.329  10.445  61.803  1.00  0.00     0.000 HD 
HETATM    3  C5* UNL     1      -9.864  11.422  63.444  1.00  0.00    -0.396 C  
ENDROOT
BRANCH   3   4
HETATM    4  C4* UNL     1     -11.105  11.571  64.322  1.00  0.00    -0.315 C  
HETATM    5  O4* UNL     1     -10.758  11.990  65.656  1.00  0.00    -0.255 OA 
HETATM    6  C1* UNL     1     -11.967  12.540  66.203  1.00  0.00    -0.366 C  
HETATM    7  H3* UNL     1     -13.775  12.592  62.762  1.00  0.00     0.000 HD 
HETATM    8  C2* UNL     1     -12.641  13.278  65.050  1.00  0.00    -0.483 C  
HETATM    9  C3* UNL     1     -12.106  12.600  63.804  1.00  0.00    -0.522 C  
HETATM   10  O3* UNL     1     -13.152  11.952  63.085  1.00  0.00    -0.605 OA 
BRANCH   6  11
HETATM   11  N   UNL     1     -11.711  13.373  67.375  1.00  0.00    -0.352 N  
HETATM   12  C   UNL     1     -10.939  15.434  68.317  1.00  0.00    -0.288 C  
HETATM   13  C   UNL     1     -11.283  14.687  67.260  1.00  0.00    -0.337 C  
HETATM   14  I   UNL     1     -10.258  17.353  68.132  1.00  0.00    -0.390 I  
HETATM   15  C   UNL     1     -11.036  14.813  69.667  1.00  0.00    -0.272 C  
HETATM   16  O   UNL     1     -10.685  15.372  70.699  1.00  0.00    -0.312 OA 
HETATM   17  N   UNL     1     -11.542  13.541  69.698  1.00  0.00    -0.379 N  
HETATM   18  C   UNL     1     -11.831  12.758  68.615  1.00  0.00    -0.304 C  
HETATM   19  H   UNL     1     -11.721  13.139  70.618  1.00  0.00     0.000 HD 
HETATM   20  O   UNL     1     -12.162  11.586  68.773  1.00  0.00    -0.457 OA 
ENDBRANCH   6  11
ENDBRANCH   3   4
TORSDOF 2
ENDMDL
MODEL        7
REMARK 921   NORMALIZED FREE ENERGY PREDICTED BY IDOCK:   -6.07 KCAL/MOL
REMARK 922        TOTAL FREE ENERGY PREDICTED BY IDOCK:   -7.10 KCAL/MOL
REMARK 923 INTER-LIGAND FREE ENERGY PREDICTED BY IDOCK:   -7.28 KCAL/MOL
REMARK 924 INTRA-LIGAND FREE ENERGY PREDICTED BY IDOCK:    0.18 KCAL/MOL
REMARK 927      BINDING AFFINITY PREDICTED BY RF-SCORE:    0.00 PKD
ROOT
HETATM    1  O5* UNL     1     -11.487  16.579  63.801  1.00  0.00    -1.615 OA 
HETATM    2  H5* UNL     1     -11.473  17.527  63.859  1.00  0.00     0.000 HD 
HETATM    3  C5* UNL     1     -10.952  15.972  64.977  1.00  0.00    -0.380 C  
ENDROOT
BRANCH   3   4
HETATM    4  C4* UNL     1     -10.975  14.448  64.882  1.00  0.00    -0.406 C  
HETATM    5  O4* UNL     1     -10.509  13.839  66.101  1.00  0.00    -0.286 OA 
HETATM    6  C1* UNL     1     -11.017  12.496  66.068  1.00  0.00    -0.283 C  
HETATM    7  H3* UNL     1     -13.392  13.222  63.077  1.00  0.00     0.000 HD 
HETATM    8  C2* UNL     1     -12.409  12.598  65.451  1.00  0.00    -0.499 C  
HETATM    9  C3* UNL     1     -12.363  13.868  64.624  1.00  0.00    -0.388 C  
HETATM   10  O3* UNL     1     -12.528  13.583  63.238  1.00  0.00    -0.763 OA 
BRANCH   6  11
HETATM   11  N   UNL     1     -10.994  11.866  67.385  1.00  0.00    -0.248 N  
HETATM   12  C   UNL     1     -10.698   9.912  68.737  1.00  0.00    -0.220 C  
HETATM   13  C   UNL     1     -10.624  10.541  67.556  1.00  0.00    -0.259 C  
HETATM   14  I   UNL     1     -10.201   7.942  68.966  1.00  0.00    -0.193 I  
HETATM   15  C   UNL     1     -11.192  10.690  69.906  1.00  0.00    -0.308 C  
HETATM   16  O   UNL     1     -11.368  10.206  71.019  1.00  0.00    -0.347 OA 
HETATM   17  N   UNL     1     -11.460  12.011  69.669  1.00  0.00    -0.439 N  
HETATM   18  C   UNL     1     -11.446  12.633  68.451  1.00  0.00    -0.310 C  
HETATM   19  H   UNL     1     -11.692  12.587  70.478  1.00  0.00     0.000 HD 
HETATM   20  O   UNL     1     -11.828  13.797  68.350  1.00  0.00    -0.341 OA 
ENDBRANCH   6  11
ENDBRANCH   3   4
TORSDOF 2
ENDMDL
MODEL        8
REMARK 921   NORMALIZED FREE ENERGY PREDICTED BY IDOCK:   -5.98 KCAL/MOL
REMARK 922        TOTAL FREE ENERGY PREDICTED BY IDOCK:   -7.00 KCAL/MOL
REMARK 923 INTER-LIGAND FREE ENERGY PREDICTED BY IDOCK:   -6.71 KCAL/MOL
REMARK 924 INTRA-LIGAND FREE ENERGY PREDICTED BY IDOCK:   -0.29 KCAL/MOL
REMARK 927      BINDING AFFINITY PREDICTED BY RF-SCORE:    0.00 PKD
ROOT
HETATM    1  O5* UNL     1     -12.212  11.470  63.312  1.00  0.00    -0.861 OA 
HETATM    2  H5* UNL     1     -12.157  11.052  62.461  1.00  0.00     0.000 HD 
HETATM    3  C5* UNL     1     -12.086  12.888  63.209  1.00  0.00    -0.440 C  
ENDROOT
BRANCH   3   4
HETATM    4  C4* UNL     1     -12.174  13.560  64.578  1.00  0.00    -0.398 C  
HETATM    5  O4* UNL     1     -12.300  12.588  65.634  1.00  0.00    -0.615 OA 
HETATM    6  C1* UNL     1     -11.897  13.277  66.828  1.00  0.00    -0.394 C  
HETATM    7  H3* UNL     1     -10.449  16.306  64.869  1.00  0.00     0.000 HD 
HETATM    8  C2* UNL     1     -10.738  14.178  66.411  1.00  0.00    -0.288 C  
HETATM    9  C3* UNL     1     -10.952  14.406  64.928  1.00  0.00    -0.406 C  
HETATM   10  O3* UNL     1     -11.209  15.780  64.652  1.00  0.00    -0.445 OA 
BRANCH   6  11
HETATM   11  N   UNL     1     -11.573  12.354  67.912  1.00  0.00    -0.336 N  
HETATM   12  C   UNL     1     -10.898  10.175  68.640  1.00  0.00    -0.235 C  
HETATM   13  C   UNL     1     -11.099  11.074  67.667  1.00  0.00    -0.300 C  
HETATM   14  I   UNL     1     -10.249   8.273  68.261  1.00  0.00    -0.201 I  
HETATM   15  C   UNL     1     -11.194  10.589  70.039  1.00  0.00    -0.315 C  
HETATM   16  O   UNL     1     -11.115   9.835  71.002  1.00  0.00    -0.325 OA 
HETATM   17  N   UNL     1     -11.582  11.892  70.202  1.00  0.00    -0.520 N  
HETATM   18  C   UNL     1     -11.848  12.787  69.203  1.00  0.00    -0.301 C  
HETATM   19  H   UNL     1     -11.682  12.226  71.160  1.00  0.00     0.000 HD 
HETATM   20  O   UNL     1     -12.312  13.893  69.474  1.00  0.00    -0.333 OA 
ENDBRANCH   6  11
ENDBRANCH   3   4
TORSDOF 2
ENDMDL
MODEL        9
REMARK 921   NORMALIZED FREE ENERGY PREDICTED BY IDOCK:   -5.91 KCAL/MOL
REMARK 922        TOTAL FREE ENERGY PREDICTED BY IDOCK:   -6.92 KCAL/MOL
REMARK 923 INTER-LIGAND FREE ENERGY PREDICTED BY IDOCK:   -6.59 KCAL/MOL
REMARK 924 INTRA-LIGAND FREE ENERGY PREDICTED BY IDOCK:   -0.34 KCAL/MOL
REMARK 927      BINDING AFFINITY PREDICTED BY RF-SCORE:    0.00 PKD
ROOT
HETATM    1  O5* UNL     1     -14.147   8.920  73.443  1.00  0.00    -1.256 OA 
HETATM    2  H5* UNL     1     -14.822   8.664  74.060  1.00  0.00     0.000 HD 
HETATM    3  C5* UNL     1     -14.288   8.240  72.197  1.00  0.00    -0.404 C  
ENDROOT
BRANCH   3   4
HETATM    4  C4* UNL     1     -13.202   8.652  71.205  1.00  0.00    -0.148 C  
HETATM    5  O4* UNL     1     -13.390  10.007  70.753  1.00  0.00    -0.350 OA 
HETATM    6  C1* UNL     1     -12.109  10.414  70.246  1.00  0.00    -0.286 C  
HETATM    7  H3* UNL     1     -10.274   7.338  71.756  1.00  0.00     0.000 HD 
HETATM    8  C2* UNL     1     -11.078   9.790  71.183  1.00  0.00    -0.414 C  
HETATM    9  C3* UNL     1     -11.789   8.592  71.780  1.00  0.00    -0.337 C  
HETATM   10  O3* UNL     1     -11.153   7.376  71.398  1.00  0.00    -0.236 OA 
BRANCH   6  11
HETATM   11  N   UNL     1     -12.002  11.866  70.124  1.00  0.00    -0.346 N  
HETATM   12  C   UNL     1     -12.317  14.047  71.059  1.00  0.00    -0.369 C  
HETATM   13  C   UNL     1     -12.303  12.713  71.178  1.00  0.00    -0.145 C  
HETATM   14  I   UNL     1     -12.814  15.285  72.608  1.00  0.00    -0.700 I  
HETATM   15  C   UNL     1     -11.981  14.626  69.728  1.00  0.00    -0.329 C  
HETATM   16  O   UNL     1     -12.027  15.826  69.479  1.00  0.00    -0.361 OA 
HETATM   17  N   UNL     1     -11.619  13.725  68.764  1.00  0.00    -0.303 N  
HETATM   18  C   UNL     1     -11.669  12.363  68.870  1.00  0.00    -0.324 C  
HETATM   19  H   UNL     1     -11.279  14.107  67.881  1.00  0.00     0.000 HD 
HETATM   20  O   UNL     1     -11.437  11.660  67.889  1.00  0.00    -0.279 OA 
ENDBRANCH   6  11
ENDBRANCH   3   4
TORSDOF 2
ENDMDL
MODEL       10
REMARK 921   NORMALIZED FREE ENERGY PREDICTED BY IDOCK:   -5.89 KCAL/MOL
REMARK 922        TOTAL FREE ENERGY PREDICTED BY IDOCK:   -6.89 KCAL/MOL
REMARK 923 INTER-LIGAND FREE ENERGY PREDICTED BY IDOCK:   -7.24 KCAL/MOL
REMARK 924 INTRA-LIGAND FREE ENERGY PREDICTED BY IDOCK:    0.34 KCAL/MOL
REMARK 927      BINDING AFFINITY PREDICTED BY RF-SCORE:    0.00 PKD
ROOT
HETATM    1  O5* UNL     1     -11.638  16.352  63.741  1.00  0.00    -1.605 OA 
HETATM    2  H5* UNL     1     -11.683  17.258  63.461  1.00  0.00     0.000 HD 
HETATM    3  C5* UNL     1     -10.857  16.206  64.926  1.00  0.00    -0.334 C  
ENDROOT
BRANCH   3   4
HETATM    4  C4* UNL     1     -10.786  14.749  65.376  1.00  0.00    -0.371 C  
HETATM    5  O4* UNL     1     -10.769  14.642  66.812  1.00  0.00    -0.291 OA 
HETATM    6  C1* UNL     1     -11.179  13.294  67.093  1.00  0.00    -0.299 C  
HETATM    7  H3* UNL     1     -12.338  12.639  63.441  1.00  0.00     0.000 HD 
HETATM    8  C2* UNL     1     -12.257  12.969  66.063  1.00  0.00    -0.463 C  
HETATM    9  C3* UNL     1     -11.964  13.900  64.904  1.00  0.00    -0.395 C  
HETATM   10  O3* UNL     1     -11.606  13.167  63.735  1.00  0.00    -0.426 OA 
BRANCH   6  11
HETATM   11  N   UNL     1     -11.609  13.127  68.479  1.00  0.00    -0.303 N  
HETATM   12  C   UNL     1     -12.075  11.696  70.340  1.00  0.00    -0.373 C  
HETATM   13  C   UNL     1     -11.586  11.893  69.109  1.00  0.00    -0.312 C  
HETATM   14  I   UNL     1     -12.084   9.859  71.239  1.00  0.00    -0.493 I  
HETATM   15  C   UNL     1     -12.656  12.868  71.051  1.00  0.00    -0.287 C  
HETATM   16  O   UNL     1     -13.194  12.798  72.150  1.00  0.00    -0.475 OA 
HETATM   17  N   UNL     1     -12.568  14.064  70.391  1.00  0.00    -0.331 N  
HETATM   18  C   UNL     1     -12.128  14.250  69.110  1.00  0.00    -0.302 C  
HETATM   19  H   UNL     1     -12.858  14.896  70.904  1.00  0.00     0.000 HD 
HETATM   20  O   UNL     1     -12.215  15.358  68.584  1.00  0.00    -0.175 OA 
ENDBRANCH   6  11
ENDBRANCH   3   4
TORSDOF 2
ENDMDL
MODEL       11
REMARK 921   NORMALIZED FREE ENERGY PREDICTED BY IDOCK:   -5.83 KCAL/MOL
REMARK 922        TOTAL FREE ENERGY PREDICTED BY IDOCK:   -6.84 KCAL/MOL
REMARK 923 INTER-LIGAND FREE ENERGY PREDICTED BY IDOCK:   -6.37 KCAL/MOL
REMARK 924 INTRA-LIGAND FREE ENERGY PREDICTED BY IDOCK:   -0.46 KCAL/MOL
REMARK 927      BINDING AFFINITY PREDICTED BY RF-SCORE:    0.00 PKD
ROOT
HETATM    1  O5* UNL     1     -11.570  16.369  63.813  1.00  0.00    -1.605 OA 
HETATM    2  H5* UNL     1     -11.775  16.659  62.933  1.00  0.00     0.000 HD 
HETATM    3  C5* UNL     1     -12.236  15.147  64.131  1.00  0.00    -0.161 C  
ENDROOT
BRANCH   3   4
HETATM    4  C4* UNL     1     -11.906  14.679  65.546  1.00  0.00    -0.292 C  
HETATM    5  O4* UNL     1     -11.938  13.243  65.647  1.00  0.00    -0.367 OA 
HETATM    6  C1* UNL     1     -11.173  12.931  66.822  1.00  0.00    -0.298 C  
HETATM    7  H3* UNL     1      -9.756  16.538  67.137  1.00  0.00     0.000 HD 
HETATM    8  C2* UNL     1     -10.014  13.924  66.833  1.00  0.00    -0.264 C  
HETATM    9  C3* UNL     1     -10.521  15.104  66.028  1.00  0.00    -0.319 C  
HETATM   10  O3* UNL     1     -10.618  16.273  66.838  1.00  0.00    -0.310 OA 
BRANCH   6  11
HETATM   11  N   UNL     1     -10.759  11.531  66.853  1.00  0.00    -0.250 N  
HETATM   12  C   UNL     1      -9.546   9.712  65.877  1.00  0.00    -0.257 C  
HETATM   13  C   UNL     1      -9.858  11.014  65.936  1.00  0.00    -0.232 C  
HETATM   14  I   UNL     1      -8.257   8.952  64.485  1.00  0.00    -0.147 I  
HETATM   15  C   UNL     1     -10.199   8.799  66.856  1.00  0.00    -0.287 C  
HETATM   16  O   UNL     1     -10.046   7.583  66.856  1.00  0.00    -0.224 OA 
HETATM   17  N   UNL     1     -11.013   9.401  67.777  1.00  0.00    -0.499 N  
HETATM   18  C   UNL     1     -11.380  10.719  67.793  1.00  0.00    -0.279 C  
HETATM   19  H   UNL     1     -11.381   8.811  68.522  1.00  0.00     0.000 HD 
HETATM   20  O   UNL     1     -12.218  11.114  68.600  1.00  0.00    -0.582 OA 
ENDBRANCH   6  11
ENDBRANCH   3   4
TORSDOF 2
ENDMDL
MODEL       12
REMARK 921   NORMALIZED FREE ENERGY PREDICTED BY IDOCK:   -5.81 KCAL/MOL
REMARK 922        TOTAL FREE ENERGY PREDICTED BY IDOCK:   -6.81 KCAL/MOL
REMARK 923 INTER-LIGAND FREE ENERGY PREDICTED BY IDOCK:   -6.36 KCAL/MOL
REMARK 924 INTRA-LIGAND FREE ENERGY PREDICTED BY IDOCK:   -0.45 KCAL/MOL
REMARK 927      BINDING AFFINITY PREDICTED BY RF-SCORE:    0.00 PKD
ROOT
HETATM    1  O5* UNL     1      -9.203  20.458  66.060  1.00  0.00    -0.609 OA 
HETATM    2  H5* UNL     1      -9.295  20.947  65.252  1.00  0.00     0.000 HD 
HETATM    3  C5* UNL     1     -10.419  19.802  66.419  1.00  0.00    -0.507 C  
ENDROOT
BRANCH   3   4
HETATM    4  C4* UNL     1     -10.270  19.015  67.719  1.00  0.00    -0.402 C  
HETATM    5  O4* UNL     1     -11.024  17.789  67.681  1.00  0.00    -0.301 OA 
HETATM    6  C1* UNL     1     -10.440  16.958  68.697  1.00  0.00    -0.352 C  
HETATM    7  H3* UNL     1      -7.363  19.287  69.161  1.00  0.00     0.000 HD 
HETATM    8  C2* UNL     1      -8.940  17.230  68.639  1.00  0.00    -0.265 C  
HETATM    9  C3* UNL     1      -8.831  18.616  68.036  1.00  0.00    -0.306 C  
HETATM   10  O3* UNL     1      -8.258  19.535  68.963  1.00  0.00    -0.342 OA 
BRANCH   6  11
HETATM   11  N   UNL     1     -10.798  15.552  68.530  1.00  0.00    -0.260 N  
HETATM   12  C   UNL     1     -11.426  13.734  67.104  1.00  0.00    -0.340 C  
HETATM   13  C   UNL     1     -10.993  14.990  67.278  1.00  0.00    -0.326 C  
HETATM   14  I   UNL     1     -11.763  12.934  65.253  1.00  0.00    -0.496 I  
HETATM   15  C   UNL     1     -11.693  12.918  68.321  1.00  0.00    -0.350 C  
HETATM   16  O   UNL     1     -12.155  11.783  68.290  1.00  0.00    -0.525 OA 
HETATM   17  N   UNL     1     -11.398  13.521  69.514  1.00  0.00    -0.417 N  
HETATM   18  C   UNL     1     -11.020  14.823  69.692  1.00  0.00    -0.261 C  
HETATM   19  H   UNL     1     -11.468  12.943  70.352  1.00  0.00     0.000 HD 
HETATM   20  O   UNL     1     -10.905  15.282  70.826  1.00  0.00    -0.300 OA 
ENDBRANCH   6  11
ENDBRANCH   3   4
TORSDOF 2
ENDMDL
MODEL       13
REMARK 921   NORMALIZED FREE ENERGY PREDICTED BY IDOCK:   -5.81 KCAL/MOL
REMARK 922        TOTAL FREE ENERGY PREDICTED BY IDOCK:   -6.81 KCAL/MOL
REMARK 923 INTER-LIGAND FREE ENERGY PREDICTED BY IDOCK:   -6.56 KCAL/MOL
REMARK 924 INTRA-LIGAND FREE ENERGY PREDICTED BY IDOCK:   -0.25 KCAL/MOL
REMARK 927      BINDING AFFINITY PREDICTED BY RF-SCORE:    0.00 PKD
ROOT
HETATM    1  O5* UNL     1     -12.454  13.832  63.023  1.00  0.00    -1.068 OA 
HETATM    2  H5* UNL     1     -13.078  14.172  62.394  1.00  0.00     0.000 HD 
HETATM    3  C5* UNL     1     -12.482  14.570  64.244  1.00  0.00    -0.264 C  
ENDROOT
BRANCH   3   4
HETATM    4  C4* UNL     1     -11.477  14.022  65.255  1.00  0.00    -0.322 C  
HETATM    5  O4* UNL     1     -11.409  14.851  66.431  1.00  0.00    -0.342 OA 
HETATM    6  C1* UNL     1     -10.838  14.013  67.449  1.00  0.00    -0.282 C  
HETATM    7  H3* UNL     1     -11.249  10.775  65.339  1.00  0.00     0.000 HD 
HETATM    8  C2* UNL     1     -11.429  12.626  67.218  1.00  0.00    -0.402 C  
HETATM    9  C3* UNL     1     -11.806  12.616  65.750  1.00  0.00    -0.444 C  
HETATM   10  O3* UNL     1     -11.044  11.650  65.031  1.00  0.00    -0.299 OA 
BRANCH   6  11
HETATM   11  N   UNL     1     -11.067  14.544  68.790  1.00  0.00    -0.240 N  
HETATM   12  C   UNL     1     -12.257  14.470  70.866  1.00  0.00    -0.339 C  
HETATM   13  C   UNL     1     -11.949  13.942  69.674  1.00  0.00    -0.342 C  
HETATM   14  I   UNL     1     -13.601  13.601  72.139  1.00  0.00    -0.594 I  
HETATM   15  C   UNL     1     -11.604  15.753  71.245  1.00  0.00    -0.441 C  
HETATM   16  O   UNL     1     -11.856  16.365  72.277  1.00  0.00    -0.534 OA 
HETATM   17  N   UNL     1     -10.687  16.238  70.352  1.00  0.00    -0.194 N  
HETATM   18  C   UNL     1     -10.424  15.733  69.108  1.00  0.00    -0.240 C  
HETATM   19  H   UNL     1     -10.149  17.054  70.641  1.00  0.00     0.000 HD 
HETATM   20  O   UNL     1      -9.668  16.333  68.348  1.00  0.00    -0.213 OA 
ENDBRANCH   6  11
ENDBRANCH   3   4
TORSDOF 2
ENDMDL
MODEL       14
REMARK 921   NORMALIZED FREE ENERGY PREDICTED BY IDOCK:   -5.79 KCAL/MOL
REMARK 922        TOTAL FREE ENERGY PREDICTED BY IDOCK:   -6.79 KCAL/MOL
REMARK 923 INTER-LIGAND FREE ENERGY PREDICTED BY IDOCK:   -6.35 KCAL/MOL
REMARK 924 INTRA-LIGAND FREE ENERGY PREDICTED BY IDOCK:   -0.44 KCAL/MOL
REMARK 927      BINDING AFFINITY PREDICTED BY RF-SCORE:    0.00 PKD
ROOT
HETATM    1  O5* UNL     1     -10.217  10.770  62.578  1.00  0.00    -0.741 OA 
HETATM    2  H5* UNL     1      -9.463  10.525  62.055  1.00  0.00     0.000 HD 
HETATM    3  C5* UNL     1      -9.833  11.506  63.739  1.00  0.00    -0.319 C  
ENDROOT
BRANCH   3   4
HETATM    4  C4* UNL     1     -11.046  11.900  64.580  1.00  0.00    -0.325 C  
HETATM    5  O4* UNL     1     -10.659  12.671  65.733  1.00  0.00    -0.263 OA 
HETATM    6  C1* UNL     1     -11.851  13.358  66.143  1.00  0.00    -0.385 C  
HETATM    7  H3* UNL     1     -13.767  12.462  62.882  1.00  0.00     0.000 HD 
HETATM    8  C2* UNL     1     -12.564  13.750  64.852  1.00  0.00    -0.380 C  
HETATM    9  C3* UNL     1     -12.067  12.750  63.828  1.00  0.00    -0.517 C  
HETATM   10  O3* UNL     1     -13.132  11.933  63.350  1.00  0.00    -0.710 OA 
BRANCH   6  11
HETATM   11  N   UNL     1     -11.561  14.482  67.029  1.00  0.00    -0.374 N  
HETATM   12  C   UNL     1     -10.757  16.716  67.339  1.00  0.00    -0.253 C  
HETATM   13  C   UNL     1     -11.132  15.707  66.542  1.00  0.00    -0.135 C  
HETATM   14  I   UNL     1     -10.074  18.499  66.607  1.00  0.00    -0.481 I  
HETATM   15  C   UNL     1     -10.821  16.497  68.810  1.00  0.00    -0.342 C  
HETATM   16  O   UNL     1     -10.440  17.319  69.636  1.00  0.00    -0.219 OA 
HETATM   17  N   UNL     1     -11.330  15.290  69.208  1.00  0.00    -0.277 N  
HETATM   18  C   UNL     1     -11.650  14.239  68.394  1.00  0.00    -0.320 C  
HETATM   19  H   UNL     1     -11.486  15.163  70.208  1.00  0.00     0.000 HD 
HETATM   20  O   UNL     1     -11.981  13.161  68.882  1.00  0.00    -0.309 OA 
ENDBRANCH   6  11
ENDBRANCH   3   4
TORSDOF 2
ENDMDL
MODEL       15
REMARK 921   NORMALIZED FREE ENERGY PREDICTED BY IDOCK:   -5.69 KCAL/MOL
REMARK 922        TOTAL FREE ENERGY PREDICTED BY IDOCK:   -6.67 KCAL/MOL
REMARK 923 INTER-LIGAND FREE ENERGY PREDICTED BY IDOCK:   -6.54 KCAL/MOL
REMARK 924 INTRA-LIGAND FREE ENERGY PREDICTED BY IDOCK:   -0.13 KCAL/MOL
REMARK 927      BINDING AFFINITY PREDICTED BY RF-SCORE:    0.00 PKD
ROOT
HETATM    1  O5* UNL     1     -12.463  13.831  63.312  1.00  0.00    -1.065 OA 
HETATM    2  H5* UNL     1     -13.143  13.771  62.652  1.00  0.00     0.000 HD 
HETATM    3  C5* UNL     1     -12.657  12.873  64.353  1.00  0.00    -0.317 C  
ENDROOT
BRANCH   3   4
HETATM    4  C4* UNL     1     -11.563  12.970  65.415  1.00  0.00    -0.341 C  
HETATM    5  O4* UNL     1     -12.100  13.382  66.686  1.00  0.00    -0.391 OA 
HETATM    6  C1* UNL     1     -11.120  12.978  67.656  1.00  0.00    -0.267 C  
HETATM    7  H3* UNL     1      -9.157  10.797  65.107  1.00  0.00     0.000 HD 
HETATM    8  C2* UNL     1     -10.587  11.635  67.167  1.00  0.00    -0.269 C  
HETATM    9  C3* UNL     1     -10.836  11.652  65.672  1.00  0.00    -0.276 C  
HETATM   10  O3* UNL     1      -9.609  11.617  64.947  1.00  0.00    -0.224 OA 
BRANCH   6  11
HETATM   11  N   UNL     1     -11.668  12.945  69.009  1.00  0.00    -0.311 N  
HETATM   12  C   UNL     1     -12.496  11.692  70.874  1.00  0.00    -0.341 C  
HETATM   13  C   UNL     1     -11.895  11.753  69.678  1.00  0.00    -0.339 C  
HETATM   14  I   UNL     1     -12.874   9.923  71.826  1.00  0.00    -0.514 I  
HETATM   15  C   UNL     1     -12.921  12.974  71.501  1.00  0.00    -0.305 C  
HETATM   16  O   UNL     1     -13.538  13.041  72.558  1.00  0.00    -0.572 OA 
HETATM   17  N   UNL     1     -12.588  14.110  70.813  1.00  0.00    -0.344 N  
HETATM   18  C   UNL     1     -12.034  14.165  69.563  1.00  0.00    -0.340 C  
HETATM   19  H   UNL     1     -12.770  14.999  71.276  1.00  0.00     0.000 HD 
HETATM   20  O   UNL     1     -11.898  15.248  68.998  1.00  0.00    -0.325 OA 
ENDBRANCH   6  11
ENDBRANCH   3   4
TORSDOF 2
ENDMDL
MODEL       16
REMARK 921   NORMALIZED FREE ENERGY PREDICTED BY IDOCK:   -5.65 KCAL/MOL
REMARK 922        TOTAL FREE ENERGY PREDICTED BY IDOCK:   -6.63 KCAL/MOL
REMARK 923 INTER-LIGAND FREE ENERGY PREDICTED BY IDOCK:   -6.34 KCAL/MOL
REMARK 924 INTRA-LIGAND FREE ENERGY PREDICTED BY IDOCK:   -0.29 KCAL/MOL
REMARK 927      BINDING AFFINITY PREDICTED BY RF-SCORE:    0.00 PKD
ROOT
HETATM    1  O5* UNL     1     -12.445  14.319  63.339  1.00  0.00    -1.125 OA 
HETATM    2  H5* UNL     1     -12.596  13.780  62.571  1.00  0.00     0.000 HD 
HETATM    3  C5* UNL     1     -11.793  13.585  64.375  1.00  0.00    -0.414 C  
ENDROOT
BRANCH   3   4
HETATM    4  C4* UNL     1     -11.550  14.451  65.609  1.00  0.00    -0.347 C  
HETATM    5  O4* UNL     1     -12.282  13.961  66.748  1.00  0.00    -0.429 OA 
HETATM    6  C1* UNL     1     -11.623  14.527  67.891  1.00  0.00    -0.344 C  
HETATM    7  H3* UNL     1      -8.565  15.735  65.817  1.00  0.00     0.000 HD 
HETATM    8  C2* UNL     1     -10.134  14.510  67.557  1.00  0.00    -0.228 C  
HETATM    9  C3* UNL     1     -10.087  14.510  66.042  1.00  0.00    -0.318 C  
HETATM   10  O3* UNL     1      -9.475  15.698  65.548  1.00  0.00    -0.281 OA 
BRANCH   6  11
HETATM   11  N   UNL     1     -11.964  13.827  69.126  1.00  0.00    -0.350 N  
HETATM   12  C   UNL     1     -12.097  11.792  70.380  1.00  0.00    -0.352 C  
HETATM   13  C   UNL     1     -11.697  12.479  69.302  1.00  0.00    -0.321 C  
HETATM   14  I   UNL     1     -11.743   9.790  70.602  1.00  0.00    -0.352 I  
HETATM   15  C   UNL     1     -12.853  12.529  71.430  1.00  0.00    -0.260 C  
HETATM   16  O   UNL     1     -13.328  11.995  72.425  1.00  0.00    -0.403 OA 
HETATM   17  N   UNL     1     -13.005  13.873  71.217  1.00  0.00    -0.342 N  
HETATM   18  C   UNL     1     -12.653  14.557  70.086  1.00  0.00    -0.288 C  
HETATM   19  H   UNL     1     -13.420  14.415  71.974  1.00  0.00     0.000 HD 
HETATM   20  O   UNL     1     -12.956  15.742  69.965  1.00  0.00    -0.184 OA 
ENDBRANCH   6  11
ENDBRANCH   3   4
TORSDOF 2
ENDMDL
MODEL       17
REMARK 921   NORMALIZED FREE ENERGY PREDICTED BY IDOCK:   -5.64 KCAL/MOL
REMARK 922        TOTAL FREE ENERGY PREDICTED BY IDOCK:   -6.62 KCAL/MOL
REMARK 923 INTER-LIGAND FREE ENERGY PREDICTED BY IDOCK:   -6.22 KCAL/MOL
REMARK 924 INTRA-LIGAND FREE ENERGY PREDICTED BY IDOCK:   -0.39 KCAL/MOL
REMARK 927      BINDING AFFINITY PREDICTED BY RF-SCORE:    0.00 PKD
ROOT
HETATM    1  O5* UNL     1     -13.499  10.916  72.420  1.00  0.00    -0.587 OA 
HETATM    2  H5* UNL     1     -13.790  10.013  72.398  1.00  0.00     0.000 HD 
HETATM    3  C5* UNL     1     -12.783  11.265  71.235  1.00  0.00    -0.405 C  
ENDROOT
BRANCH   3   4
HETATM    4  C4* UNL     1     -12.314  12.718  71.270  1.00  0.00    -0.059 C  
HETATM    5  O4* UNL     1     -11.664  13.090  70.040  1.00  0.00    -0.289 OA 
HETATM    6  C1* UNL     1     -11.712  14.525  70.009  1.00  0.00    -0.301 C  
HETATM    7  H3* UNL     1     -14.229  14.735  72.964  1.00  0.00     0.000 HD 
HETATM    8  C2* UNL     1     -13.070  14.903  70.594  1.00  0.00    -0.363 C  
HETATM    9  C3* UNL     1     -13.445  13.725  71.470  1.00  0.00    -0.284 C  
HETATM   10  O3* UNL     1     -13.526  14.109  72.840  1.00  0.00    -0.628 OA 
BRANCH   6  11
HETATM   11  N   UNL     1     -11.472  15.055  68.669  1.00  0.00    -0.295 N  
HETATM   12  C   UNL     1     -11.440  14.737  66.296  1.00  0.00    -0.316 C  
HETATM   13  C   UNL     1     -11.751  14.316  67.530  1.00  0.00    -0.384 C  
HETATM   14  I   UNL     1     -11.808  13.615  64.627  1.00  0.00    -0.505 I  
HETATM   15  C   UNL     1     -10.774  16.062  66.164  1.00  0.00    -0.244 C  
HETATM   16  O   UNL     1     -10.381  16.521  65.097  1.00  0.00    -0.618 OA 
HETATM   17  N   UNL     1     -10.607  16.761  67.329  1.00  0.00    -0.306 N  
HETATM   18  C   UNL     1     -10.866  16.302  68.591  1.00  0.00    -0.322 C  
HETATM   19  H   UNL     1     -10.256  17.715  67.248  1.00  0.00     0.000 HD 
HETATM   20  O   UNL     1     -10.556  16.980  69.568  1.00  0.00    -0.316 OA 
ENDBRANCH   6  11
ENDBRANCH   3   4
TORSDOF 2
ENDMDL
MODEL       18
REMARK 921   NORMALIZED FREE ENERGY PREDICTED BY IDOCK:   -5.63 KCAL/MOL
REMARK 922        TOTAL FREE ENERGY PREDICTED BY IDOCK:   -6.61 KCAL/MOL
REMARK 923 INTER-LIGAND FREE ENERGY PREDICTED BY IDOCK:   -6.28 KCAL/MOL
REMARK 924 INTRA-LIGAND FREE ENERGY PREDICTED BY IDOCK:   -0.33 KCAL/MOL
REMARK 927      BINDING AFFINITY PREDICTED BY RF-SCORE:    0.00 PKD
ROOT
HETATM    1  O5* UNL     1     -12.464  14.646  63.566  1.00  0.00    -1.069 OA 
HETATM    2  H5* UNL     1     -13.021  14.720  62.801  1.00  0.00     0.000 HD 
HETATM    3  C5* UNL     1     -11.934  13.328  63.704  1.00  0.00    -0.486 C  
ENDROOT
BRANCH   3   4
HETATM    4  C4* UNL     1     -11.038  13.208  64.935  1.00  0.00    -0.314 C  
HETATM    5  O4* UNL     1     -10.096  14.295  65.007  1.00  0.00    -0.389 OA 
HETATM    6  C1* UNL     1      -9.675  14.337  66.380  1.00  0.00    -0.299 C  
HETATM    7  H3* UNL     1     -12.472  11.905  67.552  1.00  0.00     0.000 HD 
HETATM    8  C2* UNL     1     -10.921  14.017  67.201  1.00  0.00    -0.303 C  
HETATM    9  C3* UNL     1     -11.803  13.225  66.256  1.00  0.00    -0.395 C  
HETATM   10  O3* UNL     1     -11.997  11.895  66.730  1.00  0.00    -0.613 OA 
BRANCH   6  11
HETATM   11  N   UNL     1      -9.045  15.609  66.723  1.00  0.00    -0.233 N  
HETATM   12  C   UNL     1      -9.112  18.002  66.773  1.00  0.00    -0.273 C  
HETATM   13  C   UNL     1      -9.705  16.818  66.568  1.00  0.00    -0.283 C  
HETATM   14  I   UNL     1     -10.079  19.780  66.489  1.00  0.00    -0.661 I  
HETATM   15  C   UNL     1      -7.684  17.997  67.196  1.00  0.00    -0.218 C  
HETATM   16  O   UNL     1      -7.017  19.014  67.347  1.00  0.00    -0.204 OA 
HETATM   17  N   UNL     1      -7.131  16.762  67.403  1.00  0.00    -0.145 N  
HETATM   18  C   UNL     1      -7.718  15.557  67.130  1.00  0.00    -0.222 C  
HETATM   19  H   UNL     1      -6.192  16.738  67.799  1.00  0.00     0.000 HD 
HETATM   20  O   UNL     1      -7.071  14.518  67.242  1.00  0.00    -0.171 OA 
ENDBRANCH   6  11
ENDBRANCH   3   4
TORSDOF 2
ENDMDL
MODEL       19
REMARK 921   NORMALIZED FREE ENERGY PREDICTED BY IDOCK:   -5.62 KCAL/MOL
REMARK 922        TOTAL FREE ENERGY PREDICTED BY IDOCK:   -6.60 KCAL/MOL
REMARK 923 INTER-LIGAND FREE ENERGY PREDICTED BY IDOCK:   -6.83 KCAL/MOL
REMARK 924 INTRA-LIGAND FREE ENERGY PREDICTED BY IDOCK:    0.24 KCAL/MOL
REMARK 927      BINDING AFFINITY PREDICTED BY RF-SCORE:    0.00 PKD
ROOT
HETATM    1  O5* UNL     1     -10.459  10.706  62.488  1.00  0.00    -0.719 OA 
HETATM    2  H5* UNL     1      -9.745  10.416  61.933  1.00  0.00     0.000 HD 
HETATM    3  C5* UNL     1      -9.979  11.254  63.716  1.00  0.00    -0.342 C  
ENDROOT
BRANCH   3   4
HETATM    4  C4* UNL     1     -11.127  11.721  64.609  1.00  0.00    -0.303 C  
HETATM    5  O4* UNL     1     -10.642  12.450  65.751  1.00  0.00    -0.246 OA 
HETATM    6  C1* UNL     1     -11.766  13.214  66.216  1.00  0.00    -0.375 C  
HETATM    7  H3* UNL     1     -13.869  12.488  63.027  1.00  0.00     0.000 HD 
HETATM    8  C2* UNL     1     -12.502  13.669  64.958  1.00  0.00    -0.454 C  
HETATM    9  C3* UNL     1     -12.116  12.648  63.906  1.00  0.00    -0.487 C  
HETATM   10  O3* UNL     1     -13.254  11.911  63.465  1.00  0.00    -0.676 OA 
BRANCH   6  11
HETATM   11  N   UNL     1     -11.364  14.305  67.098  1.00  0.00    -0.322 N  
HETATM   12  C   UNL     1     -11.442  15.365  69.244  1.00  0.00    -0.333 C  
HETATM   13  C   UNL     1     -11.706  14.325  68.441  1.00  0.00    -0.338 C  
HETATM   14  I   UNL     1     -12.000  15.404  71.210  1.00  0.00    -0.618 I  
HETATM   15  C   UNL     1     -10.740  16.536  68.651  1.00  0.00    -0.334 C  
HETATM   16  O   UNL     1     -10.505  17.570  69.267  1.00  0.00    -0.321 OA 
HETATM   17  N   UNL     1     -10.367  16.403  67.341  1.00  0.00    -0.290 N  
HETATM   18  C   UNL     1     -10.695  15.370  66.508  1.00  0.00    -0.308 C  
HETATM   19  H   UNL     1      -9.789  17.146  66.949  1.00  0.00     0.000 HD 
HETATM   20  O   UNL     1     -10.406  15.426  65.314  1.00  0.00    -0.367 OA 
ENDBRANCH   6  11
ENDBRANCH   3   4
TORSDOF 2
ENDMDL
MODEL       20
REMARK 921   NORMALIZED FREE ENERGY PREDICTED BY IDOCK:   -5.58 KCAL/MOL
REMARK 922        TOTAL FREE ENERGY PREDICTED BY IDOCK:   -6.55 KCAL/MOL
REMARK 923 INTER-LIGAND FREE ENERGY PREDICTED BY IDOCK:   -6.13 KCAL/MOL
REMARK 924 INTRA-LIGAND FREE ENERGY PREDICTED BY IDOCK:   -0.42 KCAL/MOL
REMARK 927      BINDING AFFINITY PREDICTED BY RF-SCORE:    0.00 PKD
ROOT
HETATM    1  O5* UNL     1     -11.588  16.221  63.775  1.00  0.00    -1.539 OA 
HETATM    2  H5* UNL     1     -11.618  16.121  62.831  1.00  0.00     0.000 HD 
HETATM    3  C5* UNL     1     -11.879  14.994  64.443  1.00  0.00    -0.339 C  
ENDROOT
BRANCH   3   4
HETATM    4  C4* UNL     1     -11.831  15.156  65.961  1.00  0.00     0.089 C  
HETATM    5  O4* UNL     1     -12.127  13.916  66.632  1.00  0.00    -0.423 OA 
HETATM    6  C1* UNL     1     -11.595  14.070  67.957  1.00  0.00    -0.337 C  
HETATM    7  H3* UNL     1      -9.628  17.296  67.043  1.00  0.00     0.000 HD 
HETATM    8  C2* UNL     1     -10.293  14.849  67.789  1.00  0.00    -0.244 C  
HETATM    9  C3* UNL     1     -10.472  15.608  66.490  1.00  0.00    -0.302 C  
HETATM   10  O3* UNL     1     -10.474  17.015  66.714  1.00  0.00    -0.308 OA 
BRANCH   6  11
HETATM   11  N   UNL     1     -11.439  12.788  68.639  1.00  0.00    -0.279 N  
HETATM   12  C   UNL     1     -10.867  10.465  68.568  1.00  0.00    -0.237 C  
HETATM   13  C   UNL     1     -10.919  11.676  67.997  1.00  0.00    -0.224 C  
HETATM   14  I   UNL     1     -10.146   8.819  67.591  1.00  0.00    -0.322 I  
HETATM   15  C   UNL     1     -11.386  10.330  69.957  1.00  0.00    -0.301 C  
HETATM   16  O   UNL     1     -11.454   9.263  70.556  1.00  0.00    -0.265 OA 
HETATM   17  N   UNL     1     -11.808  11.491  70.546  1.00  0.00    -0.468 N  
HETATM   18  C   UNL     1     -11.921  12.712  69.940  1.00  0.00    -0.295 C  
HETATM   19  H   UNL     1     -12.063  11.441  71.532  1.00  0.00     0.000 HD 
HETATM   20  O   UNL     1     -12.433  13.653  70.542  1.00  0.00    -0.338 OA 
ENDBRANCH   6  11
ENDBRANCH   3   4
TORSDOF 2
ENDMDL
MODEL       21
REMARK 921   NORMALIZED FREE ENERGY PREDICTED BY IDOCK:   -5.56 KCAL/MOL
REMARK 922        TOTAL FREE ENERGY PREDICTED BY IDOCK:   -6.53 KCAL/MOL
REMARK 923 INTER-LIGAND FREE ENERGY PREDICTED BY IDOCK:   -6.27 KCAL/MOL
REMARK 924 INTRA-LIGAND FREE ENERGY PREDICTED BY IDOCK:   -0.26 KCAL/MOL
REMARK 927      BINDING AFFINITY PREDICTED BY RF-SCORE:    0.00 PKD
ROOT
HETATM    1  O5* UNL     1     -10.231  18.067  68.494  1.00  0.00    -0.367 OA 
HETATM    2  H5* UNL     1      -9.524  18.603  68.832  1.00  0.00     0.000 HD 
HETATM    3  C5* UNL     1     -10.168  16.734  69.000  1.00  0.00    -0.310 C  
ENDROOT
BRANCH   3   4
HETATM    4  C4* UNL     1     -11.305  15.873  68.456  1.00  0.00    -0.374 C  
HETATM    5  O4* UNL     1     -11.018  15.401  67.126  1.00  0.00    -0.323 OA 
HETATM    6  C1* UNL     1     -11.881  14.269  66.934  1.00  0.00    -0.433 C  
HETATM    7  H3* UNL     1     -12.863  14.088  70.690  1.00  0.00     0.000 HD 
HETATM    8  C2* UNL     1     -11.921  13.550  68.279  1.00  0.00    -0.377 C  
HETATM    9  C3* UNL     1     -11.589  14.627  69.292  1.00  0.00    -0.302 C  
HETATM   10  O3* UNL     1     -12.687  14.862  70.170  1.00  0.00    -0.301 OA 
BRANCH   6  11
HETATM   11  N   UNL     1     -11.446  13.428  65.821  1.00  0.00    -0.314 N  
HETATM   12  C   UNL     1     -10.149  11.589  65.004  1.00  0.00    -0.270 C  
HETATM   13  C   UNL     1     -10.648  12.312  66.016  1.00  0.00    -0.254 C  
HETATM   14  I   UNL     1      -8.929   9.976  65.303  1.00  0.00    -0.303 I  
HETATM   15  C   UNL     1     -10.485  12.014  63.618  1.00  0.00    -0.454 C  
HETATM   16  O   UNL     1     -10.033  11.475  62.614  1.00  0.00    -0.173 OA 
HETATM   17  N   UNL     1     -11.341  13.077  63.515  1.00  0.00    -0.617 N  
HETATM   18  C   UNL     1     -11.797  13.852  64.546  1.00  0.00    -0.426 C  
HETATM   19  H   UNL     1     -11.672  13.314  62.580  1.00  0.00     0.000 HD 
HETATM   20  O   UNL     1     -12.463  14.858  64.312  1.00  0.00    -0.670 OA 
ENDBRANCH   6  11
ENDBRANCH   3   4
TORSDOF 2
ENDMDL
MODEL       22
REMARK 921   NORMALIZED FREE ENERGY PREDICTED BY IDOCK:   -5.51 KCAL/MOL
REMARK 922        TOTAL FREE ENERGY PREDICTED BY IDOCK:   -6.48 KCAL/MOL
REMARK 923 INTER-LIGAND FREE ENERGY PREDICTED BY IDOCK:   -6.17 KCAL/MOL
REMARK 924 INTRA-LIGAND FREE ENERGY PREDICTED BY IDOCK:   -0.31 KCAL/MOL
REMARK 927      BINDING AFFINITY PREDICTED BY RF-SCORE:    0.00 PKD
ROOT
HETATM    1  O5* UNL     1      -9.899  20.823  67.239  1.00  0.00    -0.522 OA 
HETATM    2  H5* UNL     1     -10.250  21.694  67.382  1.00  0.00     0.000 HD 
HETATM    3  C5* UNL     1     -10.320  19.914  68.256  1.00  0.00    -0.393 C  
ENDROOT
BRANCH   3   4
HETATM    4  C4* UNL     1      -9.755  18.514  68.026  1.00  0.00    -0.327 C  
HETATM    5  O4* UNL     1     -10.250  17.580  69.005  1.00  0.00    -0.345 OA 
HETATM    6  C1* UNL     1     -10.053  16.283  68.420  1.00  0.00    -0.237 C  
HETATM    7  H3* UNL     1      -9.249  17.735  64.905  1.00  0.00     0.000 HD 
HETATM    8  C2* UNL     1     -10.357  16.452  66.934  1.00  0.00    -0.300 C  
HETATM    9  C3* UNL     1     -10.110  17.923  66.664  1.00  0.00    -0.362 C  
HETATM   10  O3* UNL     1      -9.029  18.102  65.753  1.00  0.00    -0.462 OA 
BRANCH   6  11
HETATM   11  N   UNL     1     -10.855  15.255  69.080  1.00  0.00    -0.233 N  
HETATM   12  C   UNL     1     -12.602  14.658  70.604  1.00  0.00    -0.357 C  
HETATM   13  C   UNL     1     -11.921  15.576  69.904  1.00  0.00    -0.362 C  
HETATM   14  I   UNL     1     -14.139  15.149  71.859  1.00  0.00    -0.722 I  
HETATM   15  C   UNL     1     -12.185  13.235  70.468  1.00  0.00    -0.340 C  
HETATM   16  O   UNL     1     -12.686  12.317  71.107  1.00  0.00    -0.353 OA 
HETATM   17  N   UNL     1     -11.177  12.996  69.574  1.00  0.00    -0.457 N  
HETATM   18  C   UNL     1     -10.442  13.940  68.912  1.00  0.00    -0.187 C  
HETATM   19  H   UNL     1     -10.952  12.020  69.383  1.00  0.00     0.000 HD 
HETATM   20  O   UNL     1      -9.477  13.602  68.229  1.00  0.00    -0.208 OA 
ENDBRANCH   6  11
ENDBRANCH   3   4
TORSDOF 2
ENDMDL
MODEL       23
REMARK 921   NORMALIZED FREE ENERGY PREDICTED BY IDOCK:   -5.48 KCAL/MOL
REMARK 922        TOTAL FREE ENERGY PREDICTED BY IDOCK:   -6.44 KCAL/MOL
REMARK 923 INTER-LIGAND FREE ENERGY PREDICTED BY IDOCK:   -6.06 KCAL/MOL
REMARK 924 INTRA-LIGAND FREE ENERGY PREDICTED BY IDOCK:   -0.37 KCAL/MOL
REMARK 927      BINDING AFFINITY PREDICTED BY RF-SCORE:    0.00 PKD
ROOT
HETATM    1  O5* UNL     1     -12.293  14.449  63.445  1.00  0.00    -1.094 OA 
HETATM    2  H5* UNL     1     -12.318  14.278  62.512  1.00  0.00     0.000 HD 
HETATM    3  C5* UNL     1     -12.147  13.243  64.195  1.00  0.00    -0.432 C  
ENDROOT
BRANCH   3   4
HETATM    4  C4* UNL     1     -12.108  13.517  65.697  1.00  0.00    -0.430 C  
HETATM    5  O4* UNL     1     -12.208  12.298  66.457  1.00  0.00    -0.588 OA 
HETATM    6  C1* UNL     1     -11.690  12.622  67.757  1.00  0.00    -0.356 C  
HETATM    7  H3* UNL     1     -10.235  16.030  66.583  1.00  0.00     0.000 HD 
HETATM    8  C2* UNL     1     -10.520  13.571  67.509  1.00  0.00    -0.237 C  
HETATM    9  C3* UNL     1     -10.825  14.201  66.164  1.00  0.00    -0.296 C  
HETATM   10  O3* UNL     1     -11.033  15.605  66.292  1.00  0.00    -0.295 OA 
BRANCH   6  11
HETATM   11  N   UNL     1     -11.338  11.429  68.522  1.00  0.00    -0.244 N  
HETATM   12  C   UNL     1     -10.437   9.212  68.595  1.00  0.00    -0.207 C  
HETATM   13  C   UNL     1     -10.674  10.358  67.944  1.00  0.00    -0.261 C  
HETATM   14  I   UNL     1      -9.505   7.620  67.714  1.00  0.00    -0.195 I  
HETATM   15  C   UNL     1     -10.906   9.107  70.005  1.00  0.00    -0.234 C  
HETATM   16  O   UNL     1     -10.807   8.087  70.678  1.00  0.00    -0.226 OA 
HETATM   17  N   UNL     1     -11.480  10.235  70.524  1.00  0.00    -0.321 N  
HETATM   18  C   UNL     1     -11.779  11.380  69.838  1.00  0.00    -0.346 C  
HETATM   19  H   UNL     1     -11.706  10.221  71.518  1.00  0.00     0.000 HD 
HETATM   20  O   UNL     1     -12.410  12.280  70.388  1.00  0.00    -0.302 OA 
ENDBRANCH   6  11
ENDBRANCH   3   4
TORSDOF 2
ENDMDL
MODEL       24
REMARK 921   NORMALIZED FREE ENERGY PREDICTED BY IDOCK:   -5.47 KCAL/MOL
REMARK 922        TOTAL FREE ENERGY PREDICTED BY IDOCK:   -6.43 KCAL/MOL
REMARK 923 INTER-LIGAND FREE ENERGY PREDICTED BY IDOCK:   -6.70 KCAL/MOL
REMARK 924 INTRA-LIGAND FREE ENERGY PREDICTED BY IDOCK:    0.27 KCAL/MOL
REMARK 927      BINDING AFFINITY PREDICTED BY RF-SCORE:    0.00 PKD
ROOT
HETATM    1  O5* UNL     1     -12.415  14.097  62.959  1.00  0.00    -1.077 OA 
HETATM    2  H5* UNL     1     -12.916  13.873  62.184  1.00  0.00     0.000 HD 
HETATM    3  C5* UNL     1     -12.045  12.934  63.700  1.00  0.00    -0.535 C  
ENDROOT
BRANCH   3   4
HETATM    4  C4* UNL     1     -11.240  13.295  64.946  1.00  0.00    -0.318 C  
HETATM    5  O4* UNL     1     -10.581  14.567  64.797  1.00  0.00    -0.425 OA 
HETATM    6  C1* UNL     1     -10.284  14.996  66.135  1.00  0.00    -0.297 C  
HETATM    7  H3* UNL     1     -12.526  12.264  67.755  1.00  0.00     0.000 HD 
HETATM    8  C2* UNL     1     -11.481  14.565  66.979  1.00  0.00    -0.383 C  
HETATM    9  C3* UNL     1     -12.084  13.404  66.214  1.00  0.00    -0.422 C  
HETATM   10  O3* UNL     1     -12.001  12.197  66.967  1.00  0.00    -0.593 OA 
BRANCH   6  11
HETATM   11  N   UNL     1      -9.991  16.425  66.202  1.00  0.00    -0.319 N  
HETATM   12  C   UNL     1      -8.920  18.266  67.295  1.00  0.00    -0.259 C  
HETATM   13  C   UNL     1      -9.121  16.950  67.144  1.00  0.00    -0.217 C  
HETATM   14  I   UNL     1      -7.674  19.032  68.724  1.00  0.00    -0.259 I  
HETATM   15  C   UNL     1      -9.664  19.188  66.393  1.00  0.00    -0.364 C  
HETATM   16  O   UNL     1      -9.615  20.410  66.481  1.00  0.00    -0.366 OA 
HETATM   17  N   UNL     1     -10.440  18.586  65.440  1.00  0.00     0.066 N  
HETATM   18  C   UNL     1     -10.695  17.247  65.331  1.00  0.00    -0.066 C  
HETATM   19  H   UNL     1     -10.870  19.195  64.744  1.00  0.00     0.000 HD 
HETATM   20  O   UNL     1     -11.511  16.840  64.507  1.00  0.00    -0.866 OA 
ENDBRANCH   6  11
ENDBRANCH   3   4
TORSDOF 2
ENDMDL
MODEL       25
REMARK 921   NORMALIZED FREE ENERGY PREDICTED BY IDOCK:   -5.45 KCAL/MOL
REMARK 922        TOTAL FREE ENERGY PREDICTED BY IDOCK:   -6.40 KCAL/MOL
REMARK 923 INTER-LIGAND FREE ENERGY PREDICTED BY IDOCK:   -6.19 KCAL/MOL
REMARK 924 INTRA-LIGAND FREE ENERGY PREDICTED BY IDOCK:   -0.21 KCAL/MOL
REMARK 927      BINDING AFFINITY PREDICTED BY RF-SCORE:    0.00 PKD
ROOT
HETATM    1  O5* UNL     1     -12.126   6.776  69.919  1.00  0.00    -0.656 OA 
HETATM    2  H5* UNL     1     -11.944   5.911  69.574  1.00  0.00     0.000 HD 
HETATM    3  C5* UNL     1     -10.967   7.359  70.513  1.00  0.00    -0.253 C  
ENDROOT
BRANCH   3   4
HETATM    4  C4* UNL     1     -11.261   8.751  71.069  1.00  0.00    -0.273 C  
HETATM    5  O4* UNL     1     -10.952   9.778  70.108  1.00  0.00    -0.250 OA 
HETATM    6  C1* UNL     1     -11.693  10.931  70.538  1.00  0.00    -0.342 C  
HETATM    7  H3* UNL     1     -13.802   8.908  73.100  1.00  0.00     0.000 HD 
HETATM    8  C2* UNL     1     -13.023  10.394  71.058  1.00  0.00    -0.490 C  
HETATM    9  C3* UNL     1     -12.723   8.963  71.457  1.00  0.00    -0.335 C  
HETATM   10  O3* UNL     1     -12.893   8.776  72.859  1.00  0.00    -0.313 OA 
BRANCH   6  11
HETATM   11  N   UNL     1     -11.825  11.927  69.477  1.00  0.00    -0.324 N  
HETATM   12  C   UNL     1     -11.565  12.546  67.179  1.00  0.00    -0.368 C  
HETATM   13  C   UNL     1     -11.556  11.624  68.152  1.00  0.00    -0.319 C  
HETATM   14  I   UNL     1     -11.114  12.097  65.236  1.00  0.00    -0.363 I  
HETATM   15  C   UNL     1     -11.891  13.948  67.557  1.00  0.00    -0.396 C  
HETATM   16  O   UNL     1     -11.864  14.888  66.770  1.00  0.00    -0.304 OA 
HETATM   17  N   UNL     1     -12.221  14.147  68.871  1.00  0.00    -0.538 N  
HETATM   18  C   UNL     1     -12.147  13.219  69.872  1.00  0.00    -0.308 C  
HETATM   19  H   UNL     1     -12.554  15.076  69.127  1.00  0.00     0.000 HD 
HETATM   20  O   UNL     1     -12.351  13.553  71.037  1.00  0.00    -0.362 OA 
ENDBRANCH   6  11
ENDBRANCH   3   4
TORSDOF 2
ENDMDL
MODEL       26
REMARK 921   NORMALIZED FREE ENERGY PREDICTED BY IDOCK:   -5.45 KCAL/MOL
REMARK 922        TOTAL FREE ENERGY PREDICTED BY IDOCK:   -6.40 KCAL/MOL
REMARK 923 INTER-LIGAND FREE ENERGY PREDICTED BY IDOCK:   -6.01 KCAL/MOL
REMARK 924 INTRA-LIGAND FREE ENERGY PREDICTED BY IDOCK:   -0.39 KCAL/MOL
REMARK 927      BINDING AFFINITY PREDICTED BY RF-SCORE:    0.00 PKD
ROOT
HETATM    1  O5* UNL     1      -8.874  16.566  65.823  1.00  0.00    -0.474 OA 
HETATM    2  H5* UNL     1      -8.319  16.322  65.092  1.00  0.00     0.000 HD 
HETATM    3  C5* UNL     1     -10.047  15.754  65.885  1.00  0.00    -0.356 C  
ENDROOT
BRANCH   3   4
HETATM    4  C4* UNL     1     -10.939  16.147  67.061  1.00  0.00    -0.123 C  
HETATM    5  O4* UNL     1     -11.550  14.991  67.666  1.00  0.00    -0.339 OA 
HETATM    6  C1* UNL     1     -11.941  15.418  68.981  1.00  0.00    -0.288 C  
HETATM    7  H3* UNL     1      -9.909  18.725  68.763  1.00  0.00     0.000 HD 
HETATM    8  C2* UNL     1     -10.828  16.346  69.459  1.00  0.00    -0.338 C  
HETATM    9  C3* UNL     1     -10.197  16.867  68.184  1.00  0.00    -0.311 C  
HETATM   10  O3* UNL     1     -10.371  18.277  68.064  1.00  0.00    -0.368 OA 
BRANCH   6  11
HETATM   11  N   UNL     1     -12.200  14.290  69.871  1.00  0.00    -0.341 N  
HETATM   12  C   UNL     1     -11.974  11.960  70.375  1.00  0.00    -0.311 C  
HETATM   13  C   UNL     1     -11.664  13.033  69.635  1.00  0.00    -0.297 C  
HETATM   14  I   UNL     1     -11.218  10.101  69.985  1.00  0.00    -0.389 I  
HETATM   15  C   UNL     1     -12.930  12.147  71.501  1.00  0.00    -0.295 C  
HETATM   16  O   UNL     1     -13.341  11.230  72.202  1.00  0.00    -0.457 OA 
HETATM   17  N   UNL     1     -13.350  13.433  71.714  1.00  0.00    -0.399 N  
HETATM   18  C   UNL     1     -13.084  14.513  70.919  1.00  0.00    -0.345 C  
HETATM   19  H   UNL     1     -13.916  13.600  72.545  1.00  0.00     0.000 HD 
HETATM   20  O   UNL     1     -13.624  15.593  71.147  1.00  0.00    -0.582 OA 
ENDBRANCH   6  11
ENDBRANCH   3   4
TORSDOF 2
ENDMDL
MODEL       27
REMARK 921   NORMALIZED FREE ENERGY PREDICTED BY IDOCK:   -5.40 KCAL/MOL
REMARK 922        TOTAL FREE ENERGY PREDICTED BY IDOCK:   -6.35 KCAL/MOL
REMARK 923 INTER-LIGAND FREE ENERGY PREDICTED BY IDOCK:   -5.89 KCAL/MOL
REMARK 924 INTRA-LIGAND FREE ENERGY PREDICTED BY IDOCK:   -0.45 KCAL/MOL
REMARK 927      BINDING AFFINITY PREDICTED BY RF-SCORE:    0.00 PKD
ROOT
HETATM    1  O5* UNL     1     -12.109  12.107  65.885  1.00  0.00    -0.594 OA 
HETATM    2  H5* UNL     1     -12.034  11.189  66.114  1.00  0.00     0.000 HD 
HETATM    3  C5* UNL     1     -11.740  12.952  66.974  1.00  0.00    -0.385 C  
ENDROOT
BRANCH   3   4
HETATM    4  C4* UNL     1     -11.861  14.429  66.606  1.00  0.00    -0.398 C  
HETATM    5  O4* UNL     1     -11.084  15.257  67.491  1.00  0.00    -0.312 OA 
HETATM    6  C1* UNL     1     -10.894  16.492  66.781  1.00  0.00    -0.070 C  
HETATM    7  H3* UNL     1     -12.186  15.025  63.421  1.00  0.00     0.000 HD 
HETATM    8  C2* UNL     1     -10.693  16.099  65.320  1.00  0.00    -0.386 C  
HETATM    9  C3* UNL     1     -11.379  14.753  65.194  1.00  0.00    -0.379 C  
HETATM   10  O3* UNL     1     -12.486  14.824  64.299  1.00  0.00    -0.661 OA 
BRANCH   6  11
HETATM   11  N   UNL     1      -9.804  17.286  67.341  1.00  0.00    -0.265 N  
HETATM   12  C   UNL     1      -7.711  17.399  68.498  1.00  0.00    -0.267 C  
HETATM   13  C   UNL     1      -8.673  16.697  67.884  1.00  0.00    -0.193 C  
HETATM   14  I   UNL     1      -6.073  16.513  69.343  1.00  0.00    -0.200 I  
HETATM   15  C   UNL     1      -7.878  18.876  68.582  1.00  0.00    -0.340 C  
HETATM   16  O   UNL     1      -7.101  19.614  69.178  1.00  0.00    -0.347 OA 
HETATM   17  N   UNL     1      -8.982  19.385  67.952  1.00  0.00    -0.311 N  
HETATM   18  C   UNL     1      -9.993  18.662  67.383  1.00  0.00    -0.332 C  
HETATM   19  H   UNL     1      -9.056  20.400  67.903  1.00  0.00     0.000 HD 
HETATM   20  O   UNL     1     -10.995  19.233  66.959  1.00  0.00    -0.454 OA 
ENDBRANCH   6  11
ENDBRANCH   3   4
TORSDOF 2
ENDMDL
MODEL       28
REMARK 921   NORMALIZED FREE ENERGY PREDICTED BY IDOCK:   -5.36 KCAL/MOL
REMARK 922        TOTAL FREE ENERGY PREDICTED BY IDOCK:   -6.30 KCAL/MOL
REMARK 923 INTER-LIGAND FREE ENERGY PREDICTED BY IDOCK:   -6.00 KCAL/MOL
REMARK 924 INTRA-LIGAND FREE ENERGY PREDICTED BY IDOCK:   -0.30 KCAL/MOL
REMARK 927      BINDING AFFINITY PREDICTED BY RF-SCORE:    0.00 PKD
ROOT
HETATM    1  O5* UNL     1     -11.195  16.601  63.851  1.00  0.00    -1.440 OA 
HETATM    2  H5* UNL     1     -10.876  17.486  63.977  1.00  0.00     0.000 HD 
HETATM    3  C5* UNL     1     -10.872  15.763  64.961  1.00  0.00    -0.443 C  
ENDROOT
BRANCH   3   4
HETATM    4  C4* UNL     1     -11.386  14.340  64.758  1.00  0.00    -0.382 C  
HETATM    5  O4* UNL     1     -10.301  13.397  64.670  1.00  0.00    -0.395 OA 
HETATM    6  C1* UNL     1     -10.888  12.119  64.962  1.00  0.00    -0.300 C  
HETATM    7  H3* UNL     1     -14.216  13.680  66.228  1.00  0.00     0.000 HD 
HETATM    8  C2* UNL     1     -11.919  12.381  66.056  1.00  0.00    -0.419 C  
HETATM    9  C3* UNL     1     -12.285  13.843  65.887  1.00  0.00    -0.467 C  
HETATM   10  O3* UNL     1     -13.656  13.989  65.525  1.00  0.00    -0.596 OA 
BRANCH   6  11
HETATM   11  N   UNL     1      -9.884  11.120  65.316  1.00  0.00    -0.234 N  
HETATM   12  C   UNL     1      -8.352  10.205  66.913  1.00  0.00    -0.122 C  
HETATM   13  C   UNL     1      -9.350  11.040  66.593  1.00  0.00    -0.177 C  
HETATM   14  I   UNL     1      -7.536  10.134  68.786  1.00  0.00    -0.108 I  
HETATM   15  C   UNL     1      -7.814   9.325  65.839  1.00  0.00    -0.099 C  
HETATM   16  O   UNL     1      -6.859   8.571  65.993  1.00  0.00    -0.060 OA 
HETATM   17  N   UNL     1      -8.449   9.410  64.629  1.00  0.00    -0.156 N  
HETATM   18  C   UNL     1      -9.423  10.308  64.288  1.00  0.00    -0.307 C  
HETATM   19  H   UNL     1      -8.170   8.738  63.914  1.00  0.00     0.000 HD 
HETATM   20  O   UNL     1      -9.828  10.366  63.129  1.00  0.00    -0.299 OA 
ENDBRANCH   6  11
ENDBRANCH   3   4
TORSDOF 2
ENDMDL
MODEL       29
REMARK 921   NORMALIZED FREE ENERGY PREDICTED BY IDOCK:   -5.32 KCAL/MOL
REMARK 922        TOTAL FREE ENERGY PREDICTED BY IDOCK:   -6.26 KCAL/MOL
REMARK 923 INTER-LIGAND FREE ENERGY PREDICTED BY IDOCK:   -5.97 KCAL/MOL
REMARK 924 INTRA-LIGAND FREE ENERGY PREDICTED BY IDOCK:   -0.29 KCAL/MOL
REMARK 927      BINDING AFFINITY PREDICTED BY RF-SCORE:    0.00 PKD
ROOT
HETATM    1  O5* UNL     1     -12.561  14.214  69.474  1.00  0.00    -0.481 OA 
HETATM    2  H5* UNL     1     -12.524  13.579  70.178  1.00  0.00     0.000 HD 
HETATM    3  C5* UNL     1     -11.506  14.017  68.533  1.00  0.00    -0.302 C  
ENDROOT
BRANCH   3   4
HETATM    4  C4* UNL     1     -11.566  15.039  67.400  1.00  0.00    -0.291 C  
HETATM    5  O4* UNL     1     -10.962  16.288  67.785  1.00  0.00    -0.330 OA 
HETATM    6  C1* UNL     1     -10.655  16.954  66.550  1.00  0.00    -0.185 C  
HETATM    7  H3* UNL     1     -11.325  13.782  64.405  1.00  0.00     0.000 HD 
HETATM    8  C2* UNL     1     -10.196  15.856  65.594  1.00  0.00    -0.406 C  
HETATM    9  C3* UNL     1     -10.843  14.595  66.131  1.00  0.00    -0.321 C  
HETATM   10  O3* UNL     1     -11.774  14.058  65.195  1.00  0.00    -0.325 OA 
BRANCH   6  11
HETATM   11  N   UNL     1      -9.684  18.030  66.732  1.00  0.00    -0.308 N  
HETATM   12  C   UNL     1      -7.749  18.903  67.839  1.00  0.00    -0.261 C  
HETATM   13  C   UNL     1      -8.591  17.895  67.574  1.00  0.00    -0.239 C  
HETATM   14  I   UNL     1      -6.171  18.707  69.125  1.00  0.00    -0.279 I  
HETATM   15  C   UNL     1      -8.009  20.214  67.183  1.00  0.00    -0.326 C  
HETATM   16  O   UNL     1      -7.351  21.225  67.401  1.00  0.00    -0.484 OA 
HETATM   17  N   UNL     1      -9.060  20.240  66.307  1.00  0.00    -0.593 N  
HETATM   18  C   UNL     1      -9.956  19.230  66.088  1.00  0.00    -0.397 C  
HETATM   19  H   UNL     1      -9.187  21.094  65.765  1.00  0.00     0.000 HD 
HETATM   20  O   UNL     1     -10.933  19.420  65.367  1.00  0.00    -0.438 OA 
ENDBRANCH   6  11
ENDBRANCH   3   4
TORSDOF 2
ENDMDL
MODEL       30
REMARK 921   NORMALIZED FREE ENERGY PREDICTED BY IDOCK:   -5.26 KCAL/MOL
REMARK 922        TOTAL FREE ENERGY PREDICTED BY IDOCK:   -6.20 KCAL/MOL
REMARK 923 INTER-LIGAND FREE ENERGY PREDICTED BY IDOCK:   -5.88 KCAL/MOL
REMARK 924 INTRA-LIGAND FREE ENERGY PREDICTED BY IDOCK:   -0.32 KCAL/MOL
REMARK 927      BINDING AFFINITY PREDICTED BY RF-SCORE:    0.00 PKD
ROOT
HETATM    1  O5* UNL     1     -10.938  16.387  67.840  1.00  0.00    -0.339 OA 
HETATM    2  H5* UNL     1     -10.924  16.986  68.576  1.00  0.00     0.000 HD 
HETATM    3  C5* UNL     1     -10.120  16.855  66.768  1.00  0.00    -0.294 C  
ENDROOT
BRANCH   3   4
HETATM    4  C4* UNL     1     -10.143  15.892  65.583  1.00  0.00    -0.358 C  
HETATM    5  O4* UNL     1      -9.743  14.566  65.975  1.00  0.00    -0.298 OA 
HETATM    6  C1* UNL     1     -10.253  13.700  64.949  1.00  0.00    -0.339 C  
HETATM    7  H3* UNL     1     -12.468  16.483  63.380  1.00  0.00     0.000 HD 
HETATM    8  C2* UNL     1     -11.611  14.278  64.561  1.00  0.00    -0.397 C  
HETATM    9  C3* UNL     1     -11.518  15.744  64.936  1.00  0.00    -0.193 C  
HETATM   10  O3* UNL     1     -11.612  16.575  63.782  1.00  0.00    -1.109 OA 
BRANCH   6  11
HETATM   11  N   UNL     1     -10.299  12.305  65.378  1.00  0.00    -0.263 N  
HETATM   12  C   UNL     1     -10.469  10.688  67.136  1.00  0.00    -0.245 C  
HETATM   13  C   UNL     1     -10.529  11.953  66.699  1.00  0.00    -0.216 C  
HETATM   14  I   UNL     1     -10.756  10.188  69.098  1.00  0.00    -0.302 I  
HETATM   15  C   UNL     1     -10.151   9.627  66.142  1.00  0.00    -0.258 C  
HETATM   16  O   UNL     1     -10.002   8.445  66.434  1.00  0.00    -0.263 OA 
HETATM   17  N   UNL     1     -10.017  10.049  64.847  1.00  0.00    -0.369 N  
HETATM   18  C   UNL     1     -10.014  11.346  64.415  1.00  0.00    -0.274 C  
HETATM   19  H   UNL     1      -9.910   9.326  64.135  1.00  0.00     0.000 HD 
HETATM   20  O   UNL     1      -9.759  11.604  63.241  1.00  0.00    -0.363 OA 
ENDBRANCH   6  11
ENDBRANCH   3   4
TORSDOF 2
ENDMDL
MODEL       31
REMARK 921   NORMALIZED FREE ENERGY PREDICTED BY IDOCK:   -5.24 KCAL/MOL
REMARK 922        TOTAL FREE ENERGY PREDICTED BY IDOCK:   -6.17 KCAL/MOL
REMARK 923 INTER-LIGAND FREE ENERGY PREDICTED BY IDOCK:   -5.88 KCAL/MOL
REMARK 924 INTRA-LIGAND FREE ENERGY PREDICTED BY IDOCK:   -0.29 KCAL/MOL
REMARK 927      BINDING AFFINITY PREDICTED BY RF-SCORE:    0.00 PKD
ROOT
HETATM    1  O5* UNL     1     -12.975  13.782  64.954  1.00  0.00    -0.712 OA 
HETATM    2  H5* UNL     1     -13.370  13.570  64.116  1.00  0.00     0.000 HD 
HETATM    3  C5* UNL     1     -12.091  12.751  65.393  1.00  0.00    -0.462 C  
ENDROOT
BRANCH   3   4
HETATM    4  C4* UNL     1     -11.457  13.093  66.740  1.00  0.00    -0.343 C  
HETATM    5  O4* UNL     1     -12.191  12.507  67.831  1.00  0.00    -0.352 OA 
HETATM    6  C1* UNL     1     -11.272  12.485  68.934  1.00  0.00    -0.281 C  
HETATM    7  H3* UNL     1      -8.210  13.348  66.700  1.00  0.00     0.000 HD 
HETATM    8  C2* UNL     1      -9.912  12.148  68.329  1.00  0.00    -0.212 C  
HETATM    9  C3* UNL     1     -10.019  12.598  66.886  1.00  0.00    -0.230 C  
HETATM   10  O3* UNL     1      -9.104  13.655  66.609  1.00  0.00    -0.238 OA 
BRANCH   6  11
HETATM   11  N   UNL     1     -11.699  11.568  69.988  1.00  0.00    -0.331 N  
HETATM   12  C   UNL     1     -11.827   9.345  70.867  1.00  0.00    -0.294 C  
HETATM   13  C   UNL     1     -11.358  10.225  69.972  1.00  0.00    -0.301 C  
HETATM   14  I   UNL     1     -11.360   7.355  70.801  1.00  0.00    -0.286 I  
HETATM   15  C   UNL     1     -12.745   9.853  71.923  1.00  0.00    -0.409 C  
HETATM   16  O   UNL     1     -13.289   9.134  72.753  1.00  0.00    -0.410 OA 
HETATM   17  N   UNL     1     -12.966  11.204  71.916  1.00  0.00    -0.441 N  
HETATM   18  C   UNL     1     -12.540  12.088  70.963  1.00  0.00    -0.273 C  
HETATM   19  H   UNL     1     -13.501  11.587  72.695  1.00  0.00     0.000 HD 
HETATM   20  O   UNL     1     -12.911  13.259  71.001  1.00  0.00    -0.304 OA 
ENDBRANCH   6  11
ENDBRANCH   3   4
TORSDOF 2
ENDMDL
MODEL       32
REMARK 921   NORMALIZED FREE ENERGY PREDICTED BY IDOCK:   -5.23 KCAL/MOL
REMARK 922        TOTAL FREE ENERGY PREDICTED BY IDOCK:   -6.16 KCAL/MOL
REMARK 923 INTER-LIGAND FREE ENERGY PREDICTED BY IDOCK:   -6.34 KCAL/MOL
REMARK 924 INTRA-LIGAND FREE ENERGY PREDICTED BY IDOCK:    0.18 KCAL/MOL
REMARK 927      BINDING AFFINITY PREDICTED BY RF-SCORE:    0.00 PKD
ROOT
HETATM    1  O5* UNL     1     -11.031   8.082  67.333  1.00  0.00    -0.512 OA 
HETATM    2  H5* UNL     1     -11.009   7.264  66.849  1.00  0.00     0.000 HD 
HETATM    3  C5* UNL     1     -10.079   9.017  66.827  1.00  0.00    -0.274 C  
ENDROOT
BRANCH   3   4
HETATM    4  C4* UNL     1     -10.115  10.331  67.604  1.00  0.00    -0.191 C  
HETATM    5  O4* UNL     1      -9.806  11.452  66.756  1.00  0.00    -0.200 OA 
HETATM    6  C1* UNL     1     -10.328  12.600  67.445  1.00  0.00    -0.220 C  
HETATM    7  H3* UNL     1     -12.321  10.448  69.996  1.00  0.00     0.000 HD 
HETATM    8  C2* UNL     1     -11.636  12.137  68.081  1.00  0.00    -0.397 C  
HETATM    9  C3* UNL     1     -11.472  10.638  68.232  1.00  0.00    -0.245 C  
HETATM   10  O3* UNL     1     -11.477  10.257  69.606  1.00  0.00    -0.248 OA 
BRANCH   6  11
HETATM   11  N   UNL     1     -10.471  13.754  66.561  1.00  0.00    -0.279 N  
HETATM   12  C   UNL     1     -10.423  16.125  66.235  1.00  0.00    -0.315 C  
HETATM   13  C   UNL     1     -10.197  15.043  66.992  1.00  0.00    -0.257 C  
HETATM   14  I   UNL     1     -10.065  18.025  66.901  1.00  0.00    -0.394 I  
HETATM   15  C   UNL     1     -10.983  15.913  64.872  1.00  0.00    -0.411 C  
HETATM   16  O   UNL     1     -11.295  16.827  64.116  1.00  0.00    -1.194 OA 
HETATM   17  N   UNL     1     -11.149  14.608  64.496  1.00  0.00    -0.610 N  
HETATM   18  C   UNL     1     -10.980  13.509  65.293  1.00  0.00    -0.295 C  
HETATM   19  H   UNL     1     -11.426  14.438  63.530  1.00  0.00     0.000 HD 
HETATM   20  O   UNL     1     -11.283  12.393  64.875  1.00  0.00    -0.295 OA 
ENDBRANCH   6  11
ENDBRANCH   3   4
TORSDOF 2
ENDMDL
MODEL       33
REMARK 921   NORMALIZED FREE ENERGY PREDICTED BY IDOCK:   -5.22 KCAL/MOL
REMARK 922        TOTAL FREE ENERGY PREDICTED BY IDOCK:   -6.15 KCAL/MOL
REMARK 923 INTER-LIGAND FREE ENERGY PREDICTED BY IDOCK:   -5.68 KCAL/MOL
REMARK 924 INTRA-LIGAND FREE ENERGY PREDICTED BY IDOCK:   -0.46 KCAL/MOL
REMARK 927      BINDING AFFINITY PREDICTED BY RF-SCORE:    0.00 PKD
ROOT
HETATM    1  O5* UNL     1      -8.241  16.816  66.024  1.00  0.00    -0.423 OA 
HETATM    2  H5* UNL     1      -7.643  17.535  66.185  1.00  0.00     0.000 HD 
HETATM    3  C5* UNL     1      -8.200  15.853  67.077  1.00  0.00    -0.221 C  
ENDROOT
BRANCH   3   4
HETATM    4  C4* UNL     1      -9.162  14.696  66.818  1.00  0.00    -0.264 C  
HETATM    5  O4* UNL     1      -9.584  14.077  68.047  1.00  0.00    -0.204 OA 
HETATM    6  C1* UNL     1     -10.793  13.374  67.719  1.00  0.00    -0.252 C  
HETATM    7  H3* UNL     1     -11.122  15.092  64.248  1.00  0.00     0.000 HD 
HETATM    8  C2* UNL     1     -11.531  14.267  66.726  1.00  0.00    -0.380 C  
HETATM    9  C3* UNL     1     -10.440  15.108  66.093  1.00  0.00    -0.312 C  
HETATM   10  O3* UNL     1     -10.327  14.835  64.699  1.00  0.00    -0.316 OA 
BRANCH   6  11
HETATM   11  N   UNL     1     -11.571  13.033  68.907  1.00  0.00    -0.290 N  
HETATM   12  C   UNL     1     -12.731  13.719  70.885  1.00  0.00    -0.323 C  
HETATM   13  C   UNL     1     -12.108  14.006  69.734  1.00  0.00    -0.348 C  
HETATM   14  I   UNL     1     -13.472  15.167  72.124  1.00  0.00    -0.741 I  
HETATM   15  C   UNL     1     -12.852  12.286  71.269  1.00  0.00    -0.239 C  
HETATM   16  O   UNL     1     -13.339  11.905  72.327  1.00  0.00    -0.471 OA 
HETATM   17  N   UNL     1     -12.366  11.386  70.359  1.00  0.00    -0.328 N  
HETATM   18  C   UNL     1     -11.673  11.683  69.218  1.00  0.00    -0.331 C  
HETATM   19  H   UNL     1     -12.538  10.399  70.550  1.00  0.00     0.000 HD 
HETATM   20  O   UNL     1     -11.178  10.781  68.546  1.00  0.00    -0.239 OA 
ENDBRANCH   6  11
ENDBRANCH   3   4
TORSDOF 2
ENDMDL
MODEL       34
REMARK 921   NORMALIZED FREE ENERGY PREDICTED BY IDOCK:   -5.15 KCAL/MOL
REMARK 922        TOTAL FREE ENERGY PREDICTED BY IDOCK:   -6.08 KCAL/MOL
REMARK 923 INTER-LIGAND FREE ENERGY PREDICTED BY IDOCK:   -5.73 KCAL/MOL
REMARK 924 INTRA-LIGAND FREE ENERGY PREDICTED BY IDOCK:   -0.35 KCAL/MOL
REMARK 927      BINDING AFFINITY PREDICTED BY RF-SCORE:    0.00 PKD
ROOT
HETATM    1  O5* UNL     1      -6.746  18.267  65.690  1.00  0.00    -0.317 OA 
HETATM    2  H5* UNL     1      -5.801  18.315  65.770  1.00  0.00     0.000 HD 
HETATM    3  C5* UNL     1      -7.287  17.214  66.487  1.00  0.00    -0.276 C  
ENDROOT
BRANCH   3   4
HETATM    4  C4* UNL     1      -8.806  17.135  66.358  1.00  0.00    -0.255 C  
HETATM    5  O4* UNL     1      -9.335  15.988  67.050  1.00  0.00    -0.210 OA 
HETATM    6  C1* UNL     1     -10.725  16.284  67.261  1.00  0.00    -0.265 C  
HETATM    7  H3* UNL     1     -10.323  20.015  66.247  1.00  0.00     0.000 HD 
HETATM    8  C2* UNL     1     -10.785  17.776  67.575  1.00  0.00    -0.315 C  
HETATM    9  C3* UNL     1      -9.537  18.347  66.932  1.00  0.00    -0.303 C  
HETATM   10  O3* UNL     1      -9.869  19.261  65.890  1.00  0.00    -0.435 OA 
BRANCH   6  11
HETATM   11  N   UNL     1     -11.318  15.433  68.289  1.00  0.00    -0.334 N  
HETATM   12  C   UNL     1     -11.928  15.076  70.577  1.00  0.00    -0.308 C  
HETATM   13  C   UNL     1     -11.487  15.872  69.593  1.00  0.00    -0.346 C  
HETATM   14  I   UNL     1     -12.122  15.719  72.508  1.00  0.00    -0.702 I  
HETATM   15  C   UNL     1     -12.255  13.665  70.232  1.00  0.00    -0.353 C  
HETATM   16  O   UNL     1     -12.600  12.826  71.057  1.00  0.00    -0.363 OA 
HETATM   17  N   UNL     1     -12.136  13.335  68.908  1.00  0.00    -0.287 N  
HETATM   18  C   UNL     1     -11.624  14.130  67.920  1.00  0.00    -0.338 C  
HETATM   19  H   UNL     1     -12.461  12.409  68.633  1.00  0.00     0.000 HD 
HETATM   20  O   UNL     1     -11.453  13.675  66.791  1.00  0.00    -0.320 OA 
ENDBRANCH   6  11
ENDBRANCH   3   4
TORSDOF 2
ENDMDL
MODEL       35
REMARK 921   NORMALIZED FREE ENERGY PREDICTED BY IDOCK:   -5.15 KCAL/MOL
REMARK 922        TOTAL FREE ENERGY PREDICTED BY IDOCK:   -6.07 KCAL/MOL
REMARK 923 INTER-LIGAND FREE ENERGY PREDICTED BY IDOCK:   -5.73 KCAL/MOL
REMARK 924 INTRA-LIGAND FREE ENERGY PREDICTED BY IDOCK:   -0.34 KCAL/MOL
REMARK 927      BINDING AFFINITY PREDICTED BY RF-SCORE:    0.00 PKD
ROOT
HETATM    1  O5* UNL     1      -7.125  19.582  69.466  1.00  0.00    -0.323 OA 
HETATM    2  H5* UNL     1      -6.302  19.725  69.919  1.00  0.00     0.000 HD 
HETATM    3  C5* UNL     1      -6.929  19.416  68.062  1.00  0.00    -0.255 C  
ENDROOT
BRANCH   3   4
HETATM    4  C4* UNL     1      -8.251  19.186  67.334  1.00  0.00    -0.276 C  
HETATM    5  O4* UNL     1      -8.627  17.796  67.353  1.00  0.00    -0.227 OA 
HETATM    6  C1* UNL     1     -10.039  17.785  67.089  1.00  0.00    -0.338 C  
HETATM    7  H3* UNL     1     -10.395  21.625  67.584  1.00  0.00     0.000 HD 
HETATM    8  C2* UNL     1     -10.603  19.000  67.821  1.00  0.00    -0.488 C  
HETATM    9  C3* UNL     1      -9.427  19.949  67.938  1.00  0.00    -0.359 C  
HETATM   10  O3* UNL     1      -9.664  21.150  67.208  1.00  0.00    -0.336 OA 
BRANCH   6  11
HETATM   11  N   UNL     1     -10.660  16.519  67.469  1.00  0.00    -0.321 N  
HETATM   12  C   UNL     1     -11.661  15.127  69.139  1.00  0.00    -0.323 C  
HETATM   13  C   UNL     1     -11.185  16.312  68.734  1.00  0.00    -0.343 C  
HETATM   14  I   UNL     1     -12.384  14.819  71.027  1.00  0.00    -0.507 I  
HETATM   15  C   UNL     1     -11.624  13.998  68.169  1.00  0.00    -0.334 C  
HETATM   16  O   UNL     1     -11.966  12.853  68.446  1.00  0.00    -0.326 OA 
HETATM   17  N   UNL     1     -11.164  14.306  66.917  1.00  0.00    -0.315 N  
HETATM   18  C   UNL     1     -10.619  15.498  66.527  1.00  0.00    -0.307 C  
HETATM   19  H   UNL     1     -11.235  13.577  66.208  1.00  0.00     0.000 HD 
HETATM   20  O   UNL     1     -10.126  15.613  65.408  1.00  0.00    -0.355 OA 
ENDBRANCH   6  11
ENDBRANCH   3   4
TORSDOF 2
ENDMDL
MODEL       36
REMARK 921   NORMALIZED FREE ENERGY PREDICTED BY IDOCK:   -5.14 KCAL/MOL
REMARK 922        TOTAL FREE ENERGY PREDICTED BY IDOCK:   -6.06 KCAL/MOL
REMARK 923 INTER-LIGAND FREE ENERGY PREDICTED BY IDOCK:   -5.72 KCAL/MOL
REMARK 924 INTRA-LIGAND FREE ENERGY PREDICTED BY IDOCK:   -0.34 KCAL/MOL
REMARK 927      BINDING AFFINITY PREDICTED BY RF-SCORE:    0.00 PKD
ROOT
HETATM    1  O5* UNL     1     -13.397  12.463  64.517  1.00  0.00    -0.800 OA 
HETATM    2  H5* UNL     1     -14.242  12.190  64.180  1.00  0.00     0.000 HD 
HETATM    3  C5* UNL     1     -12.370  12.324  63.535  1.00  0.00    -0.565 C  
ENDROOT
BRANCH   3   4
HETATM    4  C4* UNL     1     -11.012  12.763  64.077  1.00  0.00    -0.415 C  
HETATM    5  O4* UNL     1     -11.106  14.016  64.780  1.00  0.00    -0.354 OA 
HETATM    6  C1* UNL     1      -9.938  14.068  65.615  1.00  0.00    -0.286 C  
HETATM    7  H3* UNL     1      -9.057  10.330  65.008  1.00  0.00     0.000 HD 
HETATM    8  C2* UNL     1      -9.723  12.640  66.109  1.00  0.00    -0.253 C  
HETATM    9  C3* UNL     1     -10.393  11.773  65.061  1.00  0.00    -0.281 C  
HETATM   10  O3* UNL     1      -9.442  10.946  64.396  1.00  0.00    -0.219 OA 
BRANCH   6  11
HETATM   11  N   UNL     1     -10.068  15.055  66.683  1.00  0.00    -0.255 N  
HETATM   12  C   UNL     1     -11.047  15.738  68.758  1.00  0.00    -0.321 C  
HETATM   13  C   UNL     1     -10.825  14.810  67.818  1.00  0.00    -0.278 C  
HETATM   14  I   UNL     1     -12.210  15.381  70.402  1.00  0.00    -0.424 I  
HETATM   15  C   UNL     1     -10.437  17.082  68.563  1.00  0.00    -0.373 C  
HETATM   16  O   UNL     1     -10.624  18.029  69.318  1.00  0.00    -0.060 OA 
HETATM   17  N   UNL     1      -9.640  17.216  67.458  1.00  0.00    -0.251 N  
HETATM   18  C   UNL     1      -9.468  16.289  66.467  1.00  0.00    -0.264 C  
HETATM   19  H   UNL     1      -9.125  18.091  67.365  1.00  0.00     0.000 HD 
HETATM   20  O   UNL     1      -8.825  16.576  65.460  1.00  0.00    -0.325 OA 
ENDBRANCH   6  11
ENDBRANCH   3   4
TORSDOF 2
ENDMDL
MODEL       37
REMARK 921   NORMALIZED FREE ENERGY PREDICTED BY IDOCK:   -5.11 KCAL/MOL
REMARK 922        TOTAL FREE ENERGY PREDICTED BY IDOCK:   -6.03 KCAL/MOL
REMARK 923 INTER-LIGAND FREE ENERGY PREDICTED BY IDOCK:   -6.28 KCAL/MOL
REMARK 924 INTRA-LIGAND FREE ENERGY PREDICTED BY IDOCK:    0.25 KCAL/MOL
REMARK 927      BINDING AFFINITY PREDICTED BY RF-SCORE:    0.00 PKD
ROOT
HETATM    1  O5* UNL     1     -12.386  14.492  63.574  1.00  0.00    -1.081 OA 
HETATM    2  H5* UNL     1     -12.708  14.475  62.681  1.00  0.00     0.000 HD 
HETATM    3  C5* UNL     1     -11.596  13.341  63.870  1.00  0.00    -0.400 C  
ENDROOT
BRANCH   3   4
HETATM    4  C4* UNL     1     -11.077  13.370  65.306  1.00  0.00    -0.291 C  
HETATM    5  O4* UNL     1     -10.623  14.686  65.675  1.00  0.00    -0.297 OA 
HETATM    6  C1* UNL     1     -10.626  14.694  67.112  1.00  0.00    -0.282 C  
HETATM    7  H3* UNL     1     -12.616  11.364  67.359  1.00  0.00     0.000 HD 
HETATM    8  C2* UNL     1     -11.856  13.891  67.525  1.00  0.00    -0.431 C  
HETATM    9  C3* UNL     1     -12.123  12.977  66.346  1.00  0.00    -0.358 C  
HETATM   10  O3* UNL     1     -11.965  11.609  66.712  1.00  0.00    -0.536 OA 
BRANCH   6  11
HETATM   11  N   UNL     1     -10.590  16.050  67.653  1.00  0.00    -0.304 N  
HETATM   12  C   UNL     1     -10.194  18.391  67.342  1.00  0.00    -0.372 C  
HETATM   13  C   UNL     1     -10.338  17.152  66.851  1.00  0.00    -0.308 C  
HETATM   14  I   UNL     1      -9.770  20.000  66.154  1.00  0.00    -0.198 I  
HETATM   15  C   UNL     1     -10.322  18.572  68.814  1.00  0.00    -0.170 C  
HETATM   16  O   UNL     1     -10.142  19.642  69.384  1.00  0.00    -0.390 OA 
HETATM   17  N   UNL     1     -10.649  17.448  69.523  1.00  0.00    -0.322 N  
HETATM   18  C   UNL     1     -10.731  16.176  69.029  1.00  0.00    -0.287 C  
HETATM   19  H   UNL     1     -10.850  17.572  70.515  1.00  0.00     0.000 HD 
HETATM   20  O   UNL     1     -10.910  15.229  69.793  1.00  0.00    -0.256 OA 
ENDBRANCH   6  11
ENDBRANCH   3   4
TORSDOF 2
ENDMDL
MODEL       38
REMARK 921   NORMALIZED FREE ENERGY PREDICTED BY IDOCK:   -5.02 KCAL/MOL
REMARK 922        TOTAL FREE ENERGY PREDICTED BY IDOCK:   -5.92 KCAL/MOL
REMARK 923 INTER-LIGAND FREE ENERGY PREDICTED BY IDOCK:   -5.76 KCAL/MOL
REMARK 924 INTRA-LIGAND FREE ENERGY PREDICTED BY IDOCK:   -0.16 KCAL/MOL
REMARK 927      BINDING AFFINITY PREDICTED BY RF-SCORE:    0.00 PKD
ROOT
HETATM    1  O5* UNL     1     -11.523  16.415  63.948  1.00  0.00    -1.569 OA 
HETATM    2  H5* UNL     1     -11.293  17.321  63.783  1.00  0.00     0.000 HD 
HETATM    3  C5* UNL     1     -10.597  15.793  64.838  1.00  0.00    -0.284 C  
ENDROOT
BRANCH   3   4
HETATM    4  C4* UNL     1     -10.967  14.335  65.103  1.00  0.00    -0.363 C  
HETATM    5  O4* UNL     1      -9.887  13.626  65.740  1.00  0.00    -0.274 OA 
HETATM    6  C1* UNL     1     -10.499  12.477  66.349  1.00  0.00    -0.247 C  
HETATM    7  H3* UNL     1     -14.105  13.822  65.805  1.00  0.00     0.000 HD 
HETATM    8  C2* UNL     1     -11.847  12.961  66.876  1.00  0.00    -0.444 C  
HETATM    9  C3* UNL     1     -12.179  14.163  66.015  1.00  0.00    -0.443 C  
HETATM   10  O3* UNL     1     -13.351  13.929  65.238  1.00  0.00    -0.732 OA 
BRANCH   6  11
HETATM   11  N   UNL     1      -9.643  11.873  67.366  1.00  0.00    -0.173 N  
HETATM   12  C   UNL     1      -7.639  11.919  68.675  1.00  0.00    -0.119 C  
HETATM   13  C   UNL     1      -8.495  12.500  67.824  1.00  0.00    -0.171 C  
HETATM   14  I   UNL     1      -5.922  12.834  69.303  1.00  0.00    -0.115 I  
HETATM   15  C   UNL     1      -7.957  10.542  69.145  1.00  0.00    -0.145 C  
HETATM   16  O   UNL     1      -7.217   9.884  69.868  1.00  0.00    -0.093 OA 
HETATM   17  N   UNL     1      -9.146  10.026  68.707  1.00  0.00    -0.141 N  
HETATM   18  C   UNL     1      -9.985  10.595  67.789  1.00  0.00    -0.167 C  
HETATM   19  H   UNL     1      -9.435   9.133  69.104  1.00  0.00     0.000 HD 
HETATM   20  O   UNL     1     -10.965   9.973  67.382  1.00  0.00    -0.283 OA 
ENDBRANCH   6  11
ENDBRANCH   3   4
TORSDOF 2
ENDMDL
MODEL       39
REMARK 921   NORMALIZED FREE ENERGY PREDICTED BY IDOCK:   -4.99 KCAL/MOL
REMARK 922        TOTAL FREE ENERGY PREDICTED BY IDOCK:   -5.89 KCAL/MOL
REMARK 923 INTER-LIGAND FREE ENERGY PREDICTED BY IDOCK:   -5.85 KCAL/MOL
REMARK 924 INTRA-LIGAND FREE ENERGY PREDICTED BY IDOCK:   -0.05 KCAL/MOL
REMARK 927      BINDING AFFINITY PREDICTED BY RF-SCORE:    0.00 PKD
ROOT
HETATM    1  O5* UNL     1     -12.013  11.163  67.711  1.00  0.00    -0.630 OA 
HETATM    2  H5* UNL     1     -11.787  10.293  68.017  1.00  0.00     0.000 HD 
HETATM    3  C5* UNL     1     -11.280  11.514  66.538  1.00  0.00    -0.259 C  
ENDROOT
BRANCH   3   4
HETATM    4  C4* UNL     1     -11.644  12.913  66.046  1.00  0.00    -0.375 C  
HETATM    5  O4* UNL     1     -11.193  13.927  66.963  1.00  0.00    -0.298 OA 
HETATM    6  C1* UNL     1     -11.157  15.140  66.195  1.00  0.00    -0.311 C  
HETATM    7  H3* UNL     1     -11.608  13.282  62.810  1.00  0.00     0.000 HD 
HETATM    8  C2* UNL     1     -10.665  14.734  64.808  1.00  0.00    -0.380 C  
HETATM    9  C3* UNL     1     -11.034  13.268  64.692  1.00  0.00    -0.370 C  
HETATM   10  O3* UNL     1     -11.987  13.061  63.653  1.00  0.00    -0.481 OA 
BRANCH   6  11
HETATM   11  N   UNL     1     -10.347  16.173  66.835  1.00  0.00    -0.293 N  
HETATM   12  C   UNL     1      -8.367  17.518  66.877  1.00  0.00    -0.232 C  
HETATM   13  C   UNL     1      -9.181  16.651  66.259  1.00  0.00    -0.294 C  
HETATM   14  I   UNL     1      -6.621  18.174  66.039  1.00  0.00    -0.288 I  
HETATM   15  C   UNL     1      -8.755  17.984  68.236  1.00  0.00    -0.283 C  
HETATM   16  O   UNL     1      -8.059  18.721  68.926  1.00  0.00    -0.311 OA 
HETATM   17  N   UNL     1      -9.959  17.527  68.699  1.00  0.00    -0.329 N  
HETATM   18  C   UNL     1     -10.755  16.593  68.095  1.00  0.00    -0.349 C  
HETATM   19  H   UNL     1     -10.295  17.921  69.577  1.00  0.00     0.000 HD 
HETATM   20  O   UNL     1     -11.755  16.170  68.672  1.00  0.00    -0.362 OA 
ENDBRANCH   6  11
ENDBRANCH   3   4
TORSDOF 2
ENDMDL
MODEL       40
REMARK 921   NORMALIZED FREE ENERGY PREDICTED BY IDOCK:   -4.97 KCAL/MOL
REMARK 922        TOTAL FREE ENERGY PREDICTED BY IDOCK:   -5.87 KCAL/MOL
REMARK 923 INTER-LIGAND FREE ENERGY PREDICTED BY IDOCK:   -5.54 KCAL/MOL
REMARK 924 INTRA-LIGAND FREE ENERGY PREDICTED BY IDOCK:   -0.33 KCAL/MOL
REMARK 927      BINDING AFFINITY PREDICTED BY RF-SCORE:    0.00 PKD
ROOT
HETATM    1  O5* UNL     1      -7.795   7.759  68.839  1.00  0.00    -0.117 OA 
HETATM    2  H5* UNL     1      -6.900   7.571  69.093  1.00  0.00     0.000 HD 
HETATM    3  C5* UNL     1      -8.443   8.605  69.788  1.00  0.00    -0.129 C  
ENDROOT
BRANCH   3   4
HETATM    4  C4* UNL     1      -9.883   8.907  69.379  1.00  0.00    -0.183 C  
HETATM    5  O4* UNL     1     -10.581   9.633  70.408  1.00  0.00    -0.251 OA 
HETATM    6  C1* UNL     1     -11.694  10.252  69.744  1.00  0.00    -0.191 C  
HETATM    7  H3* UNL     1     -10.321   9.448  66.197  1.00  0.00     0.000 HD 
HETATM    8  C2* UNL     1     -11.170  10.681  68.376  1.00  0.00    -0.347 C  
HETATM    9  C3* UNL     1      -9.999   9.754  68.114  1.00  0.00    -0.154 C  
HETATM   10  O3* UNL     1     -10.248   8.921  66.984  1.00  0.00    -0.231 OA 
BRANCH   6  11
HETATM   11  N   UNL     1     -12.269  11.340  70.530  1.00  0.00    -0.364 N  
HETATM   12  C   UNL     1     -12.417  13.677  71.026  1.00  0.00    -0.377 C  
HETATM   13  C   UNL     1     -11.989  12.669  70.255  1.00  0.00    -0.284 C  
HETATM   14  I   UNL     1     -11.952  15.630  70.640  1.00  0.00    -0.443 I  
HETATM   15  C   UNL     1     -13.236  13.335  72.222  1.00  0.00    -0.467 C  
HETATM   16  O   UNL     1     -13.626  14.163  73.038  1.00  0.00    -0.651 OA 
HETATM   17  N   UNL     1     -13.533  12.008  72.377  1.00  0.00    -0.521 N  
HETATM   18  C   UNL     1     -13.042  10.976  71.626  1.00  0.00    -0.438 C  
HETATM   19  H   UNL     1     -14.184  11.766  73.124  1.00  0.00     0.000 HD 
HETATM   20  O   UNL     1     -13.284   9.814  71.943  1.00  0.00    -0.393 OA 
ENDBRANCH   6  11
ENDBRANCH   3   4
TORSDOF 2
ENDMDL
MODEL       41
REMARK 921   NORMALIZED FREE ENERGY PREDICTED BY IDOCK:   -4.96 KCAL/MOL
REMARK 922        TOTAL FREE ENERGY PREDICTED BY IDOCK:   -5.86 KCAL/MOL
REMARK 923 INTER-LIGAND FREE ENERGY PREDICTED BY IDOCK:   -6.02 KCAL/MOL
REMARK 924 INTRA-LIGAND FREE ENERGY PREDICTED BY IDOCK:    0.16 KCAL/MOL
REMARK 927      BINDING AFFINITY PREDICTED BY RF-SCORE:    0.00 PKD
ROOT
HETATM    1  O5* UNL     1      -8.663  21.119  67.064  1.00  0.00    -0.549 OA 
HETATM    2  H5* UNL     1      -8.767  21.856  66.475  1.00  0.00     0.000 HD 
HETATM    3  C5* UNL     1      -9.851  20.333  67.137  1.00  0.00    -0.466 C  
ENDROOT
BRANCH   3   4
HETATM    4  C4* UNL     1      -9.683  19.148  68.086  1.00  0.00    -0.361 C  
HETATM    5  O4* UNL     1     -10.643  18.111  67.807  1.00  0.00    -0.400 OA 
HETATM    6  C1* UNL     1     -10.095  16.923  68.399  1.00  0.00    -0.304 C  
HETATM    7  H3* UNL     1      -6.616  18.550  69.002  1.00  0.00     0.000 HD 
HETATM    8  C2* UNL     1      -8.589  17.003  68.163  1.00  0.00    -0.228 C  
HETATM    9  C3* UNL     1      -8.311  18.485  68.005  1.00  0.00    -0.276 C  
HETATM   10  O3* UNL     1      -7.470  18.962  69.052  1.00  0.00    -0.320 OA 
BRANCH   6  11
HETATM   11  N   UNL     1     -10.716  15.710  67.875  1.00  0.00    -0.286 N  
HETATM   12  C   UNL     1     -11.500  13.474  68.219  1.00  0.00    -0.310 C  
HETATM   13  C   UNL     1     -11.030  14.635  68.692  1.00  0.00    -0.256 C  
HETATM   14  I   UNL     1     -11.907  11.877  69.430  1.00  0.00    -0.301 I  
HETATM   15  C   UNL     1     -11.697  13.354  66.748  1.00  0.00    -0.385 C  
HETATM   16  O   UNL     1     -12.056  12.322  66.193  1.00  0.00    -0.625 OA 
HETATM   17  N   UNL     1     -11.440  14.486  66.022  1.00  0.00    -0.345 N  
HETATM   18  C   UNL     1     -10.899  15.647  66.499  1.00  0.00    -0.260 C  
HETATM   19  H   UNL     1     -11.674  14.460  65.030  1.00  0.00     0.000 HD 
HETATM   20  O   UNL     1     -10.598  16.551  65.722  1.00  0.00    -0.347 OA 
ENDBRANCH   6  11
ENDBRANCH   3   4
TORSDOF 2
ENDMDL
MODEL       42
REMARK 921   NORMALIZED FREE ENERGY PREDICTED BY IDOCK:   -4.95 KCAL/MOL
REMARK 922        TOTAL FREE ENERGY PREDICTED BY IDOCK:   -5.85 KCAL/MOL
REMARK 923 INTER-LIGAND FREE ENERGY PREDICTED BY IDOCK:   -5.42 KCAL/MOL
REMARK 924 INTRA-LIGAND FREE ENERGY PREDICTED BY IDOCK:   -0.43 KCAL/MOL
REMARK 927      BINDING AFFINITY PREDICTED BY RF-SCORE:    0.00 PKD
ROOT
HETATM    1  O5* UNL     1     -13.956   8.731  73.294  1.00  0.00    -1.160 OA 
HETATM    2  H5* UNL     1     -14.512   8.853  74.054  1.00  0.00     0.000 HD 
HETATM    3  C5* UNL     1     -13.993   9.866  72.429  1.00  0.00     0.093 C  
ENDROOT
BRANCH   3   4
HETATM    4  C4* UNL     1     -13.097   9.670  71.208  1.00  0.00    -0.357 C  
HETATM    5  O4* UNL     1     -13.110  10.830  70.355  1.00  0.00    -0.231 OA 
HETATM    6  C1* UNL     1     -11.921  10.722  69.556  1.00  0.00    -0.292 C  
HETATM    7  H3* UNL     1     -10.441   7.861  71.731  1.00  0.00     0.000 HD 
HETATM    8  C2* UNL     1     -10.851  10.156  70.485  1.00  0.00    -0.340 C  
HETATM    9  C3* UNL     1     -11.632   9.416  71.553  1.00  0.00    -0.397 C  
HETATM   10  O3* UNL     1     -11.352   8.019  71.517  1.00  0.00    -0.248 OA 
BRANCH   6  11
HETATM   11  N   UNL     1     -11.559  11.993  68.933  1.00  0.00    -0.295 N  
HETATM   12  C   UNL     1     -11.271  14.364  69.092  1.00  0.00    -0.272 C  
HETATM   13  C   UNL     1     -11.495  13.171  69.660  1.00  0.00    -0.191 C  
HETATM   14  I   UNL     1     -11.232  16.103  70.167  1.00  0.00    -0.134 I  
HETATM   15  C   UNL     1     -11.075  14.403  67.617  1.00  0.00    -0.300 C  
HETATM   16  O   UNL     1     -10.932  15.440  66.978  1.00  0.00    -0.321 OA 
HETATM   17  N   UNL     1     -11.074  13.188  66.987  1.00  0.00    -0.273 N  
HETATM   18  C   UNL     1     -11.367  11.981  67.558  1.00  0.00    -0.319 C  
HETATM   19  H   UNL     1     -10.832  13.183  65.996  1.00  0.00     0.000 HD 
HETATM   20  O   UNL     1     -11.457  10.974  66.858  1.00  0.00    -0.384 OA 
ENDBRANCH   6  11
ENDBRANCH   3   4
TORSDOF 2
ENDMDL
MODEL       43
REMARK 921   NORMALIZED FREE ENERGY PREDICTED BY IDOCK:   -4.91 KCAL/MOL
REMARK 922        TOTAL FREE ENERGY PREDICTED BY IDOCK:   -5.80 KCAL/MOL
REMARK 923 INTER-LIGAND FREE ENERGY PREDICTED BY IDOCK:   -5.45 KCAL/MOL
REMARK 924 INTRA-LIGAND FREE ENERGY PREDICTED BY IDOCK:   -0.34 KCAL/MOL
REMARK 927      BINDING AFFINITY PREDICTED BY RF-SCORE:    0.00 PKD
ROOT
HETATM    1  O5* UNL     1     -11.042  15.336  67.292  1.00  0.00    -0.327 OA 
HETATM    2  H5* UNL     1     -10.840  15.960  67.979  1.00  0.00     0.000 HD 
HETATM    3  C5* UNL     1     -10.368  15.658  66.076  1.00  0.00    -0.335 C  
ENDROOT
BRANCH   3   4
HETATM    4  C4* UNL     1     -10.693  14.654  64.972  1.00  0.00    -0.430 C  
HETATM    5  O4* UNL     1      -9.882  13.469  65.082  1.00  0.00    -0.202 OA 
HETATM    6  C1* UNL     1     -10.585  12.462  64.338  1.00  0.00    -0.337 C  
HETATM    7  H3* UNL     1     -13.812  14.609  64.036  1.00  0.00     0.000 HD 
HETATM    8  C2* UNL     1     -12.067  12.708  64.611  1.00  0.00    -0.484 C  
HETATM    9  C3* UNL     1     -12.143  14.176  64.982  1.00  0.00    -0.421 C  
HETATM   10  O3* UNL     1     -12.910  14.907  64.029  1.00  0.00    -0.701 OA 
BRANCH   6  11
HETATM   11  N   UNL     1     -10.133  11.115  64.673  1.00  0.00    -0.277 N  
HETATM   12  C   UNL     1      -9.789   9.395  66.303  1.00  0.00    -0.281 C  
HETATM   13  C   UNL     1     -10.291  10.585  65.944  1.00  0.00    -0.206 C  
HETATM   14  I   UNL     1      -9.982   8.648  68.197  1.00  0.00    -0.250 I  
HETATM   15  C   UNL     1      -9.041   8.620  65.276  1.00  0.00    -0.040 C  
HETATM   16  O   UNL     1      -8.480   7.555  65.505  1.00  0.00    -0.141 OA 
HETATM   17  N   UNL     1      -9.000   9.178  64.026  1.00  0.00    -0.425 N  
HETATM   18  C   UNL     1      -9.456  10.419  63.679  1.00  0.00    -0.306 C  
HETATM   19  H   UNL     1      -8.590   8.613  63.283  1.00  0.00     0.000 HD 
HETATM   20  O   UNL     1      -9.248  10.858  62.550  1.00  0.00    -0.290 OA 
ENDBRANCH   6  11
ENDBRANCH   3   4
TORSDOF 2
ENDMDL
MODEL       44
REMARK 921   NORMALIZED FREE ENERGY PREDICTED BY IDOCK:   -4.84 KCAL/MOL
REMARK 922        TOTAL FREE ENERGY PREDICTED BY IDOCK:   -5.72 KCAL/MOL
REMARK 923 INTER-LIGAND FREE ENERGY PREDICTED BY IDOCK:   -5.81 KCAL/MOL
REMARK 924 INTRA-LIGAND FREE ENERGY PREDICTED BY IDOCK:    0.09 KCAL/MOL
REMARK 927      BINDING AFFINITY PREDICTED BY RF-SCORE:    0.00 PKD
ROOT
HETATM    1  O5* UNL     1     -11.800  16.454  63.717  1.00  0.00    -1.455 OA 
HETATM    2  H5* UNL     1     -11.582  17.261  63.267  1.00  0.00     0.000 HD 
HETATM    3  C5* UNL     1     -10.957  16.240  64.849  1.00  0.00    -0.307 C  
ENDROOT
BRANCH   3   4
HETATM    4  C4* UNL     1     -11.308  14.942  65.572  1.00  0.00    -0.339 C  
HETATM    5  O4* UNL     1     -10.893  13.789  64.815  1.00  0.00    -0.357 OA 
HETATM    6  C1* UNL     1     -10.833  12.716  65.767  1.00  0.00    -0.274 C  
HETATM    7  H3* UNL     1     -11.155  15.098  68.822  1.00  0.00     0.000 HD 
HETATM    8  C2* UNL     1     -10.290  13.336  67.051  1.00  0.00    -0.246 C  
HETATM    9  C3* UNL     1     -10.650  14.804  66.943  1.00  0.00    -0.294 C  
HETATM   10  O3* UNL     1     -11.564  15.184  67.969  1.00  0.00    -0.334 OA 
BRANCH   6  11
HETATM   11  N   UNL     1     -10.050  11.586  65.273  1.00  0.00    -0.257 N  
HETATM   12  C   UNL     1      -8.166  10.125  65.489  1.00  0.00    -0.156 C  
HETATM   13  C   UNL     1      -8.962  11.087  65.973  1.00  0.00    -0.197 C  
HETATM   14  I   UNL     1      -6.533   9.435  66.507  1.00  0.00    -0.068 I  
HETATM   15  C   UNL     1      -8.486   9.572  64.144  1.00  0.00    -0.186 C  
HETATM   16  O   UNL     1      -7.793   8.739  63.570  1.00  0.00    -0.133 OA 
HETATM   17  N   UNL     1      -9.620  10.062  63.556  1.00  0.00    -0.462 N  
HETATM   18  C   UNL     1     -10.393  11.089  64.022  1.00  0.00    -0.371 C  
HETATM   19  H   UNL     1      -9.918   9.618  62.688  1.00  0.00     0.000 HD 
HETATM   20  O   UNL     1     -11.318  11.523  63.339  1.00  0.00    -0.374 OA 
ENDBRANCH   6  11
ENDBRANCH   3   4
TORSDOF 2
ENDMDL
MODEL       45
REMARK 921   NORMALIZED FREE ENERGY PREDICTED BY IDOCK:   -4.83 KCAL/MOL
REMARK 922        TOTAL FREE ENERGY PREDICTED BY IDOCK:   -5.71 KCAL/MOL
REMARK 923 INTER-LIGAND FREE ENERGY PREDICTED BY IDOCK:   -5.28 KCAL/MOL
REMARK 924 INTRA-LIGAND FREE ENERGY PREDICTED BY IDOCK:   -0.43 KCAL/MOL
REMARK 927      BINDING AFFINITY PREDICTED BY RF-SCORE:    0.00 PKD
ROOT
HETATM    1  O5* UNL     1     -11.395   6.453  70.565  1.00  0.00    -0.326 OA 
HETATM    2  H5* UNL     1     -10.763   5.831  70.225  1.00  0.00     0.000 HD 
HETATM    3  C5* UNL     1     -10.756   7.521  71.264  1.00  0.00    -0.225 C  
ENDROOT
BRANCH   3   4
HETATM    4  C4* UNL     1     -11.773   8.521  71.810  1.00  0.00    -0.327 C  
HETATM    5  O4* UNL     1     -11.404   9.875  71.486  1.00  0.00    -0.343 OA 
HETATM    6  C1* UNL     1     -12.617  10.635  71.613  1.00  0.00    -0.377 C  
HETATM    7  H3* UNL     1     -14.853   7.464  71.848  1.00  0.00     0.000 HD 
HETATM    8  C2* UNL     1     -13.726   9.730  71.084  1.00  0.00    -0.144 C  
HETATM    9  C3* UNL     1     -13.184   8.326  71.262  1.00  0.00    -0.129 C  
HETATM   10  O3* UNL     1     -13.975   7.586  72.188  1.00  0.00    -0.190 OA 
BRANCH   6  11
HETATM   11  N   UNL     1     -12.529  11.927  70.938  1.00  0.00    -0.353 N  
HETATM   12  C   UNL     1     -11.645  13.282  69.173  1.00  0.00    -0.319 C  
HETATM   13  C   UNL     1     -11.830  12.088  69.752  1.00  0.00    -0.331 C  
HETATM   14  I   UNL     1     -10.567  13.513  67.451  1.00  0.00    -0.268 I  
HETATM   15  C   UNL     1     -12.232  14.475  69.842  1.00  0.00    -0.328 C  
HETATM   16  O   UNL     1     -12.072  15.624  69.445  1.00  0.00    -0.356 OA 
HETATM   17  N   UNL     1     -12.973  14.220  70.965  1.00  0.00    -0.342 N  
HETATM   18  C   UNL     1     -13.106  13.011  71.589  1.00  0.00    -0.347 C  
HETATM   19  H   UNL     1     -13.475  15.008  71.374  1.00  0.00     0.000 HD 
HETATM   20  O   UNL     1     -13.697  12.934  72.663  1.00  0.00    -0.573 OA 
ENDBRANCH   6  11
ENDBRANCH   3   4
TORSDOF 2
ENDMDL
MODEL       46
REMARK 921   NORMALIZED FREE ENERGY PREDICTED BY IDOCK:   -4.82 KCAL/MOL
REMARK 922        TOTAL FREE ENERGY PREDICTED BY IDOCK:   -5.70 KCAL/MOL
REMARK 923 INTER-LIGAND FREE ENERGY PREDICTED BY IDOCK:   -5.51 KCAL/MOL
REMARK 924 INTRA-LIGAND FREE ENERGY PREDICTED BY IDOCK:   -0.19 KCAL/MOL
REMARK 927      BINDING AFFINITY PREDICTED BY RF-SCORE:    0.00 PKD
ROOT
HETATM    1  O5* UNL     1     -10.827  17.153  69.335  1.00  0.00    -0.355 OA 
HETATM    2  H5* UNL     1     -10.112  17.769  69.442  1.00  0.00     0.000 HD 
HETATM    3  C5* UNL     1     -10.555  15.915  69.990  1.00  0.00    -0.316 C  
ENDROOT
BRANCH   3   4
HETATM    4  C4* UNL     1     -11.705  14.924  69.819  1.00  0.00    -0.305 C  
HETATM    5  O4* UNL     1     -11.246  13.676  69.266  1.00  0.00    -0.255 OA 
HETATM    6  C1* UNL     1     -12.266  12.721  69.598  1.00  0.00    -0.126 C  
HETATM    7  H3* UNL     1     -14.040  15.131  72.079  1.00  0.00     0.000 HD 
HETATM    8  C2* UNL     1     -12.741  13.097  70.999  1.00  0.00    -0.361 C  
HETATM    9  C3* UNL     1     -12.413  14.572  71.124  1.00  0.00    -0.341 C  
HETATM   10  O3* UNL     1     -13.599  15.350  71.267  1.00  0.00    -0.492 OA 
BRANCH   6  11
HETATM   11  N   UNL     1     -11.790  11.345  69.480  1.00  0.00    -0.328 N  
HETATM   12  C   UNL     1     -10.948   9.354  70.508  1.00  0.00    -0.274 C  
HETATM   13  C   UNL     1     -11.487  10.577  70.593  1.00  0.00    -0.327 C  
HETATM   14  I   UNL     1     -10.455   8.252  72.159  1.00  0.00    -0.401 I  
HETATM   15  C   UNL     1     -10.680   8.808  69.149  1.00  0.00    -0.131 C  
HETATM   16  O   UNL     1     -10.128   7.732  68.946  1.00  0.00    -0.185 OA 
HETATM   17  N   UNL     1     -11.081   9.596  68.104  1.00  0.00    -0.504 N  
HETATM   18  C   UNL     1     -11.570  10.870  68.194  1.00  0.00    -0.241 C  
HETATM   19  H   UNL     1     -11.009   9.194  67.170  1.00  0.00     0.000 HD 
HETATM   20  O   UNL     1     -11.778  11.522  67.173  1.00  0.00    -0.567 OA 
ENDBRANCH   6  11
ENDBRANCH   3   4
TORSDOF 2
ENDMDL
MODEL       47
REMARK 921   NORMALIZED FREE ENERGY PREDICTED BY IDOCK:   -4.77 KCAL/MOL
REMARK 922        TOTAL FREE ENERGY PREDICTED BY IDOCK:   -5.65 KCAL/MOL
REMARK 923 INTER-LIGAND FREE ENERGY PREDICTED BY IDOCK:   -5.30 KCAL/MOL
REMARK 924 INTRA-LIGAND FREE ENERGY PREDICTED BY IDOCK:   -0.35 KCAL/MOL
REMARK 927      BINDING AFFINITY PREDICTED BY RF-SCORE:    0.00 PKD
ROOT
HETATM    1  O5* UNL     1     -12.009  10.890  67.747  1.00  0.00    -0.691 OA 
HETATM    2  H5* UNL     1     -12.450  10.502  68.493  1.00  0.00     0.000 HD 
HETATM    3  C5* UNL     1     -11.900  12.307  67.881  1.00  0.00    -0.293 C  
ENDROOT
BRANCH   3   4
HETATM    4  C4* UNL     1     -11.190  12.931  66.681  1.00  0.00    -0.304 C  
HETATM    5  O4* UNL     1     -11.383  14.357  66.639  1.00  0.00    -0.332 OA 
HETATM    6  C1* UNL     1     -10.324  14.856  65.806  1.00  0.00    -0.332 C  
HETATM    7  H3* UNL     1      -8.405  11.475  65.827  1.00  0.00     0.000 HD 
HETATM    8  C2* UNL     1      -9.102  14.006  66.143  1.00  0.00     0.043 C  
HETATM    9  C3* UNL     1      -9.679  12.710  66.676  1.00  0.00    -0.249 C  
HETATM   10  O3* UNL     1      -9.345  11.613  65.830  1.00  0.00    -0.229 OA 
BRANCH   6  11
HETATM   11  N   UNL     1     -10.118  16.291  65.979  1.00  0.00    -0.336 N  
HETATM   12  C   UNL     1      -9.202  18.111  67.236  1.00  0.00    -0.252 C  
HETATM   13  C   UNL     1      -9.319  16.799  66.992  1.00  0.00    -0.233 C  
HETATM   14  I   UNL     1      -8.063  18.847  68.767  1.00  0.00    -0.177 I  
HETATM   15  C   UNL     1      -9.962  19.049  66.364  1.00  0.00    -0.395 C  
HETATM   16  O   UNL     1      -9.987  20.263  66.533  1.00  0.00    -0.438 OA 
HETATM   17  N   UNL     1     -10.662  18.471  65.340  1.00  0.00    -0.055 N  
HETATM   18  C   UNL     1     -10.832  17.130  65.133  1.00  0.00     0.001 C  
HETATM   19  H   UNL     1     -11.097  19.100  64.667  1.00  0.00     0.000 HD 
HETATM   20  O   UNL     1     -11.589  16.735  64.249  1.00  0.00    -1.027 OA 
ENDBRANCH   6  11
ENDBRANCH   3   4
TORSDOF 2
ENDMDL
MODEL       48
REMARK 921   NORMALIZED FREE ENERGY PREDICTED BY IDOCK:   -4.75 KCAL/MOL
REMARK 922        TOTAL FREE ENERGY PREDICTED BY IDOCK:   -5.63 KCAL/MOL
REMARK 923 INTER-LIGAND FREE ENERGY PREDICTED BY IDOCK:   -5.20 KCAL/MOL
REMARK 924 INTRA-LIGAND FREE ENERGY PREDICTED BY IDOCK:   -0.42 KCAL/MOL
REMARK 927      BINDING AFFINITY PREDICTED BY RF-SCORE:    0.00 PKD
ROOT
HETATM    1  O5* UNL     1      -6.680  16.847  66.643  1.00  0.00    -0.207 OA 
HETATM    2  H5* UNL     1      -5.755  16.951  66.831  1.00  0.00     0.000 HD 
HETATM    3  C5* UNL     1      -7.281  15.870  67.492  1.00  0.00    -0.177 C  
ENDROOT
BRANCH   3   4
HETATM    4  C4* UNL     1      -8.769  15.702  67.189  1.00  0.00    -0.210 C  
HETATM    5  O4* UNL     1      -9.394  14.790  68.112  1.00  0.00    -0.187 OA 
HETATM    6  C1* UNL     1     -10.798  15.083  68.037  1.00  0.00    -0.270 C  
HETATM    7  H3* UNL     1     -10.241  18.366  66.031  1.00  0.00     0.000 HD 
HETATM    8  C2* UNL     1     -10.893  16.599  67.886  1.00  0.00    -0.321 C  
HETATM    9  C3* UNL     1      -9.565  17.001  67.276  1.00  0.00    -0.244 C  
HETATM   10  O3* UNL     1      -9.745  17.558  65.977  1.00  0.00    -0.473 OA 
BRANCH   6  11
HETATM   11  N   UNL     1     -11.532  14.551  69.182  1.00  0.00    -0.276 N  
HETATM   12  C   UNL     1     -12.339  14.808  71.421  1.00  0.00    -0.337 C  
HETATM   13  C   UNL     1     -11.763  15.308  70.320  1.00  0.00    -0.308 C  
HETATM   14  I   UNL     1     -12.625  15.920  73.113  1.00  0.00    -0.736 I  
HETATM   15  C   UNL     1     -12.750  13.377  71.399  1.00  0.00    -0.322 C  
HETATM   16  O   UNL     1     -13.222  12.792  72.367  1.00  0.00    -0.456 OA 
HETATM   17  N   UNL     1     -12.559  12.724  70.212  1.00  0.00    -0.069 N  
HETATM   18  C   UNL     1     -11.913  13.217  69.112  1.00  0.00    -0.296 C  
HETATM   19  H   UNL     1     -12.935  11.779  70.141  1.00  0.00     0.000 HD 
HETATM   20  O   UNL     1     -11.694  12.487  68.148  1.00  0.00    -0.317 OA 
ENDBRANCH   6  11
ENDBRANCH   3   4
TORSDOF 2
ENDMDL
MODEL       49
REMARK 921   NORMALIZED FREE ENERGY PREDICTED BY IDOCK:   -4.75 KCAL/MOL
REMARK 922        TOTAL FREE ENERGY PREDICTED BY IDOCK:   -5.62 KCAL/MOL
REMARK 923 INTER-LIGAND FREE ENERGY PREDICTED BY IDOCK:   -5.19 KCAL/MOL
REMARK 924 INTRA-LIGAND FREE ENERGY PREDICTED BY IDOCK:   -0.44 KCAL/MOL
REMARK 927      BINDING AFFINITY PREDICTED BY RF-SCORE:    0.00 PKD
ROOT
HETATM    1  O5* UNL     1     -13.053   9.928  72.562  1.00  0.00    -0.495 OA 
HETATM    2  H5* UNL     1     -13.494  10.204  73.356  1.00  0.00     0.000 HD 
HETATM    3  C5* UNL     1     -12.979  10.986  71.607  1.00  0.00    -0.456 C  
ENDROOT
BRANCH   3   4
HETATM    4  C4* UNL     1     -12.271  10.542  70.329  1.00  0.00    -0.311 C  
HETATM    5  O4* UNL     1     -12.088  11.643  69.419  1.00  0.00    -0.306 OA 
HETATM    6  C1* UNL     1     -11.036  11.227  68.533  1.00  0.00    -0.235 C  
HETATM    7  H3* UNL     1     -10.078   8.168  70.732  1.00  0.00     0.000 HD 
HETATM    8  C2* UNL     1     -10.049  10.452  69.402  1.00  0.00    -0.251 C  
HETATM    9  C3* UNL     1     -10.881   9.956  70.568  1.00  0.00    -0.326 C  
HETATM   10  O3* UNL     1     -10.943   8.532  70.584  1.00  0.00    -0.231 OA 
BRANCH   6  11
HETATM   11  N   UNL     1     -10.443  12.353  67.817  1.00  0.00    -0.214 N  
HETATM   12  C   UNL     1      -8.873  14.158  67.739  1.00  0.00    -0.185 C  
HETATM   13  C   UNL     1      -9.364  13.058  68.325  1.00  0.00    -0.199 C  
HETATM   14  I   UNL     1      -7.313  15.220  68.528  1.00  0.00    -0.154 I  
HETATM   15  C   UNL     1      -9.522  14.623  66.483  1.00  0.00    -0.297 C  
HETATM   16  O   UNL     1      -9.207  15.651  65.895  1.00  0.00    -0.340 OA 
HETATM   17  N   UNL     1     -10.529  13.827  66.007  1.00  0.00    -0.291 N  
HETATM   18  C   UNL     1     -11.070  12.742  66.640  1.00  0.00    -0.276 C  
HETATM   19  H   UNL     1     -10.911  14.065  65.092  1.00  0.00     0.000 HD 
HETATM   20  O   UNL     1     -12.057  12.183  66.167  1.00  0.00    -0.621 OA 
ENDBRANCH   6  11
ENDBRANCH   3   4
TORSDOF 2
ENDMDL
MODEL       50
REMARK 921   NORMALIZED FREE ENERGY PREDICTED BY IDOCK:   -4.68 KCAL/MOL
REMARK 922        TOTAL FREE ENERGY PREDICTED BY IDOCK:   -5.55 KCAL/MOL
REMARK 923 INTER-LIGAND FREE ENERGY PREDICTED BY IDOCK:   -5.35 KCAL/MOL
REMARK 924 INTRA-LIGAND FREE ENERGY PREDICTED BY IDOCK:   -0.20 KCAL/MOL
REMARK 927      BINDING AFFINITY PREDICTED BY RF-SCORE:    0.00 PKD
ROOT
HETATM    1  O5* UNL     1     -13.684   9.056  73.434  1.00  0.00    -1.084 OA 
HETATM    2  H5* UNL     1     -14.319   8.374  73.619  1.00  0.00     0.000 HD 
HETATM    3  C5* UNL     1     -13.631   9.360  72.041  1.00  0.00    -0.433 C  
ENDROOT
BRANCH   3   4
HETATM    4  C4* UNL     1     -12.610  10.456  71.744  1.00  0.00    -0.367 C  
HETATM    5  O4* UNL     1     -11.848  10.158  70.559  1.00  0.00    -0.281 OA 
HETATM    6  C1* UNL     1     -11.305  11.419  70.134  1.00  0.00    -0.119 C  
HETATM    7  H3* UNL     1     -13.555  13.466  72.555  1.00  0.00     0.000 HD 
HETATM    8  C2* UNL     1     -12.398  12.449  70.406  1.00  0.00    -0.307 C  
HETATM    9  C3* UNL     1     -13.233  11.831  71.510  1.00  0.00    -0.192 C  
HETATM   10  O3* UNL     1     -13.168  12.611  72.701  1.00  0.00    -0.344 OA 
BRANCH   6  11
HETATM   11  N   UNL     1     -10.852  11.383  68.746  1.00  0.00    -0.197 N  
HETATM   12  C   UNL     1     -11.231  11.876  66.435  1.00  0.00    -0.331 C  
HETATM   13  C   UNL     1     -11.569  11.987  67.726  1.00  0.00    -0.330 C  
HETATM   14  I   UNL     1     -12.328  12.728  64.934  1.00  0.00    -0.404 I  
HETATM   15  C   UNL     1     -10.023  11.072  66.102  1.00  0.00    -0.231 C  
HETATM   16  O   UNL     1      -9.655  10.842  64.955  1.00  0.00    -0.216 OA 
HETATM   17  N   UNL     1      -9.328  10.576  67.171  1.00  0.00    -0.154 N  
HETATM   18  C   UNL     1      -9.711  10.636  68.483  1.00  0.00    -0.174 C  
HETATM   19  H   UNL     1      -8.439  10.118  66.971  1.00  0.00     0.000 HD 
HETATM   20  O   UNL     1      -9.062  10.042  69.341  1.00  0.00    -0.189 OA 
ENDBRANCH   6  11
ENDBRANCH   3   4
TORSDOF 2
ENDMDL
MODEL       51
REMARK 921   NORMALIZED FREE ENERGY PREDICTED BY IDOCK:   -4.68 KCAL/MOL
REMARK 922        TOTAL FREE ENERGY PREDICTED BY IDOCK:   -5.55 KCAL/MOL
REMARK 923 INTER-LIGAND FREE ENERGY PREDICTED BY IDOCK:   -6.08 KCAL/MOL
REMARK 924 INTRA-LIGAND FREE ENERGY PREDICTED BY IDOCK:    0.53 KCAL/MOL
REMARK 927      BINDING AFFINITY PREDICTED BY RF-SCORE:    0.00 PKD
ROOT
HETATM    1  O5* UNL     1     -12.458  13.826  62.845  1.00  0.00    -1.009 OA 
HETATM    2  H5* UNL     1     -13.240  13.742  62.314  1.00  0.00     0.000 HD 
HETATM    3  C5* UNL     1     -12.244  12.669  63.653  1.00  0.00    -0.536 C  
ENDROOT
BRANCH   3   4
HETATM    4  C4* UNL     1     -10.986  12.806  64.508  1.00  0.00    -0.341 C  
HETATM    5  O4* UNL     1     -10.679  14.187  64.775  1.00  0.00    -0.398 OA 
HETATM    6  C1* UNL     1      -9.820  14.166  65.926  1.00  0.00    -0.289 C  
HETATM    7  H3* UNL     1     -10.539  10.421  66.680  1.00  0.00     0.000 HD 
HETATM    8  C2* UNL     1     -10.361  13.055  66.821  1.00  0.00    -0.256 C  
HETATM    9  C3* UNL     1     -11.092  12.127  65.871  1.00  0.00    -0.318 C  
HETATM   10  O3* UNL     1     -10.473  10.844  65.832  1.00  0.00    -0.254 OA 
BRANCH   6  11
HETATM   11  N   UNL     1      -9.740  15.471  66.577  1.00  0.00    -0.254 N  
HETATM   12  C   UNL     1      -8.491  17.443  67.108  1.00  0.00    -0.211 C  
HETATM   13  C   UNL     1      -8.633  16.293  66.436  1.00  0.00    -0.326 C  
HETATM   14  I   UNL     1      -6.828  18.620  66.932  1.00  0.00    -0.236 I  
HETATM   15  C   UNL     1      -9.585  17.844  68.034  1.00  0.00    -0.290 C  
HETATM   16  O   UNL     1      -9.538  18.837  68.751  1.00  0.00    -0.358 OA 
HETATM   17  N   UNL     1     -10.677  17.018  68.054  1.00  0.00    -0.369 N  
HETATM   18  C   UNL     1     -10.791  15.813  67.418  1.00  0.00    -0.306 C  
HETATM   19  H   UNL     1     -11.482  17.332  68.596  1.00  0.00     0.000 HD 
HETATM   20  O   UNL     1     -11.775  15.104  67.615  1.00  0.00    -0.329 OA 
ENDBRANCH   6  11
ENDBRANCH   3   4
TORSDOF 2
ENDMDL
MODEL       52
REMARK 921   NORMALIZED FREE ENERGY PREDICTED BY IDOCK:   -4.68 KCAL/MOL
REMARK 922        TOTAL FREE ENERGY PREDICTED BY IDOCK:   -5.55 KCAL/MOL
REMARK 923 INTER-LIGAND FREE ENERGY PREDICTED BY IDOCK:   -5.48 KCAL/MOL
REMARK 924 INTRA-LIGAND FREE ENERGY PREDICTED BY IDOCK:   -0.07 KCAL/MOL
REMARK 927      BINDING AFFINITY PREDICTED BY RF-SCORE:    0.00 PKD
ROOT
HETATM    1  O5* UNL     1     -13.079  12.944  64.674  1.00  0.00    -0.742 OA 
HETATM    2  H5* UNL     1     -13.902  13.261  64.323  1.00  0.00     0.000 HD 
HETATM    3  C5* UNL     1     -12.069  12.879  63.667  1.00  0.00    -0.535 C  
ENDROOT
BRANCH   3   4
HETATM    4  C4* UNL     1     -10.746  12.368  64.232  1.00  0.00    -0.357 C  
HETATM    5  O4* UNL     1     -10.825  12.164  65.655  1.00  0.00    -0.266 OA 
HETATM    6  C1* UNL     1      -9.746  11.268  65.967  1.00  0.00    -0.220 C  
HETATM    7  H3* UNL     1      -9.064  10.421  62.235  1.00  0.00     0.000 HD 
HETATM    8  C2* UNL     1      -9.679  10.284  64.803  1.00  0.00    -0.397 C  
HETATM    9  C3* UNL     1     -10.297  11.034  63.639  1.00  0.00    -0.352 C  
HETATM   10  O3* UNL     1      -9.343  11.251  62.604  1.00  0.00    -0.348 OA 
BRANCH   6  11
HETATM   11  N   UNL     1      -9.916  10.636  67.273  1.00  0.00    -0.183 N  
HETATM   12  C   UNL     1     -10.369   8.683  68.580  1.00  0.00    -0.193 C  
HETATM   13  C   UNL     1     -10.104   9.270  67.405  1.00  0.00    -0.223 C  
HETATM   14  I   UNL     1     -10.698   6.672  68.755  1.00  0.00    -0.323 I  
HETATM   15  C   UNL     1     -10.451   9.552  69.786  1.00  0.00    -0.231 C  
HETATM   16  O   UNL     1     -10.754   9.141  70.900  1.00  0.00    -0.230 OA 
HETATM   17  N   UNL     1     -10.175  10.877  69.581  1.00  0.00    -0.445 N  
HETATM   18  C   UNL     1      -9.969  11.483  68.373  1.00  0.00    -0.206 C  
HETATM   19  H   UNL     1     -10.117  11.469  70.410  1.00  0.00     0.000 HD 
HETATM   20  O   UNL     1      -9.854  12.705  68.308  1.00  0.00    -0.223 OA 
ENDBRANCH   6  11
ENDBRANCH   3   4
TORSDOF 2
ENDMDL
MODEL       53
REMARK 921   NORMALIZED FREE ENERGY PREDICTED BY IDOCK:   -4.67 KCAL/MOL
REMARK 922        TOTAL FREE ENERGY PREDICTED BY IDOCK:   -5.53 KCAL/MOL
REMARK 923 INTER-LIGAND FREE ENERGY PREDICTED BY IDOCK:   -5.24 KCAL/MOL
REMARK 924 INTRA-LIGAND FREE ENERGY PREDICTED BY IDOCK:   -0.29 KCAL/MOL
REMARK 927      BINDING AFFINITY PREDICTED BY RF-SCORE:    0.00 PKD
ROOT
HETATM    1  O5* UNL     1     -13.138  12.722  64.851  1.00  0.00    -0.833 OA 
HETATM    2  H5* UNL     1     -13.204  12.685  63.905  1.00  0.00     0.000 HD 
HETATM    3  C5* UNL     1     -11.785  12.603  65.288  1.00  0.00    -0.378 C  
ENDROOT
BRANCH   3   4
HETATM    4  C4* UNL     1     -11.679  12.661  66.810  1.00  0.00    -0.392 C  
HETATM    5  O4* UNL     1     -12.061  11.410  67.412  1.00  0.00    -0.533 OA 
HETATM    6  C1* UNL     1     -11.479  11.431  68.725  1.00  0.00    -0.290 C  
HETATM    7  H3* UNL     1      -9.266  14.531  67.946  1.00  0.00     0.000 HD 
HETATM    8  C2* UNL     1     -10.120  12.105  68.561  1.00  0.00    -0.192 C  
HETATM    9  C3* UNL     1     -10.270  12.960  67.318  1.00  0.00    -0.234 C  
HETATM   10  O3* UNL     1     -10.142  14.345  67.630  1.00  0.00    -0.220 OA 
BRANCH   6  11
HETATM   11  N   UNL     1     -11.416  10.099  69.321  1.00  0.00    -0.159 N  
HETATM   12  C   UNL     1     -10.649   7.833  69.238  1.00  0.00    -0.192 C  
HETATM   13  C   UNL     1     -10.640   9.089  68.775  1.00  0.00    -0.169 C  
HETATM   14  I   UNL     1      -9.540   6.339  68.391  1.00  0.00    -0.150 I  
HETATM   15  C   UNL     1     -11.532   7.530  70.399  1.00  0.00    -0.198 C  
HETATM   16  O   UNL     1     -11.677   6.406  70.866  1.00  0.00    -0.349 OA 
HETATM   17  N   UNL     1     -12.204   8.598  70.928  1.00  0.00    -0.471 N  
HETATM   18  C   UNL     1     -12.242   9.865  70.412  1.00  0.00    -0.114 C  
HETATM   19  H   UNL     1     -12.725   8.435  71.788  1.00  0.00     0.000 HD 
HETATM   20  O   UNL     1     -12.984  10.709  70.909  1.00  0.00    -0.370 OA 
ENDBRANCH   6  11
ENDBRANCH   3   4
TORSDOF 2
ENDMDL
MODEL       54
REMARK 921   NORMALIZED FREE ENERGY PREDICTED BY IDOCK:   -4.67 KCAL/MOL
REMARK 922        TOTAL FREE ENERGY PREDICTED BY IDOCK:   -5.53 KCAL/MOL
REMARK 923 INTER-LIGAND FREE ENERGY PREDICTED BY IDOCK:   -5.14 KCAL/MOL
REMARK 924 INTRA-LIGAND FREE ENERGY PREDICTED BY IDOCK:   -0.39 KCAL/MOL
REMARK 927      BINDING AFFINITY PREDICTED BY RF-SCORE:    0.00 PKD
ROOT
HETATM    1  O5* UNL     1     -14.177   8.766  73.137  1.00  0.00    -1.112 OA 
HETATM    2  H5* UNL     1     -15.060   9.032  73.360  1.00  0.00     0.000 HD 
HETATM    3  C5* UNL     1     -14.164   7.854  72.039  1.00  0.00    -0.339 C  
ENDROOT
BRANCH   3   4
HETATM    4  C4* UNL     1     -12.743   7.426  71.681  1.00  0.00    -0.365 C  
HETATM    5  O4* UNL     1     -12.486   7.582  70.272  1.00  0.00     0.217 OA 
HETATM    6  C1* UNL     1     -11.055   7.617  70.153  1.00  0.00    -0.218 C  
HETATM    7  H3* UNL     1     -10.514   8.010  73.982  1.00  0.00     0.000 HD 
HETATM    8  C2* UNL     1     -10.560   8.398  71.368  1.00  0.00    -0.296 C  
HETATM    9  C3* UNL     1     -11.659   8.228  72.398  1.00  0.00    -0.396 C  
HETATM   10  O3* UNL     1     -11.188   7.511  73.536  1.00  0.00    -0.271 OA 
BRANCH   6  11
HETATM   11  N   UNL     1     -10.623   8.171  68.872  1.00  0.00    -0.184 N  
HETATM   12  C   UNL     1      -9.959  10.056  67.554  1.00  0.00    -0.190 C  
HETATM   13  C   UNL     1     -10.254   9.500  68.737  1.00  0.00    -0.198 C  
HETATM   14  I   UNL     1      -9.469  12.031  67.360  1.00  0.00    -0.200 I  
HETATM   15  C   UNL     1     -10.026   9.189  66.345  1.00  0.00    -0.288 C  
HETATM   16  O   UNL     1      -9.845   9.600  65.205  1.00  0.00    -0.295 OA 
HETATM   17  N   UNL     1     -10.320   7.872  66.576  1.00  0.00    -0.483 N  
HETATM   18  C   UNL     1     -10.684   7.323  67.774  1.00  0.00    -0.197 C  
HETATM   19  H   UNL     1     -10.262   7.241  65.778  1.00  0.00     0.000 HD 
HETATM   20  O   UNL     1     -11.047   6.150  67.829  1.00  0.00    -0.326 OA 
ENDBRANCH   6  11
ENDBRANCH   3   4
TORSDOF 2
ENDMDL
MODEL       55
REMARK 921   NORMALIZED FREE ENERGY PREDICTED BY IDOCK:   -4.66 KCAL/MOL
REMARK 922        TOTAL FREE ENERGY PREDICTED BY IDOCK:   -5.52 KCAL/MOL
REMARK 923 INTER-LIGAND FREE ENERGY PREDICTED BY IDOCK:   -5.81 KCAL/MOL
REMARK 924 INTRA-LIGAND FREE ENERGY PREDICTED BY IDOCK:    0.29 KCAL/MOL
REMARK 927      BINDING AFFINITY PREDICTED BY RF-SCORE:    0.00 PKD
ROOT
HETATM    1  O5* UNL     1     -14.115   8.803  73.383  1.00  0.00    -1.167 OA 
HETATM    2  H5* UNL     1     -14.753   8.509  74.021  1.00  0.00     0.000 HD 
HETATM    3  C5* UNL     1     -14.407   8.301  72.079  1.00  0.00    -0.450 C  
ENDROOT
BRANCH   3   4
HETATM    4  C4* UNL     1     -13.380   8.774  71.052  1.00  0.00     0.085 C  
HETATM    5  O4* UNL     1     -13.631  10.133  70.646  1.00  0.00    -0.168 OA 
HETATM    6  C1* UNL     1     -12.388  10.595  70.094  1.00  0.00    -0.295 C  
HETATM    7  H3* UNL     1     -10.390   7.542  71.435  1.00  0.00     0.000 HD 
HETATM    8  C2* UNL     1     -11.297   9.981  70.966  1.00  0.00    -0.434 C  
HETATM    9  C3* UNL     1     -11.941   8.745  71.562  1.00  0.00    -0.324 C  
HETATM   10  O3* UNL     1     -11.285   7.560  71.118  1.00  0.00    -0.249 OA 
BRANCH   6  11
HETATM   11  N   UNL     1     -12.332  12.052  70.007  1.00  0.00    -0.163 N  
HETATM   12  C   UNL     1     -11.564  14.029  68.896  1.00  0.00    -0.315 C  
HETATM   13  C   UNL     1     -11.722  12.699  68.944  1.00  0.00    -0.325 C  
HETATM   14  I   UNL     1     -10.614  14.968  67.348  1.00  0.00    -0.286 I  
HETATM   15  C   UNL     1     -12.083  14.830  70.040  1.00  0.00    -0.329 C  
HETATM   16  O   UNL     1     -11.936  16.043  70.141  1.00  0.00    -0.321 OA 
HETATM   17  N   UNL     1     -12.741  14.122  71.009  1.00  0.00    -0.343 N  
HETATM   18  C   UNL     1     -12.843  12.760  71.087  1.00  0.00    -0.226 C  
HETATM   19  H   UNL     1     -13.199  14.662  71.742  1.00  0.00     0.000 HD 
HETATM   20  O   UNL     1     -13.354  12.237  72.075  1.00  0.00    -0.506 OA 
ENDBRANCH   6  11
ENDBRANCH   3   4
TORSDOF 2
ENDMDL
MODEL       56
REMARK 921   NORMALIZED FREE ENERGY PREDICTED BY IDOCK:   -4.64 KCAL/MOL
REMARK 922        TOTAL FREE ENERGY PREDICTED BY IDOCK:   -5.51 KCAL/MOL
REMARK 923 INTER-LIGAND FREE ENERGY PREDICTED BY IDOCK:   -5.20 KCAL/MOL
REMARK 924 INTRA-LIGAND FREE ENERGY PREDICTED BY IDOCK:   -0.30 KCAL/MOL
REMARK 927      BINDING AFFINITY PREDICTED BY RF-SCORE:    0.00 PKD
ROOT
HETATM    1  O5* UNL     1      -7.847  19.431  65.785  1.00  0.00    -0.426 OA 
HETATM    2  H5* UNL     1      -6.965  19.776  65.852  1.00  0.00     0.000 HD 
HETATM    3  C5* UNL     1      -7.920  18.082  66.244  1.00  0.00    -0.241 C  
ENDROOT
BRANCH   3   4
HETATM    4  C4* UNL     1      -9.338  17.527  66.136  1.00  0.00    -0.143 C  
HETATM    5  O4* UNL     1      -9.346  16.215  65.544  1.00  0.00    -0.405 OA 
HETATM    6  C1* UNL     1     -10.603  15.636  65.930  1.00  0.00    -0.343 C  
HETATM    7  H3* UNL     1     -11.346  18.419  68.540  1.00  0.00     0.000 HD 
HETATM    8  C2* UNL     1     -10.849  16.105  67.361  1.00  0.00    -0.265 C  
HETATM    9  C3* UNL     1     -10.049  17.388  67.480  1.00  0.00    -0.322 C  
HETATM   10  O3* UNL     1     -10.904  18.506  67.704  1.00  0.00    -0.412 OA 
BRANCH   6  11
HETATM   11  N   UNL     1     -10.612  14.184  65.770  1.00  0.00    -0.290 N  
HETATM   12  C   UNL     1      -9.666  12.043  66.271  1.00  0.00    -0.235 C  
HETATM   13  C   UNL     1      -9.750  13.363  66.480  1.00  0.00    -0.282 C  
HETATM   14  I   UNL     1      -8.353  10.851  67.289  1.00  0.00    -0.132 I  
HETATM   15  C   UNL     1     -10.552  11.448  65.233  1.00  0.00    -0.277 C  
HETATM   16  O   UNL     1     -10.517  10.267  64.906  1.00  0.00    -0.212 OA 
HETATM   17  N   UNL     1     -11.428  12.313  64.635  1.00  0.00    -0.325 N  
HETATM   18  C   UNL     1     -11.466  13.670  64.803  1.00  0.00    -0.352 C  
HETATM   19  H   UNL     1     -12.117  11.907  64.003  1.00  0.00     0.000 HD 
HETATM   20  O   UNL     1     -12.218  14.354  64.112  1.00  0.00    -0.540 OA 
ENDBRANCH   6  11
ENDBRANCH   3   4
TORSDOF 2
ENDMDL
MODEL       57
REMARK 921   NORMALIZED FREE ENERGY PREDICTED BY IDOCK:   -4.64 KCAL/MOL
REMARK 922        TOTAL FREE ENERGY PREDICTED BY IDOCK:   -5.50 KCAL/MOL
REMARK 923 INTER-LIGAND FREE ENERGY PREDICTED BY IDOCK:   -5.07 KCAL/MOL
REMARK 924 INTRA-LIGAND FREE ENERGY PREDICTED BY IDOCK:   -0.43 KCAL/MOL
REMARK 927      BINDING AFFINITY PREDICTED BY RF-SCORE:    0.00 PKD
ROOT
HETATM    1  O5* UNL     1     -10.112  20.536  65.914  1.00  0.00    -0.553 OA 
HETATM    2  H5* UNL     1     -10.726  21.151  65.531  1.00  0.00     0.000 HD 
HETATM    3  C5* UNL     1     -10.782  19.416  66.491  1.00  0.00    -0.418 C  
ENDROOT
BRANCH   3   4
HETATM    4  C4* UNL     1      -9.794  18.427  67.106  1.00  0.00    -0.320 C  
HETATM    5  O4* UNL     1     -10.285  17.076  67.030  1.00  0.00    -0.290 OA 
HETATM    6  C1* UNL     1      -9.124  16.244  67.179  1.00  0.00    -0.202 C  
HETATM    7  H3* UNL     1      -6.656  19.215  66.736  1.00  0.00     0.000 HD 
HETATM    8  C2* UNL     1      -8.005  16.962  66.429  1.00  0.00    -0.352 C  
HETATM    9  C3* UNL     1      -8.427  18.418  66.426  1.00  0.00    -0.245 C  
HETATM   10  O3* UNL     1      -7.506  19.220  67.159  1.00  0.00    -0.222 OA 
BRANCH   6  11
HETATM   11  N   UNL     1      -9.364  14.877  66.726  1.00  0.00    -0.236 N  
HETATM   12  C   UNL     1     -10.614  13.332  65.391  1.00  0.00    -0.296 C  
HETATM   13  C   UNL     1     -10.299  14.585  65.746  1.00  0.00    -0.331 C  
HETATM   14  I   UNL     1     -12.034  12.912  63.982  1.00  0.00    -0.599 I  
HETATM   15  C   UNL     1      -9.909  12.218  66.084  1.00  0.00    -0.243 C  
HETATM   16  O   UNL     1     -10.159  11.033  65.894  1.00  0.00    -0.232 OA 
HETATM   17  N   UNL     1      -8.944  12.594  66.980  1.00  0.00    -0.211 N  
HETATM   18  C   UNL     1      -8.672  13.870  67.387  1.00  0.00    -0.203 C  
HETATM   19  H   UNL     1      -8.375  11.850  67.382  1.00  0.00     0.000 HD 
HETATM   20  O   UNL     1      -7.866  14.069  68.293  1.00  0.00    -0.122 OA 
ENDBRANCH   6  11
ENDBRANCH   3   4
TORSDOF 2
ENDMDL
MODEL       58
REMARK 921   NORMALIZED FREE ENERGY PREDICTED BY IDOCK:   -4.64 KCAL/MOL
REMARK 922        TOTAL FREE ENERGY PREDICTED BY IDOCK:   -5.50 KCAL/MOL
REMARK 923 INTER-LIGAND FREE ENERGY PREDICTED BY IDOCK:   -5.83 KCAL/MOL
REMARK 924 INTRA-LIGAND FREE ENERGY PREDICTED BY IDOCK:    0.33 KCAL/MOL
REMARK 927      BINDING AFFINITY PREDICTED BY RF-SCORE:    0.00 PKD
ROOT
HETATM    1  O5* UNL     1     -11.730  16.259  63.743  1.00  0.00    -1.511 OA 
HETATM    2  H5* UNL     1     -11.822  17.204  63.776  1.00  0.00     0.000 HD 
HETATM    3  C5* UNL     1     -11.265  15.734  64.986  1.00  0.00    -0.308 C  
ENDROOT
BRANCH   3   4
HETATM    4  C4* UNL     1     -11.117  14.215  64.932  1.00  0.00    -0.385 C  
HETATM    5  O4* UNL     1      -9.920  13.779  65.604  1.00  0.00    -0.295 OA 
HETATM    6  C1* UNL     1     -10.139  12.390  65.898  1.00  0.00    -0.253 C  
HETATM    7  H3* UNL     1     -13.922  12.561  65.017  1.00  0.00     0.000 HD 
HETATM    8  C2* UNL     1     -11.614  12.277  66.276  1.00  0.00    -0.446 C  
HETATM    9  C3* UNL     1     -12.269  13.461  65.592  1.00  0.00    -0.463 C  
HETATM   10  O3* UNL     1     -13.205  13.030  64.607  1.00  0.00    -0.643 OA 
BRANCH   6  11
HETATM   11  N   UNL     1      -9.223  11.893  66.921  1.00  0.00    -0.187 N  
HETATM   12  C   UNL     1      -7.919  10.106  67.837  1.00  0.00    -0.101 C  
HETATM   13  C   UNL     1      -8.675  10.622  66.858  1.00  0.00    -0.132 C  
HETATM   14  I   UNL     1      -7.161   8.209  67.756  1.00  0.00    -0.090 I  
HETATM   15  C   UNL     1      -7.659  10.955  69.032  1.00  0.00    -0.135 C  
HETATM   16  O   UNL     1      -7.042  10.569  70.018  1.00  0.00    -0.154 OA 
HETATM   17  N   UNL     1      -8.170  12.224  68.979  1.00  0.00    -0.334 N  
HETATM   18  C   UNL     1      -8.994  12.725  68.010  1.00  0.00    -0.196 C  
HETATM   19  H   UNL     1      -7.910  12.857  69.736  1.00  0.00     0.000 HD 
HETATM   20  O   UNL     1      -9.489  13.842  68.140  1.00  0.00    -0.195 OA 
ENDBRANCH   6  11
ENDBRANCH   3   4
TORSDOF 2
ENDMDL
MODEL       59
REMARK 921   NORMALIZED FREE ENERGY PREDICTED BY IDOCK:   -4.61 KCAL/MOL
REMARK 922        TOTAL FREE ENERGY PREDICTED BY IDOCK:   -5.47 KCAL/MOL
REMARK 923 INTER-LIGAND FREE ENERGY PREDICTED BY IDOCK:   -6.01 KCAL/MOL
REMARK 924 INTRA-LIGAND FREE ENERGY PREDICTED BY IDOCK:    0.54 KCAL/MOL
REMARK 927      BINDING AFFINITY PREDICTED BY RF-SCORE:    0.00 PKD
ROOT
HETATM    1  O5* UNL     1     -11.842  16.462  63.864  1.00  0.00    -1.404 OA 
HETATM    2  H5* UNL     1     -12.002  17.369  64.094  1.00  0.00     0.000 HD 
HETATM    3  C5* UNL     1     -11.080  15.793  64.869  1.00  0.00    -0.399 C  
ENDROOT
BRANCH   3   4
HETATM    4  C4* UNL     1     -10.824  14.333  64.499  1.00  0.00    -0.288 C  
HETATM    5  O4* UNL     1     -10.042  13.666  65.507  1.00  0.00    -0.298 OA 
HETATM    6  C1* UNL     1     -10.278  12.264  65.299  1.00  0.00    -0.278 C  
HETATM    7  H3* UNL     1     -13.237  12.890  62.857  1.00  0.00     0.000 HD 
HETATM    8  C2* UNL     1     -11.750  12.148  64.913  1.00  0.00    -0.373 C  
HETATM    9  C3* UNL     1     -12.096  13.506  64.337  1.00  0.00    -0.420 C  
HETATM   10  O3* UNL     1     -12.445  13.404  62.958  1.00  0.00    -0.667 OA 
BRANCH   6  11
HETATM   11  N   UNL     1      -9.901  11.464  66.461  1.00  0.00    -0.203 N  
HETATM   12  C   UNL     1      -8.346  10.005  67.550  1.00  0.00    -0.118 C  
HETATM   13  C   UNL     1      -8.671  10.830  66.545  1.00  0.00    -0.151 C  
HETATM   14  I   UNL     1      -6.549   9.033  67.636  1.00  0.00    -0.061 I  
HETATM   15  C   UNL     1      -9.359   9.780  68.617  1.00  0.00    -0.147 C  
HETATM   16  O   UNL     1      -9.203   8.997  69.547  1.00  0.00    -0.146 OA 
HETATM   17  N   UNL     1     -10.515  10.505  68.500  1.00  0.00    -0.177 N  
HETATM   18  C   UNL     1     -10.870  11.295  67.442  1.00  0.00    -0.262 C  
HETATM   19  H   UNL     1     -11.173  10.450  69.276  1.00  0.00     0.000 HD 
HETATM   20  O   UNL     1     -11.991  11.795  67.396  1.00  0.00    -0.617 OA 
ENDBRANCH   6  11
ENDBRANCH   3   4
TORSDOF 2
ENDMDL
MODEL       60
REMARK 921   NORMALIZED FREE ENERGY PREDICTED BY IDOCK:   -4.60 KCAL/MOL
REMARK 922        TOTAL FREE ENERGY PREDICTED BY IDOCK:   -5.45 KCAL/MOL
REMARK 923 INTER-LIGAND FREE ENERGY PREDICTED BY IDOCK:   -5.18 KCAL/MOL
REMARK 924 INTRA-LIGAND FREE ENERGY PREDICTED BY IDOCK:   -0.27 KCAL/MOL
REMARK 927      BINDING AFFINITY PREDICTED BY RF-SCORE:    0.00 PKD
ROOT
HETATM    1  O5* UNL     1     -10.390  11.823  67.351  1.00  0.00    -0.200 OA 
HETATM    2  H5* UNL     1     -10.301  10.955  67.726  1.00  0.00     0.000 HD 
HETATM    3  C5* UNL     1     -11.677  12.380  67.613  1.00  0.00    -0.346 C  
ENDROOT
BRANCH   3   4
HETATM    4  C4* UNL     1     -11.819  13.775  67.009  1.00  0.00    -0.410 C  
HETATM    5  O4* UNL     1     -10.749  14.642  67.431  1.00  0.00    -0.272 OA 
HETATM    6  C1* UNL     1     -10.722  15.704  66.464  1.00  0.00    -0.293 C  
HETATM    7  H3* UNL     1     -13.114  13.853  64.022  1.00  0.00     0.000 HD 
HETATM    8  C2* UNL     1     -11.026  15.045  65.122  1.00  0.00    -0.417 C  
HETATM    9  C3* UNL     1     -11.798  13.791  65.483  1.00  0.00    -0.363 C  
HETATM   10  O3* UNL     1     -13.127  13.843  64.972  1.00  0.00    -0.749 OA 
BRANCH   6  11
HETATM   11  N   UNL     1      -9.463  16.443  66.494  1.00  0.00    -0.255 N  
HETATM   12  C   UNL     1      -7.158  16.575  67.128  1.00  0.00    -0.193 C  
HETATM   13  C   UNL     1      -8.297  15.882  66.990  1.00  0.00    -0.223 C  
HETATM   14  I   UNL     1      -5.458  15.751  67.911  1.00  0.00    -0.101 I  
HETATM   15  C   UNL     1      -7.163  18.005  66.714  1.00  0.00    -0.208 C  
HETATM   16  O   UNL     1      -6.204  18.756  66.855  1.00  0.00    -0.176 OA 
HETATM   17  N   UNL     1      -8.330  18.458  66.161  1.00  0.00    -0.193 N  
HETATM   18  C   UNL     1      -9.509  17.769  66.082  1.00  0.00    -0.159 C  
HETATM   19  H   UNL     1      -8.320  19.400  65.770  1.00  0.00     0.000 HD 
HETATM   20  O   UNL     1     -10.524  18.330  65.677  1.00  0.00    -0.627 OA 
ENDBRANCH   6  11
ENDBRANCH   3   4
TORSDOF 2
ENDMDL
MODEL       61
REMARK 921   NORMALIZED FREE ENERGY PREDICTED BY IDOCK:   -4.59 KCAL/MOL
REMARK 922        TOTAL FREE ENERGY PREDICTED BY IDOCK:   -5.44 KCAL/MOL
REMARK 923 INTER-LIGAND FREE ENERGY PREDICTED BY IDOCK:   -5.77 KCAL/MOL
REMARK 924 INTRA-LIGAND FREE ENERGY PREDICTED BY IDOCK:    0.33 KCAL/MOL
REMARK 927      BINDING AFFINITY PREDICTED BY RF-SCORE:    0.00 PKD
ROOT
HETATM    1  O5* UNL     1     -11.508   6.684  67.424  1.00  0.00    -0.747 OA 
HETATM    2  H5* UNL     1     -11.879   5.833  67.225  1.00  0.00     0.000 HD 
HETATM    3  C5* UNL     1     -10.850   6.686  68.691  1.00  0.00    -0.262 C  
ENDROOT
BRANCH   3   4
HETATM    4  C4* UNL     1     -10.254   8.055  69.012  1.00  0.00    -0.210 C  
HETATM    5  O4* UNL     1     -11.283   9.044  69.203  1.00  0.00     0.015 OA 
HETATM    6  C1* UNL     1     -10.653  10.103  69.942  1.00  0.00    -0.285 C  
HETATM    7  H3* UNL     1      -7.499   7.978  70.746  1.00  0.00     0.000 HD 
HETATM    8  C2* UNL     1      -9.712   9.414  70.926  1.00  0.00    -0.320 C  
HETATM    9  C3* UNL     1      -9.408   8.075  70.283  1.00  0.00    -0.159 C  
HETATM   10  O3* UNL     1      -8.026   7.965  69.956  1.00  0.00    -0.107 OA 
BRANCH   6  11
HETATM   11  N   UNL     1     -11.628  10.990  70.571  1.00  0.00    -0.302 N  
HETATM   12  C   UNL     1     -12.481  13.197  70.937  1.00  0.00    -0.323 C  
HETATM   13  C   UNL     1     -11.669  12.347  70.293  1.00  0.00    -0.123 C  
HETATM   14  I   UNL     1     -12.495  15.205  70.555  1.00  0.00    -0.433 I  
HETATM   15  C   UNL     1     -13.377  12.638  71.986  1.00  0.00    -0.454 C  
HETATM   16  O   UNL     1     -14.112  13.325  72.687  1.00  0.00    -0.744 OA 
HETATM   17  N   UNL     1     -13.331  11.279  72.143  1.00  0.00    -0.569 N  
HETATM   18  C   UNL     1     -12.457  10.424  71.532  1.00  0.00    -0.404 C  
HETATM   19  H   UNL     1     -14.015  10.865  72.776  1.00  0.00     0.000 HD 
HETATM   20  O   UNL     1     -12.432   9.237  71.851  1.00  0.00    -0.342 OA 
ENDBRANCH   6  11
ENDBRANCH   3   4
TORSDOF 2
ENDMDL
MODEL       62
REMARK 921   NORMALIZED FREE ENERGY PREDICTED BY IDOCK:   -4.58 KCAL/MOL
REMARK 922        TOTAL FREE ENERGY PREDICTED BY IDOCK:   -5.43 KCAL/MOL
REMARK 923 INTER-LIGAND FREE ENERGY PREDICTED BY IDOCK:   -5.10 KCAL/MOL
REMARK 924 INTRA-LIGAND FREE ENERGY PREDICTED BY IDOCK:   -0.33 KCAL/MOL
REMARK 927      BINDING AFFINITY PREDICTED BY RF-SCORE:    0.00 PKD
ROOT
HETATM    1  O5* UNL     1      -7.898   7.225  73.589  1.00  0.00    -0.101 OA 
HETATM    2  H5* UNL     1      -7.002   7.154  73.894  1.00  0.00     0.000 HD 
HETATM    3  C5* UNL     1      -8.808   6.576  74.476  1.00  0.00    -0.170 C  
ENDROOT
BRANCH   3   4
HETATM    4  C4* UNL     1     -10.249   6.691  73.986  1.00  0.00    -0.369 C  
HETATM    5  O4* UNL     1     -10.476   7.942  73.309  1.00  0.00    -0.339 OA 
HETATM    6  C1* UNL     1     -11.652   7.730  72.511  1.00  0.00    -0.367 C  
HETATM    7  H3* UNL     1     -11.611   3.882  73.059  1.00  0.00     0.000 HD 
HETATM    8  C2* UNL     1     -11.543   6.299  71.991  1.00  0.00    -0.372 C  
HETATM    9  C3* UNL     1     -10.653   5.599  72.998  1.00  0.00    -0.242 C  
HETATM   10  O3* UNL     1     -11.360   4.561  73.673  1.00  0.00    -0.292 OA 
BRANCH   6  11
HETATM   11  N   UNL     1     -11.794   8.737  71.463  1.00  0.00    -0.291 N  
HETATM   12  C   UNL     1     -10.801  10.136  69.793  1.00  0.00    -0.279 C  
HETATM   13  C   UNL     1     -10.719   9.140  70.685  1.00  0.00    -0.254 C  
HETATM   14  I   UNL     1      -9.195  10.759  68.691  1.00  0.00    -0.163 I  
HETATM   15  C   UNL     1     -12.114  10.820  69.637  1.00  0.00    -0.289 C  
HETATM   16  O   UNL     1     -12.293  11.787  68.904  1.00  0.00    -0.293 OA 
HETATM   17  N   UNL     1     -13.141  10.309  70.383  1.00  0.00    -0.546 N  
HETATM   18  C   UNL     1     -13.040   9.337  71.339  1.00  0.00    -0.322 C  
HETATM   19  H   UNL     1     -14.071  10.689  70.209  1.00  0.00     0.000 HD 
HETATM   20  O   UNL     1     -14.015   9.050  72.031  1.00  0.00    -0.414 OA 
ENDBRANCH   6  11
ENDBRANCH   3   4
TORSDOF 2
ENDMDL
MODEL       63
REMARK 921   NORMALIZED FREE ENERGY PREDICTED BY IDOCK:   -4.58 KCAL/MOL
REMARK 922        TOTAL FREE ENERGY PREDICTED BY IDOCK:   -5.43 KCAL/MOL
REMARK 923 INTER-LIGAND FREE ENERGY PREDICTED BY IDOCK:   -5.14 KCAL/MOL
REMARK 924 INTRA-LIGAND FREE ENERGY PREDICTED BY IDOCK:   -0.29 KCAL/MOL
REMARK 927      BINDING AFFINITY PREDICTED BY RF-SCORE:    0.00 PKD
ROOT
HETATM    1  O5* UNL     1      -9.234  12.778  66.040  1.00  0.00    -0.441 OA 
HETATM    2  H5* UNL     1      -8.662  12.783  65.283  1.00  0.00     0.000 HD 
HETATM    3  C5* UNL     1     -10.553  12.353  65.698  1.00  0.00    -0.265 C  
ENDROOT
BRANCH   3   4
HETATM    4  C4* UNL     1     -11.474  12.345  66.916  1.00  0.00    -0.360 C  
HETATM    5  O4* UNL     1     -11.291  11.155  67.706  1.00  0.00    -0.287 OA 
HETATM    6  C1* UNL     1     -11.818  11.479  69.003  1.00  0.00    -0.343 C  
HETATM    7  H3* UNL     1     -12.067  15.276  68.206  1.00  0.00     0.000 HD 
HETATM    8  C2* UNL     1     -11.428  12.934  69.252  1.00  0.00    -0.341 C  
HETATM    9  C3* UNL     1     -11.250  13.519  67.866  1.00  0.00    -0.274 C  
HETATM   10  O3* UNL     1     -12.207  14.545  67.616  1.00  0.00    -0.298 OA 
BRANCH   6  11
HETATM   11  N   UNL     1     -11.354  10.553  70.032  1.00  0.00    -0.295 N  
HETATM   12  C   UNL     1      -9.785   8.904  70.774  1.00  0.00    -0.227 C  
HETATM   13  C   UNL     1     -10.175   9.837  69.896  1.00  0.00    -0.254 C  
HETATM   14  I   UNL     1      -8.070   7.817  70.534  1.00  0.00    -0.107 I  
HETATM   15  C   UNL     1     -10.665   8.646  71.947  1.00  0.00    -0.344 C  
HETATM   16  O   UNL     1     -10.449   7.771  72.779  1.00  0.00    -0.271 OA 
HETATM   17  N   UNL     1     -11.769   9.449  72.048  1.00  0.00    -0.303 N  
HETATM   18  C   UNL     1     -12.198  10.355  71.118  1.00  0.00    -0.394 C  
HETATM   19  H   UNL     1     -12.323   9.365  72.900  1.00  0.00     0.000 HD 
HETATM   20  O   UNL     1     -13.275  10.927  71.267  1.00  0.00    -0.333 OA 
ENDBRANCH   6  11
ENDBRANCH   3   4
TORSDOF 2
ENDMDL
MODEL       64
REMARK 921   NORMALIZED FREE ENERGY PREDICTED BY IDOCK:   -4.53 KCAL/MOL
REMARK 922        TOTAL FREE ENERGY PREDICTED BY IDOCK:   -5.38 KCAL/MOL
REMARK 923 INTER-LIGAND FREE ENERGY PREDICTED BY IDOCK:   -5.04 KCAL/MOL
REMARK 924 INTRA-LIGAND FREE ENERGY PREDICTED BY IDOCK:   -0.34 KCAL/MOL
REMARK 927      BINDING AFFINITY PREDICTED BY RF-SCORE:    0.00 PKD
ROOT
HETATM    1  O5* UNL     1      -8.949  12.235  68.901  1.00  0.00    -0.378 OA 
HETATM    2  H5* UNL     1      -8.171  12.700  68.620  1.00  0.00     0.000 HD 
HETATM    3  C5* UNL     1      -9.118  11.012  68.184  1.00  0.00    -0.155 C  
ENDROOT
BRANCH   3   4
HETATM    4  C4* UNL     1     -10.370  10.264  68.636  1.00  0.00    -0.184 C  
HETATM    5  O4* UNL     1     -10.045   9.190  69.539  1.00  0.00    -0.184 OA 
HETATM    6  C1* UNL     1     -11.267   8.902  70.236  1.00  0.00    -0.197 C  
HETATM    7  H3* UNL     1     -13.035  12.112  68.939  1.00  0.00     0.000 HD 
HETATM    8  C2* UNL     1     -11.938  10.253  70.466  1.00  0.00    -0.415 C  
HETATM    9  C3* UNL     1     -11.379  11.142  69.373  1.00  0.00    -0.283 C  
HETATM   10  O3* UNL     1     -12.407  11.566  68.481  1.00  0.00    -0.459 OA 
BRANCH   6  11
HETATM   11  N   UNL     1     -11.036   8.135  71.458  1.00  0.00    -0.244 N  
HETATM   12  C   UNL     1      -9.598   7.519  73.270  1.00  0.00    -0.254 C  
HETATM   13  C   UNL     1      -9.881   8.286  72.208  1.00  0.00    -0.294 C  
HETATM   14  I   UNL     1      -7.866   7.715  74.338  1.00  0.00    -0.284 I  
HETATM   15  C   UNL     1     -10.586   6.472  73.650  1.00  0.00    -0.286 C  
HETATM   16  O   UNL     1     -10.407   5.667  74.557  1.00  0.00    -0.269 OA 
HETATM   17  N   UNL     1     -11.734   6.442  72.906  1.00  0.00    -0.483 N  
HETATM   18  C   UNL     1     -11.991   7.181  71.785  1.00  0.00    -0.313 C  
HETATM   19  H   UNL     1     -12.469   5.808  73.219  1.00  0.00     0.000 HD 
HETATM   20  O   UNL     1     -13.010   6.974  71.131  1.00  0.00    -0.360 OA 
ENDBRANCH   6  11
ENDBRANCH   3   4
TORSDOF 2
ENDMDL
MODEL       65
REMARK 921   NORMALIZED FREE ENERGY PREDICTED BY IDOCK:   -4.51 KCAL/MOL
REMARK 922        TOTAL FREE ENERGY PREDICTED BY IDOCK:   -5.36 KCAL/MOL
REMARK 923 INTER-LIGAND FREE ENERGY PREDICTED BY IDOCK:   -5.01 KCAL/MOL
REMARK 924 INTRA-LIGAND FREE ENERGY PREDICTED BY IDOCK:   -0.35 KCAL/MOL
REMARK 927      BINDING AFFINITY PREDICTED BY RF-SCORE:    0.00 PKD
ROOT
HETATM    1  O5* UNL     1      -5.434  16.886  69.189  1.00  0.00    -0.133 OA 
HETATM    2  H5* UNL     1      -4.941  17.661  68.951  1.00  0.00     0.000 HD 
HETATM    3  C5* UNL     1      -6.812  17.013  68.839  1.00  0.00    -0.211 C  
ENDROOT
BRANCH   3   4
HETATM    4  C4* UNL     1      -7.606  15.766  69.224  1.00  0.00    -0.224 C  
HETATM    5  O4* UNL     1      -8.862  15.705  68.522  1.00  0.00    -0.174 OA 
HETATM    6  C1* UNL     1      -9.264  14.328  68.589  1.00  0.00    -0.167 C  
HETATM    7  H3* UNL     1      -5.798  13.140  69.888  1.00  0.00     0.000 HD 
HETATM    8  C2* UNL     1      -7.978  13.517  68.442  1.00  0.00    -0.142 C  
HETATM    9  C3* UNL     1      -6.885  14.457  68.912  1.00  0.00    -0.102 C  
HETATM   10  O3* UNL     1      -6.246  13.955  70.082  1.00  0.00    -0.144 OA 
BRANCH   6  11
HETATM   11  N   UNL     1     -10.288  14.005  67.599  1.00  0.00    -0.240 N  
HETATM   12  C   UNL     1     -10.895  13.052  65.488  1.00  0.00    -0.278 C  
HETATM   13  C   UNL     1     -10.000  13.268  66.461  1.00  0.00    -0.280 C  
HETATM   14  I   UNL     1     -10.442  12.009  63.789  1.00  0.00    -0.537 I  
HETATM   15  C   UNL     1     -12.257  13.628  65.660  1.00  0.00    -0.454 C  
HETATM   16  O   UNL     1     -13.138  13.555  64.810  1.00  0.00    -0.680 OA 
HETATM   17  N   UNL     1     -12.483  14.273  66.847  1.00  0.00    -0.543 N  
HETATM   18  C   UNL     1     -11.549  14.548  67.808  1.00  0.00    -0.365 C  
HETATM   19  H   UNL     1     -13.438  14.577  67.032  1.00  0.00     0.000 HD 
HETATM   20  O   UNL     1     -11.848  15.245  68.774  1.00  0.00    -0.338 OA 
ENDBRANCH   6  11
ENDBRANCH   3   4
TORSDOF 2
ENDMDL
MODEL       66
REMARK 921   NORMALIZED FREE ENERGY PREDICTED BY IDOCK:   -4.50 KCAL/MOL
REMARK 922        TOTAL FREE ENERGY PREDICTED BY IDOCK:   -5.34 KCAL/MOL
REMARK 923 INTER-LIGAND FREE ENERGY PREDICTED BY IDOCK:   -5.15 KCAL/MOL
REMARK 924 INTRA-LIGAND FREE ENERGY PREDICTED BY IDOCK:   -0.20 KCAL/MOL
REMARK 927      BINDING AFFINITY PREDICTED BY RF-SCORE:    0.00 PKD
ROOT
HETATM    1  O5* UNL     1     -11.556  16.825  71.513  1.00  0.00    -0.570 OA 
HETATM    2  H5* UNL     1     -11.136  17.472  72.067  1.00  0.00     0.000 HD 
HETATM    3  C5* UNL     1     -12.164  15.789  72.283  1.00  0.00    -0.462 C  
ENDROOT
BRANCH   3   4
HETATM    4  C4* UNL     1     -12.839  14.749  71.392  1.00  0.00    -0.336 C  
HETATM    5  O4* UNL     1     -12.064  14.490  70.206  1.00  0.00    -0.283 OA 
HETATM    6  C1* UNL     1     -12.523  13.215  69.728  1.00  0.00     0.021 C  
HETATM    7  H3* UNL     1     -14.494  12.443  72.988  1.00  0.00     0.000 HD 
HETATM    8  C2* UNL     1     -12.780  12.376  70.977  1.00  0.00    -0.315 C  
HETATM    9  C3* UNL     1     -13.039  13.395  72.069  1.00  0.00    -0.377 C  
HETATM   10  O3* UNL     1     -14.370  13.285  72.567  1.00  0.00    -0.662 OA 
BRANCH   6  11
HETATM   11  N   UNL     1     -11.585  12.611  68.786  1.00  0.00    -0.291 N  
HETATM   12  C   UNL     1      -9.814  11.063  68.339  1.00  0.00    -0.182 C  
HETATM   13  C   UNL     1     -10.756  11.562  69.151  1.00  0.00    -0.168 C  
HETATM   14  I   UNL     1      -8.560   9.551  68.907  1.00  0.00    -0.146 I  
HETATM   15  C   UNL     1      -9.674  11.670  66.986  1.00  0.00    -0.186 C  
HETATM   16  O   UNL     1      -8.806  11.345  66.183  1.00  0.00    -0.193 OA 
HETATM   17  N   UNL     1     -10.583  12.645  66.677  1.00  0.00    -0.246 N  
HETATM   18  C   UNL     1     -11.499  13.196  67.530  1.00  0.00    -0.328 C  
HETATM   19  H   UNL     1     -10.575  12.995  65.719  1.00  0.00     0.000 HD 
HETATM   20  O   UNL     1     -12.177  14.156  67.169  1.00  0.00    -0.421 OA 
ENDBRANCH   6  11
ENDBRANCH   3   4
TORSDOF 2
ENDMDL
MODEL       67
REMARK 921   NORMALIZED FREE ENERGY PREDICTED BY IDOCK:   -4.47 KCAL/MOL
REMARK 922        TOTAL FREE ENERGY PREDICTED BY IDOCK:   -5.32 KCAL/MOL
REMARK 923 INTER-LIGAND FREE ENERGY PREDICTED BY IDOCK:   -5.01 KCAL/MOL
REMARK 924 INTRA-LIGAND FREE ENERGY PREDICTED BY IDOCK:   -0.31 KCAL/MOL
REMARK 927      BINDING AFFINITY PREDICTED BY RF-SCORE:    0.00 PKD
ROOT
HETATM    1  O5* UNL     1     -11.508   6.331  67.095  1.00  0.00    -0.652 OA 
HETATM    2  H5* UNL     1     -12.050   5.845  67.705  1.00  0.00     0.000 HD 
HETATM    3  C5* UNL     1     -10.394   6.937  67.750  1.00  0.00    -0.203 C  
ENDROOT
BRANCH   3   4
HETATM    4  C4* UNL     1      -9.522   7.717  66.769  1.00  0.00    -0.197 C  
HETATM    5  O4* UNL     1     -10.310   8.613  65.963  1.00  0.00     0.011 OA 
HETATM    6  C1* UNL     1      -9.379   9.586  65.462  1.00  0.00    -0.255 C  
HETATM    7  H3* UNL     1      -6.541   8.443  67.861  1.00  0.00     0.000 HD 
HETATM    8  C2* UNL     1      -8.399   9.842  66.604  1.00  0.00    -0.125 C  
HETATM    9  C3* UNL     1      -8.458   8.581  67.442  1.00  0.00    -0.127 C  
HETATM   10  O3* UNL     1      -7.203   7.906  67.442  1.00  0.00    -0.083 OA 
BRANCH   6  11
HETATM   11  N   UNL     1     -10.049  10.787  64.971  1.00  0.00    -0.292 N  
HETATM   12  C   UNL     1     -11.253  12.809  65.411  1.00  0.00    -0.292 C  
HETATM   13  C   UNL     1     -10.542  11.755  65.832  1.00  0.00    -0.271 C  
HETATM   14  I   UNL     1     -12.021  14.201  66.696  1.00  0.00    -0.337 I  
HETATM   15  C   UNL     1     -11.507  12.934  63.949  1.00  0.00    -0.446 C  
HETATM   16  O   UNL     1     -12.200  13.815  63.453  1.00  0.00    -0.634 OA 
HETATM   17  N   UNL     1     -10.919  11.981  63.162  1.00  0.00    -0.692 N  
HETATM   18  C   UNL     1     -10.249  10.872  63.599  1.00  0.00    -0.332 C  
HETATM   19  H   UNL     1     -10.987  12.111  62.153  1.00  0.00     0.000 HD 
HETATM   20  O   UNL     1      -9.874  10.022  62.794  1.00  0.00    -0.085 OA 
ENDBRANCH   6  11
ENDBRANCH   3   4
TORSDOF 2
ENDMDL
MODEL       68
REMARK 921   NORMALIZED FREE ENERGY PREDICTED BY IDOCK:   -4.43 KCAL/MOL
REMARK 922        TOTAL FREE ENERGY PREDICTED BY IDOCK:   -5.26 KCAL/MOL
REMARK 923 INTER-LIGAND FREE ENERGY PREDICTED BY IDOCK:   -4.96 KCAL/MOL
REMARK 924 INTRA-LIGAND FREE ENERGY PREDICTED BY IDOCK:   -0.30 KCAL/MOL
REMARK 927      BINDING AFFINITY PREDICTED BY RF-SCORE:    0.00 PKD
ROOT
HETATM    1  O5* UNL     1      -9.442   7.812  69.277  1.00  0.00    -0.155 OA 
HETATM    2  H5* UNL     1      -8.898   7.034  69.241  1.00  0.00     0.000 HD 
HETATM    3  C5* UNL     1      -9.197   8.569  70.461  1.00  0.00    -0.156 C  
ENDROOT
BRANCH   3   4
HETATM    4  C4* UNL     1     -10.072   9.820  70.519  1.00  0.00    -0.224 C  
HETATM    5  O4* UNL     1      -9.874  10.654  69.362  1.00  0.00    -0.210 OA 
HETATM    6  C1* UNL     1     -11.041  11.489  69.297  1.00  0.00    -0.246 C  
HETATM    7  H3* UNL     1     -12.967   9.403  71.952  1.00  0.00     0.000 HD 
HETATM    8  C2* UNL     1     -12.207  10.601  69.721  1.00  0.00    -0.318 C  
HETATM    9  C3* UNL     1     -11.568   9.522  70.573  1.00  0.00    -0.254 C  
HETATM   10  O3* UNL     1     -12.036   9.588  71.918  1.00  0.00    -0.370 OA 
BRANCH   6  11
HETATM   11  N   UNL     1     -11.206  12.102  67.981  1.00  0.00    -0.244 N  
HETATM   12  C   UNL     1     -10.778  12.088  65.626  1.00  0.00    -0.272 C  
HETATM   13  C   UNL     1     -10.735  11.497  66.827  1.00  0.00    -0.270 C  
HETATM   14  I   UNL     1     -10.031  11.206  63.939  1.00  0.00    -0.472 I  
HETATM   15  C   UNL     1     -11.372  13.451  65.546  1.00  0.00    -0.293 C  
HETATM   16  O   UNL     1     -11.405  14.118  64.518  1.00  0.00    -0.372 OA 
HETATM   17  N   UNL     1     -11.885  13.943  66.715  1.00  0.00    -0.400 N  
HETATM   18  C   UNL     1     -11.781  13.366  67.951  1.00  0.00    -0.361 C  
HETATM   19  H   UNL     1     -12.394  14.825  66.660  1.00  0.00     0.000 HD 
HETATM   20  O   UNL     1     -12.175  13.969  68.947  1.00  0.00    -0.345 OA 
ENDBRANCH   6  11
ENDBRANCH   3   4
TORSDOF 2
ENDMDL
MODEL       69
REMARK 921   NORMALIZED FREE ENERGY PREDICTED BY IDOCK:   -4.43 KCAL/MOL
REMARK 922        TOTAL FREE ENERGY PREDICTED BY IDOCK:   -5.26 KCAL/MOL
REMARK 923 INTER-LIGAND FREE ENERGY PREDICTED BY IDOCK:   -4.85 KCAL/MOL
REMARK 924 INTRA-LIGAND FREE ENERGY PREDICTED BY IDOCK:   -0.41 KCAL/MOL
REMARK 927      BINDING AFFINITY PREDICTED BY RF-SCORE:    0.00 PKD
ROOT
HETATM    1  O5* UNL     1     -14.037   8.952  73.332  1.00  0.00    -1.256 OA 
HETATM    2  H5* UNL     1     -14.917   9.162  73.620  1.00  0.00     0.000 HD 
HETATM    3  C5* UNL     1     -14.048   8.150  72.152  1.00  0.00    -0.303 C  
ENDROOT
BRANCH   3   4
HETATM    4  C4* UNL     1     -12.632   7.814  71.689  1.00  0.00    -0.332 C  
HETATM    5  O4* UNL     1     -12.403   8.250  70.335  1.00  0.00     0.200 OA 
HETATM    6  C1* UNL     1     -10.975   8.320  70.199  1.00  0.00    -0.222 C  
HETATM    7  H3* UNL     1     -10.360   7.943  74.019  1.00  0.00     0.000 HD 
HETATM    8  C2* UNL     1     -10.460   8.845  71.536  1.00  0.00    -0.393 C  
HETATM    9  C3* UNL     1     -11.537   8.464  72.531  1.00  0.00    -0.356 C  
HETATM   10  O3* UNL     1     -11.041   7.538  73.494  1.00  0.00    -0.312 OA 
BRANCH   6  11
HETATM   11  N   UNL     1     -10.571   9.122  69.047  1.00  0.00    -0.220 N  
HETATM   12  C   UNL     1     -10.427  11.249  67.958  1.00  0.00    -0.188 C  
HETATM   13  C   UNL     1     -10.689  10.503  69.040  1.00  0.00    -0.225 C  
HETATM   14  I   UNL     1     -10.655  13.281  67.943  1.00  0.00    -0.275 I  
HETATM   15  C   UNL     1      -9.982  10.547  66.723  1.00  0.00    -0.204 C  
HETATM   16  O   UNL     1      -9.779  11.114  65.655  1.00  0.00    -0.205 OA 
HETATM   17  N   UNL     1      -9.815   9.193  66.839  1.00  0.00    -0.198 N  
HETATM   18  C   UNL     1     -10.145   8.427  67.922  1.00  0.00    -0.203 C  
HETATM   19  H   UNL     1      -9.406   8.709  66.040  1.00  0.00     0.000 HD 
HETATM   20  O   UNL     1     -10.065   7.202  67.858  1.00  0.00    -0.158 OA 
ENDBRANCH   6  11
ENDBRANCH   3   4
TORSDOF 2
ENDMDL
MODEL       70
REMARK 921   NORMALIZED FREE ENERGY PREDICTED BY IDOCK:   -4.41 KCAL/MOL
REMARK 922        TOTAL FREE ENERGY PREDICTED BY IDOCK:   -5.25 KCAL/MOL
REMARK 923 INTER-LIGAND FREE ENERGY PREDICTED BY IDOCK:   -5.26 KCAL/MOL
REMARK 924 INTRA-LIGAND FREE ENERGY PREDICTED BY IDOCK:    0.01 KCAL/MOL
REMARK 927      BINDING AFFINITY PREDICTED BY RF-SCORE:    0.00 PKD
ROOT
HETATM    1  O5* UNL     1     -10.185   6.595  66.394  1.00  0.00    -0.414 OA 
HETATM    2  H5* UNL     1      -9.890   6.617  65.492  1.00  0.00     0.000 HD 
HETATM    3  C5* UNL     1      -9.181   7.075  67.287  1.00  0.00    -0.129 C  
ENDROOT
BRANCH   3   4
HETATM    4  C4* UNL     1      -9.655   7.039  68.738  1.00  0.00    -0.139 C  
HETATM    5  O4* UNL     1      -9.995   8.355  69.214  1.00  0.00    -0.185 OA 
HETATM    6  C1* UNL     1     -10.844   8.136  70.351  1.00  0.00    -0.236 C  
HETATM    7  H3* UNL     1     -11.296   4.354  69.577  1.00  0.00     0.000 HD 
HETATM    8  C2* UNL     1     -11.710   6.932  69.992  1.00  0.00    -0.261 C  
HETATM    9  C3* UNL     1     -10.897   6.178  68.959  1.00  0.00    -0.350 C  
HETATM   10  O3* UNL     1     -10.524   4.890  69.440  1.00  0.00    -0.167 OA 
BRANCH   6  11
HETATM   11  N   UNL     1     -11.604   9.331  70.708  1.00  0.00    -0.281 N  
HETATM   12  C   UNL     1     -12.091  11.650  70.365  1.00  0.00    -0.373 C  
HETATM   13  C   UNL     1     -11.488  10.513  69.993  1.00  0.00    -0.316 C  
HETATM   14  I   UNL     1     -11.869  13.401  69.332  1.00  0.00    -0.292 I  
HETATM   15  C   UNL     1     -12.926  11.621  71.598  1.00  0.00    -0.378 C  
HETATM   16  O   UNL     1     -13.470  12.611  72.074  1.00  0.00    -0.498 OA 
HETATM   17  N   UNL     1     -13.052  10.397  72.199  1.00  0.00    -0.524 N  
HETATM   18  C   UNL     1     -12.384   9.255  71.855  1.00  0.00    -0.382 C  
HETATM   19  H   UNL     1     -13.707  10.332  72.977  1.00  0.00     0.000 HD 
HETATM   20  O   UNL     1     -12.488   8.247  72.551  1.00  0.00    -0.331 OA 
ENDBRANCH   6  11
ENDBRANCH   3   4
TORSDOF 2
ENDMDL
MODEL       71
REMARK 921   NORMALIZED FREE ENERGY PREDICTED BY IDOCK:   -4.41 KCAL/MOL
REMARK 922        TOTAL FREE ENERGY PREDICTED BY IDOCK:   -5.24 KCAL/MOL
REMARK 923 INTER-LIGAND FREE ENERGY PREDICTED BY IDOCK:   -4.96 KCAL/MOL
REMARK 924 INTRA-LIGAND FREE ENERGY PREDICTED BY IDOCK:   -0.28 KCAL/MOL
REMARK 927      BINDING AFFINITY PREDICTED BY RF-SCORE:    0.00 PKD
ROOT
HETATM    1  O5* UNL     1     -11.172   9.003  68.322  1.00  0.00    -0.459 OA 
HETATM    2  H5* UNL     1     -11.657   8.510  68.974  1.00  0.00     0.000 HD 
HETATM    3  C5* UNL     1     -10.316   8.157  67.556  1.00  0.00    -0.261 C  
ENDROOT
BRANCH   3   4
HETATM    4  C4* UNL     1      -9.537   8.949  66.508  1.00  0.00    -0.232 C  
HETATM    5  O4* UNL     1     -10.357   9.964  65.898  1.00  0.00    -0.223 OA 
HETATM    6  C1* UNL     1      -9.431  10.904  65.329  1.00  0.00    -0.217 C  
HETATM    7  H3* UNL     1      -6.375   9.363  67.172  1.00  0.00     0.000 HD 
HETATM    8  C2* UNL     1      -8.274  10.993  66.320  1.00  0.00    -0.164 C  
HETATM    9  C3* UNL     1      -8.315   9.674  67.067  1.00  0.00    -0.117 C  
HETATM   10  O3* UNL     1      -7.136   8.912  66.825  1.00  0.00    -0.079 OA 
BRANCH   6  11
HETATM   11  N   UNL     1     -10.063  12.187  65.032  1.00  0.00    -0.271 N  
HETATM   12  C   UNL     1     -10.625  14.417  65.698  1.00  0.00    -0.329 C  
HETATM   13  C   UNL     1      -9.966  13.267  65.896  1.00  0.00    -0.272 C  
HETATM   14  I   UNL     1     -10.517  15.984  67.007  1.00  0.00    -0.230 I  
HETATM   15  C   UNL     1     -11.484  14.523  64.487  1.00  0.00    -0.343 C  
HETATM   16  O   UNL     1     -12.186  15.497  64.236  1.00  0.00    -0.504 OA 
HETATM   17  N   UNL     1     -11.461  13.443  63.647  1.00  0.00    -0.625 N  
HETATM   18  C   UNL     1     -10.841  12.248  63.883  1.00  0.00    -0.412 C  
HETATM   19  H   UNL     1     -11.953  13.539  62.759  1.00  0.00     0.000 HD 
HETATM   20  O   UNL     1     -10.998  11.308  63.107  1.00  0.00    -0.220 OA 
ENDBRANCH   6  11
ENDBRANCH   3   4
TORSDOF 2
ENDMDL
MODEL       72
REMARK 921   NORMALIZED FREE ENERGY PREDICTED BY IDOCK:   -4.40 KCAL/MOL
REMARK 922        TOTAL FREE ENERGY PREDICTED BY IDOCK:   -5.24 KCAL/MOL
REMARK 923 INTER-LIGAND FREE ENERGY PREDICTED BY IDOCK:   -4.91 KCAL/MOL
REMARK 924 INTRA-LIGAND FREE ENERGY PREDICTED BY IDOCK:   -0.32 KCAL/MOL
REMARK 927      BINDING AFFINITY PREDICTED BY RF-SCORE:    0.00 PKD
ROOT
HETATM    1  O5* UNL     1      -7.986   8.763  72.674  1.00  0.00    -0.380 OA 
HETATM    2  H5* UNL     1      -7.118   8.644  73.039  1.00  0.00     0.000 HD 
HETATM    3  C5* UNL     1      -8.922   7.843  73.236  1.00  0.00    -0.264 C  
ENDROOT
BRANCH   3   4
HETATM    4  C4* UNL     1     -10.319   8.035  72.649  1.00  0.00    -0.329 C  
HETATM    5  O4* UNL     1     -10.397   9.236  71.859  1.00  0.00    -0.286 OA 
HETATM    6  C1* UNL     1     -11.542   9.054  71.011  1.00  0.00    -0.300 C  
HETATM    7  H3* UNL     1     -11.870   5.278  71.873  1.00  0.00     0.000 HD 
HETATM    8  C2* UNL     1     -11.531   7.580  70.617  1.00  0.00    -0.291 C  
HETATM    9  C3* UNL     1     -10.762   6.898  71.731  1.00  0.00    -0.221 C  
HETATM   10  O3* UNL     1     -11.594   5.985  72.444  1.00  0.00    -0.301 OA 
BRANCH   6  11
HETATM   11  N   UNL     1     -11.538   9.974  69.876  1.00  0.00    -0.212 N  
HETATM   12  C   UNL     1     -10.778  10.541  67.678  1.00  0.00    -0.275 C  
HETATM   13  C   UNL     1     -10.887   9.671  68.691  1.00  0.00    -0.167 C  
HETATM   14  I   UNL     1      -9.769  10.100  65.955  1.00  0.00    -0.332 I  
HETATM   15  C   UNL     1     -11.398  11.884  67.848  1.00  0.00    -0.291 C  
HETATM   16  O   UNL     1     -11.305  12.784  67.022  1.00  0.00    -0.281 OA 
HETATM   17  N   UNL     1     -12.088  12.074  69.015  1.00  0.00    -0.233 N  
HETATM   18  C   UNL     1     -12.142  11.209  70.073  1.00  0.00    -0.359 C  
HETATM   19  H   UNL     1     -12.612  12.944  69.103  1.00  0.00     0.000 HD 
HETATM   20  O   UNL     1     -12.694  11.548  71.117  1.00  0.00    -0.393 OA 
ENDBRANCH   6  11
ENDBRANCH   3   4
TORSDOF 2
ENDMDL
MODEL       73
REMARK 921   NORMALIZED FREE ENERGY PREDICTED BY IDOCK:   -4.40 KCAL/MOL
REMARK 922        TOTAL FREE ENERGY PREDICTED BY IDOCK:   -5.24 KCAL/MOL
REMARK 923 INTER-LIGAND FREE ENERGY PREDICTED BY IDOCK:   -4.96 KCAL/MOL
REMARK 924 INTRA-LIGAND FREE ENERGY PREDICTED BY IDOCK:   -0.28 KCAL/MOL
REMARK 927      BINDING AFFINITY PREDICTED BY RF-SCORE:    0.00 PKD
ROOT
HETATM    1  O5* UNL     1      -8.433  11.616  62.438  1.00  0.00    -0.612 OA 
HETATM    2  H5* UNL     1      -7.767  11.397  61.798  1.00  0.00     0.000 HD 
HETATM    3  C5* UNL     1      -9.072  10.447  62.950  1.00  0.00    -0.277 C  
ENDROOT
BRANCH   3   4
HETATM    4  C4* UNL     1     -10.144  10.799  63.980  1.00  0.00    -0.345 C  
HETATM    5  O4* UNL     1      -9.923  10.111  65.225  1.00  0.00    -0.300 OA 
HETATM    6  C1* UNL     1     -10.660  10.859  66.205  1.00  0.00    -0.206 C  
HETATM    7  H3* UNL     1     -11.274  13.847  63.795  1.00  0.00     0.000 HD 
HETATM    8  C2* UNL     1     -10.495  12.325  65.811  1.00  0.00    -0.287 C  
HETATM    9  C3* UNL     1     -10.203  12.285  64.324  1.00  0.00    -0.330 C  
HETATM   10  O3* UNL     1     -11.238  12.923  63.581  1.00  0.00    -0.430 OA 
BRANCH   6  11
HETATM   11  N   UNL     1     -10.231  10.556  67.567  1.00  0.00    -0.195 N  
HETATM   12  C   UNL     1      -8.679   9.510  69.060  1.00  0.00    -0.142 C  
HETATM   13  C   UNL     1      -9.041   9.894  67.829  1.00  0.00    -0.131 C  
HETATM   14  I   UNL     1      -6.947   8.487  69.427  1.00  0.00    -0.050 I  
HETATM   15  C   UNL     1      -9.602   9.826  70.185  1.00  0.00    -0.237 C  
HETATM   16  O   UNL     1      -9.412   9.467  71.341  1.00  0.00    -0.224 OA 
HETATM   17  N   UNL     1     -10.715  10.551  69.852  1.00  0.00    -0.370 N  
HETATM   18  C   UNL     1     -11.115  10.884  68.587  1.00  0.00    -0.252 C  
HETATM   19  H   UNL     1     -11.302  10.873  70.621  1.00  0.00     0.000 HD 
HETATM   20  O   UNL     1     -12.201  11.430  68.408  1.00  0.00    -0.571 OA 
ENDBRANCH   6  11
ENDBRANCH   3   4
TORSDOF 2
ENDMDL
MODEL       74
REMARK 921   NORMALIZED FREE ENERGY PREDICTED BY IDOCK:   -4.39 KCAL/MOL
REMARK 922        TOTAL FREE ENERGY PREDICTED BY IDOCK:   -5.22 KCAL/MOL
REMARK 923 INTER-LIGAND FREE ENERGY PREDICTED BY IDOCK:   -4.93 KCAL/MOL
REMARK 924 INTRA-LIGAND FREE ENERGY PREDICTED BY IDOCK:   -0.29 KCAL/MOL
REMARK 927      BINDING AFFINITY PREDICTED BY RF-SCORE:    0.00 PKD
ROOT
HETATM    1  O5* UNL     1     -12.190  12.512  64.989  1.00  0.00    -0.439 OA 
HETATM    2  H5* UNL     1     -12.850  12.557  64.308  1.00  0.00     0.000 HD 
HETATM    3  C5* UNL     1     -12.475  13.414  66.057  1.00  0.00    -0.369 C  
ENDROOT
BRANCH   3   4
HETATM    4  C4* UNL     1     -11.413  13.343  67.152  1.00  0.00    -0.339 C  
HETATM    5  O4* UNL     1     -10.471  14.426  67.043  1.00  0.00    -0.265 OA 
HETATM    6  C1* UNL     1      -9.859  14.524  68.339  1.00  0.00    -0.227 C  
HETATM    7  H3* UNL     1     -12.457  12.158  70.000  1.00  0.00     0.000 HD 
HETATM    8  C2* UNL     1     -10.975  14.245  69.342  1.00  0.00    -0.242 C  
HETATM    9  C3* UNL     1     -11.981  13.419  68.567  1.00  0.00    -0.328 C  
HETATM   10  O3* UNL     1     -12.104  12.111  69.120  1.00  0.00    -0.267 OA 
BRANCH   6  11
HETATM   11  N   UNL     1      -9.188  15.806  68.535  1.00  0.00    -0.191 N  
HETATM   12  C   UNL     1      -9.113  18.174  68.190  1.00  0.00    -0.290 C  
HETATM   13  C   UNL     1      -9.755  17.001  68.119  1.00  0.00    -0.268 C  
HETATM   14  I   UNL     1      -9.940  19.922  67.524  1.00  0.00    -0.585 I  
HETATM   15  C   UNL     1      -7.735  18.177  68.752  1.00  0.00    -0.264 C  
HETATM   16  O   UNL     1      -7.024  19.175  68.804  1.00  0.00    -0.293 OA 
HETATM   17  N   UNL     1      -7.280  16.971  69.212  1.00  0.00    -0.201 N  
HETATM   18  C   UNL     1      -7.911  15.764  69.079  1.00  0.00    -0.206 C  
HETATM   19  H   UNL     1      -6.385  16.971  69.700  1.00  0.00     0.000 HD 
HETATM   20  O   UNL     1      -7.341  14.731  69.422  1.00  0.00    -0.161 OA 
ENDBRANCH   6  11
ENDBRANCH   3   4
TORSDOF 2
ENDMDL
MODEL       75
REMARK 921   NORMALIZED FREE ENERGY PREDICTED BY IDOCK:   -4.36 KCAL/MOL
REMARK 922        TOTAL FREE ENERGY PREDICTED BY IDOCK:   -5.19 KCAL/MOL
REMARK 923 INTER-LIGAND FREE ENERGY PREDICTED BY IDOCK:   -4.83 KCAL/MOL
REMARK 924 INTRA-LIGAND FREE ENERGY PREDICTED BY IDOCK:   -0.37 KCAL/MOL
REMARK 927      BINDING AFFINITY PREDICTED BY RF-SCORE:    0.00 PKD
ROOT
HETATM    1  O5* UNL     1      -8.312  10.807  64.824  1.00  0.00    -0.325 OA 
HETATM    2  H5* UNL     1      -7.444  10.436  64.727  1.00  0.00     0.000 HD 
HETATM    3  C5* UNL     1      -8.847  10.559  66.124  1.00  0.00    -0.159 C  
ENDROOT
BRANCH   3   4
HETATM    4  C4* UNL     1     -10.244  11.156  66.280  1.00  0.00    -0.239 C  
HETATM    5  O4* UNL     1     -10.385  11.844  67.537  1.00  0.00    -0.196 OA 
HETATM    6  C1* UNL     1     -11.503  12.728  67.358  1.00  0.00    -0.340 C  
HETATM    7  H3* UNL     1     -11.610  12.190  63.510  1.00  0.00     0.000 HD 
HETATM    8  C2* UNL     1     -11.395  13.243  65.925  1.00  0.00    -0.333 C  
HETATM    9  C3* UNL     1     -10.603  12.174  65.200  1.00  0.00    -0.286 C  
HETATM   10  O3* UNL     1     -11.387  11.557  64.182  1.00  0.00    -0.342 OA 
BRANCH   6  11
HETATM   11  N   UNL     1     -11.538  13.782  68.369  1.00  0.00    -0.312 N  
HETATM   12  C   UNL     1     -11.045  16.030  69.029  1.00  0.00    -0.320 C  
HETATM   13  C   UNL     1     -11.124  15.076  68.092  1.00  0.00    -0.291 C  
HETATM   14  I   UNL     1     -10.382  17.920  68.619  1.00  0.00    -0.040 I  
HETATM   15  C   UNL     1     -11.433  15.669  70.420  1.00  0.00    -0.354 C  
HETATM   16  O   UNL     1     -11.338  16.435  71.372  1.00  0.00    -0.331 OA 
HETATM   17  N   UNL     1     -11.905  14.396  70.592  1.00  0.00    -0.362 N  
HETATM   18  C   UNL     1     -11.923  13.405  69.649  1.00  0.00    -0.324 C  
HETATM   19  H   UNL     1     -12.280  14.163  71.511  1.00  0.00     0.000 HD 
HETATM   20  O   UNL     1     -12.256  12.264  69.961  1.00  0.00    -0.271 OA 
ENDBRANCH   6  11
ENDBRANCH   3   4
TORSDOF 2
ENDMDL
MODEL       76
REMARK 921   NORMALIZED FREE ENERGY PREDICTED BY IDOCK:   -4.36 KCAL/MOL
REMARK 922        TOTAL FREE ENERGY PREDICTED BY IDOCK:   -5.19 KCAL/MOL
REMARK 923 INTER-LIGAND FREE ENERGY PREDICTED BY IDOCK:   -5.01 KCAL/MOL
REMARK 924 INTRA-LIGAND FREE ENERGY PREDICTED BY IDOCK:   -0.18 KCAL/MOL
REMARK 927      BINDING AFFINITY PREDICTED BY RF-SCORE:    0.00 PKD
ROOT
HETATM    1  O5* UNL     1      -5.996  18.995  65.040  1.00  0.00    -0.230 OA 
HETATM    2  H5* UNL     1      -5.215  18.986  64.500  1.00  0.00     0.000 HD 
HETATM    3  C5* UNL     1      -6.181  17.751  65.715  1.00  0.00    -0.167 C  
ENDROOT
BRANCH   3   4
HETATM    4  C4* UNL     1      -7.437  17.766  66.584  1.00  0.00    -0.228 C  
HETATM    5  O4* UNL     1      -8.467  16.924  66.034  1.00  0.00    -0.460 OA 
HETATM    6  C1* UNL     1      -9.353  16.649  67.131  1.00  0.00    -0.228 C  
HETATM    7  H3* UNL     1      -6.888  18.068  69.780  1.00  0.00     0.000 HD 
HETATM    8  C2* UNL     1      -8.456  16.487  68.354  1.00  0.00    -0.208 C  
HETATM    9  C3* UNL     1      -7.205  17.271  68.010  1.00  0.00    -0.190 C  
HETATM   10  O3* UNL     1      -7.033  18.376  68.894  1.00  0.00    -0.271 OA 
BRANCH   6  11
HETATM   11  N   UNL     1     -10.215  15.500  66.867  1.00  0.00    -0.273 N  
HETATM   12  C   UNL     1     -10.747  13.576  65.545  1.00  0.00    -0.290 C  
HETATM   13  C   UNL     1      -9.919  14.576  65.877  1.00  0.00    -0.329 C  
HETATM   14  I   UNL     1     -10.324  12.251  64.046  1.00  0.00    -0.393 I  
HETATM   15  C   UNL     1     -12.031  13.463  66.290  1.00  0.00    -0.411 C  
HETATM   16  O   UNL     1     -12.896  12.634  66.030  1.00  0.00    -0.161 OA 
HETATM   17  N   UNL     1     -12.209  14.366  67.303  1.00  0.00    -0.608 N  
HETATM   18  C   UNL     1     -11.394  15.424  67.597  1.00  0.00    -0.290 C  
HETATM   19  H   UNL     1     -13.029  14.237  67.896  1.00  0.00     0.000 HD 
HETATM   20  O   UNL     1     -11.728  16.239  68.453  1.00  0.00    -0.271 OA 
ENDBRANCH   6  11
ENDBRANCH   3   4
TORSDOF 2
ENDMDL
MODEL       77
REMARK 921   NORMALIZED FREE ENERGY PREDICTED BY IDOCK:   -4.35 KCAL/MOL
REMARK 922        TOTAL FREE ENERGY PREDICTED BY IDOCK:   -5.18 KCAL/MOL
REMARK 923 INTER-LIGAND FREE ENERGY PREDICTED BY IDOCK:   -4.92 KCAL/MOL
REMARK 924 INTRA-LIGAND FREE ENERGY PREDICTED BY IDOCK:   -0.25 KCAL/MOL
REMARK 927      BINDING AFFINITY PREDICTED BY RF-SCORE:    0.00 PKD
ROOT
HETATM    1  O5* UNL     1      -9.519  13.209  66.015  1.00  0.00    -0.431 OA 
HETATM    2  H5* UNL     1      -9.106  13.873  65.476  1.00  0.00     0.000 HD 
HETATM    3  C5* UNL     1      -8.553  12.378  66.658  1.00  0.00    -0.075 C  
ENDROOT
BRANCH   3   4
HETATM    4  C4* UNL     1      -9.219  11.311  67.525  1.00  0.00    -0.158 C  
HETATM    5  O4* UNL     1      -9.792  11.884  68.715  1.00  0.00    -0.169 OA 
HETATM    6  C1* UNL     1     -10.757  10.920  69.168  1.00  0.00    -0.226 C  
HETATM    7  H3* UNL     1     -10.592   8.863  65.874  1.00  0.00     0.000 HD 
HETATM    8  C2* UNL     1     -11.397  10.354  67.903  1.00  0.00    -0.248 C  
HETATM    9  C3* UNL     1     -10.354  10.569  66.825  1.00  0.00    -0.245 C  
HETATM   10  O3* UNL     1      -9.886   9.325  66.309  1.00  0.00    -0.251 OA 
BRANCH   6  11
HETATM   11  N   UNL     1     -11.711  11.498  70.111  1.00  0.00    -0.324 N  
HETATM   12  C   UNL     1     -12.716  13.426  71.114  1.00  0.00    -0.328 C  
HETATM   13  C   UNL     1     -11.929  12.865  70.186  1.00  0.00    -0.301 C  
HETATM   14  I   UNL     1     -12.987  15.448  71.249  1.00  0.00    -0.539 I  
HETATM   15  C   UNL     1     -13.385  12.524  72.091  1.00  0.00    -0.435 C  
HETATM   16  O   UNL     1     -14.072  12.924  73.025  1.00  0.00    -0.044 OA 
HETATM   17  N   UNL     1     -13.181  11.185  71.898  1.00  0.00    -0.454 N  
HETATM   18  C   UNL     1     -12.326  10.619  70.993  1.00  0.00    -0.403 C  
HETATM   19  H   UNL     1     -13.717  10.547  72.486  1.00  0.00     0.000 HD 
HETATM   20  O   UNL     1     -12.136   9.405  71.001  1.00  0.00    -0.293 OA 
ENDBRANCH   6  11
ENDBRANCH   3   4
TORSDOF 2
ENDMDL
MODEL       78
REMARK 921   NORMALIZED FREE ENERGY PREDICTED BY IDOCK:   -4.33 KCAL/MOL
REMARK 922        TOTAL FREE ENERGY PREDICTED BY IDOCK:   -5.16 KCAL/MOL
REMARK 923 INTER-LIGAND FREE ENERGY PREDICTED BY IDOCK:   -4.84 KCAL/MOL
REMARK 924 INTRA-LIGAND FREE ENERGY PREDICTED BY IDOCK:   -0.33 KCAL/MOL
REMARK 927      BINDING AFFINITY PREDICTED BY RF-SCORE:    0.00 PKD
ROOT
HETATM    1  O5* UNL     1     -13.366   7.352  70.762  1.00  0.00    -0.600 OA 
HETATM    2  H5* UNL     1     -14.216   7.137  71.125  1.00  0.00     0.000 HD 
HETATM    3  C5* UNL     1     -12.312   7.038  71.671  1.00  0.00    -0.368 C  
ENDROOT
BRANCH   3   4
HETATM    4  C4* UNL     1     -10.944   7.383  71.086  1.00  0.00    -0.246 C  
HETATM    5  O4* UNL     1     -11.028   7.649  69.673  1.00  0.00    -0.226 OA 
HETATM    6  C1* UNL     1      -9.844   8.398  69.361  1.00  0.00    -0.185 C  
HETATM    7  H3* UNL     1      -8.961   9.004  73.098  1.00  0.00     0.000 HD 
HETATM    8  C2* UNL     1      -9.613   9.320  70.555  1.00  0.00    -0.317 C  
HETATM    9  C3* UNL     1     -10.301   8.619  71.710  1.00  0.00    -0.316 C  
HETATM   10  O3* UNL     1      -9.361   8.235  72.710  1.00  0.00    -0.249 OA 
BRANCH   6  11
HETATM   11  N   UNL     1      -9.956   9.096  68.082  1.00  0.00    -0.169 N  
HETATM   12  C   UNL     1     -10.742  10.965  66.810  1.00  0.00    -0.252 C  
HETATM   13  C   UNL     1     -10.531  10.353  67.983  1.00  0.00    -0.196 C  
HETATM   14  I   UNL     1     -11.641  12.797  66.672  1.00  0.00    -0.420 I  
HETATM   15  C   UNL     1     -10.324  10.252  65.571  1.00  0.00    -0.169 C  
HETATM   16  O   UNL     1     -10.527  10.680  64.440  1.00  0.00    -0.350 OA 
HETATM   17  N   UNL     1      -9.693   9.053  65.762  1.00  0.00    -0.441 N  
HETATM   18  C   UNL     1      -9.538   8.402  66.955  1.00  0.00    -0.202 C  
HETATM   19  H   UNL     1      -9.301   8.602  64.936  1.00  0.00     0.000 HD 
HETATM   20  O   UNL     1      -9.063   7.268  66.980  1.00  0.00    -0.127 OA 
ENDBRANCH   6  11
ENDBRANCH   3   4
TORSDOF 2
ENDMDL
MODEL       79
REMARK 921   NORMALIZED FREE ENERGY PREDICTED BY IDOCK:   -4.33 KCAL/MOL
REMARK 922        TOTAL FREE ENERGY PREDICTED BY IDOCK:   -5.16 KCAL/MOL
REMARK 923 INTER-LIGAND FREE ENERGY PREDICTED BY IDOCK:   -4.85 KCAL/MOL
REMARK 924 INTRA-LIGAND FREE ENERGY PREDICTED BY IDOCK:   -0.30 KCAL/MOL
REMARK 927      BINDING AFFINITY PREDICTED BY RF-SCORE:    0.00 PKD
ROOT
HETATM    1  O5* UNL     1     -11.486  15.784  70.185  1.00  0.00    -0.303 OA 
HETATM    2  H5* UNL     1     -11.955  16.501  70.595  1.00  0.00     0.000 HD 
HETATM    3  C5* UNL     1     -11.881  15.608  68.825  1.00  0.00    -0.321 C  
ENDROOT
BRANCH   3   4
HETATM    4  C4* UNL     1     -11.127  14.455  68.166  1.00  0.00    -0.264 C  
HETATM    5  O4* UNL     1     -10.806  13.424  69.119  1.00  0.00    -0.211 OA 
HETATM    6  C1* UNL     1     -10.557  12.249  68.332  1.00  0.00    -0.235 C  
HETATM    7  H3* UNL     1     -11.983  13.841  65.084  1.00  0.00     0.000 HD 
HETATM    8  C2* UNL     1     -11.569  12.297  67.190  1.00  0.00    -0.423 C  
HETATM    9  C3* UNL     1     -11.908  13.767  67.049  1.00  0.00    -0.410 C  
HETATM   10  O3* UNL     1     -11.497  14.268  65.780  1.00  0.00    -0.324 OA 
BRANCH   6  11
HETATM   11  N   UNL     1     -10.618  11.028  69.131  1.00  0.00    -0.220 N  
HETATM   12  C   UNL     1     -11.716   9.696  70.790  1.00  0.00    -0.314 C  
HETATM   13  C   UNL     1     -11.688  10.753  69.968  1.00  0.00    -0.336 C  
HETATM   14  I   UNL     1     -13.278   9.331  72.058  1.00  0.00    -0.576 I  
HETATM   15  C   UNL     1     -10.541   8.782  70.783  1.00  0.00    -0.220 C  
HETATM   16  O   UNL     1     -10.422   7.823  71.537  1.00  0.00    -0.203 OA 
HETATM   17  N   UNL     1      -9.564   9.080  69.872  1.00  0.00    -0.175 N  
HETATM   18  C   UNL     1      -9.508  10.195  69.081  1.00  0.00    -0.206 C  
HETATM   19  H   UNL     1      -8.805   8.406  69.773  1.00  0.00     0.000 HD 
HETATM   20  O   UNL     1      -8.513  10.412  68.393  1.00  0.00    -0.115 OA 
ENDBRANCH   6  11
ENDBRANCH   3   4
TORSDOF 2
ENDMDL
MODEL       80
REMARK 921   NORMALIZED FREE ENERGY PREDICTED BY IDOCK:   -4.33 KCAL/MOL
REMARK 922        TOTAL FREE ENERGY PREDICTED BY IDOCK:   -5.15 KCAL/MOL
REMARK 923 INTER-LIGAND FREE ENERGY PREDICTED BY IDOCK:   -4.70 KCAL/MOL
REMARK 924 INTRA-LIGAND FREE ENERGY PREDICTED BY IDOCK:   -0.46 KCAL/MOL
REMARK 927      BINDING AFFINITY PREDICTED BY RF-SCORE:    0.00 PKD
ROOT
HETATM    1  O5* UNL     1     -12.505  14.018  63.141  1.00  0.00    -1.137 OA 
HETATM    2  H5* UNL     1     -12.621  14.218  62.220  1.00  0.00     0.000 HD 
HETATM    3  C5* UNL     1     -12.096  12.665  63.338  1.00  0.00    -0.525 C  
ENDROOT
BRANCH   3   4
HETATM    4  C4* UNL     1     -11.910  12.345  64.819  1.00  0.00    -0.382 C  
HETATM    5  O4* UNL     1     -10.892  11.346  65.017  1.00  0.00    -0.291 OA 
HETATM    6  C1* UNL     1     -10.489  11.487  66.389  1.00  0.00    -0.250 C  
HETATM    7  H3* UNL     1     -12.363  14.863  66.834  1.00  0.00     0.000 HD 
HETATM    8  C2* UNL     1     -10.508  12.986  66.671  1.00  0.00    -0.271 C  
HETATM    9  C3* UNL     1     -11.489  13.547  65.661  1.00  0.00    -0.315 C  
HETATM   10  O3* UNL     1     -12.624  14.115  66.310  1.00  0.00    -0.449 OA 
BRANCH   6  11
HETATM   11  N   UNL     1      -9.203  10.847  66.653  1.00  0.00    -0.165 N  
HETATM   12  C   UNL     1      -7.043  10.154  65.886  1.00  0.00    -0.121 C  
HETATM   13  C   UNL     1      -8.188  10.826  65.709  1.00  0.00    -0.146 C  
HETATM   14  I   UNL     1      -5.576  10.086  64.464  1.00  0.00    -0.139 I  
HETATM   15  C   UNL     1      -6.867   9.411  67.165  1.00  0.00    -0.084 C  
HETATM   16  O   UNL     1      -5.895   8.707  67.413  1.00  0.00    -0.042 OA 
HETATM   17  N   UNL     1      -7.881   9.549  68.075  1.00  0.00    -0.087 N  
HETATM   18  C   UNL     1      -9.075  10.181  67.865  1.00  0.00    -0.131 C  
HETATM   19  H   UNL     1      -7.731   9.141  68.997  1.00  0.00     0.000 HD 
HETATM   20  O   UNL     1      -9.958  10.128  68.719  1.00  0.00    -0.165 OA 
ENDBRANCH   6  11
ENDBRANCH   3   4
TORSDOF 2
ENDMDL
MODEL       81
REMARK 921   NORMALIZED FREE ENERGY PREDICTED BY IDOCK:   -4.33 KCAL/MOL
REMARK 922        TOTAL FREE ENERGY PREDICTED BY IDOCK:   -5.15 KCAL/MOL
REMARK 923 INTER-LIGAND FREE ENERGY PREDICTED BY IDOCK:   -5.58 KCAL/MOL
REMARK 924 INTRA-LIGAND FREE ENERGY PREDICTED BY IDOCK:    0.43 KCAL/MOL
REMARK 927      BINDING AFFINITY PREDICTED BY RF-SCORE:    0.00 PKD
ROOT
HETATM    1  O5* UNL     1     -10.108  13.136  64.388  1.00  0.00    -0.586 OA 
HETATM    2  H5* UNL     1      -9.880  12.986  63.479  1.00  0.00     0.000 HD 
HETATM    3  C5* UNL     1     -11.502  13.402  64.542  1.00  0.00    -0.372 C  
ENDROOT
BRANCH   3   4
HETATM    4  C4* UNL     1     -11.869  13.643  66.005  1.00  0.00    -0.385 C  
HETATM    5  O4* UNL     1     -11.908  12.409  66.748  1.00  0.00    -0.493 OA 
HETATM    6  C1* UNL     1     -11.782  12.796  68.125  1.00  0.00    -0.345 C  
HETATM    7  H3* UNL     1     -10.778  16.448  67.248  1.00  0.00     0.000 HD 
HETATM    8  C2* UNL     1     -10.792  13.958  68.137  1.00  0.00    -0.262 C  
HETATM    9  C3* UNL     1     -10.889  14.549  66.745  1.00  0.00    -0.305 C  
HETATM   10  O3* UNL     1     -11.388  15.884  66.788  1.00  0.00    -0.057 OA 
BRANCH   6  11
HETATM   11  N   UNL     1     -11.396  11.675  68.978  1.00  0.00    -0.250 N  
HETATM   12  C   UNL     1     -11.930  10.126  70.724  1.00  0.00    -0.348 C  
HETATM   13  C   UNL     1     -12.289  11.082  69.856  1.00  0.00    -0.288 C  
HETATM   14  I   UNL     1     -13.244   9.297  72.052  1.00  0.00    -0.576 I  
HETATM   15  C   UNL     1     -10.507   9.689  70.722  1.00  0.00    -0.305 C  
HETATM   16  O   UNL     1     -10.046   8.874  71.513  1.00  0.00    -0.267 OA 
HETATM   17  N   UNL     1      -9.710  10.267  69.771  1.00  0.00    -0.393 N  
HETATM   18  C   UNL     1     -10.063  11.288  68.932  1.00  0.00    -0.170 C  
HETATM   19  H   UNL     1      -8.762   9.902  69.680  1.00  0.00     0.000 HD 
HETATM   20  O   UNL     1      -9.218  11.808  68.207  1.00  0.00    -0.180 OA 
ENDBRANCH   6  11
ENDBRANCH   3   4
TORSDOF 2
ENDMDL
MODEL       82
REMARK 921   NORMALIZED FREE ENERGY PREDICTED BY IDOCK:   -4.30 KCAL/MOL
REMARK 922        TOTAL FREE ENERGY PREDICTED BY IDOCK:   -5.12 KCAL/MOL
REMARK 923 INTER-LIGAND FREE ENERGY PREDICTED BY IDOCK:   -5.27 KCAL/MOL
REMARK 924 INTRA-LIGAND FREE ENERGY PREDICTED BY IDOCK:    0.15 KCAL/MOL
REMARK 927      BINDING AFFINITY PREDICTED BY RF-SCORE:    0.00 PKD
ROOT
HETATM    1  O5* UNL     1     -11.759  15.303  64.230  1.00  0.00    -0.656 OA 
HETATM    2  H5* UNL     1     -12.119  15.660  63.427  1.00  0.00     0.000 HD 
HETATM    3  C5* UNL     1     -12.568  14.244  64.742  1.00  0.00    -0.291 C  
ENDROOT
BRANCH   3   4
HETATM    4  C4* UNL     1     -11.990  13.670  66.034  1.00  0.00    -0.413 C  
HETATM    5  O4* UNL     1     -12.027  12.230  66.032  1.00  0.00    -0.570 OA 
HETATM    6  C1* UNL     1     -11.063  11.829  67.018  1.00  0.00    -0.304 C  
HETATM    7  H3* UNL     1      -9.553  15.397  67.332  1.00  0.00     0.000 HD 
HETATM    8  C2* UNL     1      -9.906  12.815  66.887  1.00  0.00    -0.236 C  
HETATM    9  C3* UNL     1     -10.533  14.054  66.280  1.00  0.00    -0.286 C  
HETATM   10  O3* UNL     1     -10.460  15.158  67.178  1.00  0.00    -0.270 OA 
BRANCH   6  11
HETATM   11  N   UNL     1     -10.673  10.429  66.868  1.00  0.00    -0.236 N  
HETATM   12  C   UNL     1     -10.296   8.273  67.839  1.00  0.00    -0.219 C  
HETATM   13  C   UNL     1     -10.747   9.532  67.922  1.00  0.00    -0.228 C  
HETATM   14  I   UNL     1     -10.361   6.975  69.417  1.00  0.00    -0.256 I  
HETATM   15  C   UNL     1      -9.701   7.835  66.546  1.00  0.00    -0.195 C  
HETATM   16  O   UNL     1      -9.193   6.733  66.371  1.00  0.00    -0.160 OA 
HETATM   17  N   UNL     1      -9.738   8.756  65.534  1.00  0.00    -0.431 N  
HETATM   18  C   UNL     1     -10.140  10.059  65.641  1.00  0.00    -0.251 C  
HETATM   19  H   UNL     1      -9.439   8.439  64.612  1.00  0.00     0.000 HD 
HETATM   20  O   UNL     1     -10.009  10.823  64.687  1.00  0.00    -0.272 OA 
ENDBRANCH   6  11
ENDBRANCH   3   4
TORSDOF 2
ENDMDL
MODEL       83
REMARK 921   NORMALIZED FREE ENERGY PREDICTED BY IDOCK:   -4.29 KCAL/MOL
REMARK 922        TOTAL FREE ENERGY PREDICTED BY IDOCK:   -5.11 KCAL/MOL
REMARK 923 INTER-LIGAND FREE ENERGY PREDICTED BY IDOCK:   -5.36 KCAL/MOL
REMARK 924 INTRA-LIGAND FREE ENERGY PREDICTED BY IDOCK:    0.25 KCAL/MOL
REMARK 927      BINDING AFFINITY PREDICTED BY RF-SCORE:    0.00 PKD
ROOT
HETATM    1  O5* UNL     1      -6.670  18.301  68.182  1.00  0.00    -0.203 OA 
HETATM    2  H5* UNL     1      -5.848  18.609  68.546  1.00  0.00     0.000 HD 
HETATM    3  C5* UNL     1      -7.385  19.353  67.535  1.00  0.00    -0.231 C  
ENDROOT
BRANCH   3   4
HETATM    4  C4* UNL     1      -8.706  18.857  66.951  1.00  0.00    -0.300 C  
HETATM    5  O4* UNL     1      -8.543  17.592  66.282  1.00  0.00    -0.363 OA 
HETATM    6  C1* UNL     1      -9.863  17.029  66.215  1.00  0.00    -0.294 C  
HETATM    7  H3* UNL     1     -11.351  19.639  68.683  1.00  0.00     0.000 HD 
HETATM    8  C2* UNL     1     -10.536  17.401  67.534  1.00  0.00    -0.354 C  
HETATM    9  C3* UNL     1      -9.799  18.643  67.995  1.00  0.00    -0.342 C  
HETATM   10  O3* UNL     1     -10.670  19.771  68.034  1.00  0.00    -0.368 OA 
BRANCH   6  11
HETATM   11  N   UNL     1      -9.837  15.594  65.944  1.00  0.00    -0.324 N  
HETATM   12  C   UNL     1     -10.788  13.675  64.874  1.00  0.00    -0.375 C  
HETATM   13  C   UNL     1     -10.722  15.001  65.058  1.00  0.00    -0.427 C  
HETATM   14  I   UNL     1     -12.134  12.807  63.604  1.00  0.00    -0.503 I  
HETATM   15  C   UNL     1      -9.854  12.820  65.658  1.00  0.00    -0.179 C  
HETATM   16  O   UNL     1      -9.867  11.595  65.626  1.00  0.00    -0.227 OA 
HETATM   17  N   UNL     1      -8.960  13.490  66.449  1.00  0.00    -0.466 N  
HETATM   18  C   UNL     1      -8.938  14.837  66.684  1.00  0.00    -0.255 C  
HETATM   19  H   UNL     1      -8.241  12.930  66.907  1.00  0.00     0.000 HD 
HETATM   20  O   UNL     1      -8.163  15.304  67.515  1.00  0.00    -0.150 OA 
ENDBRANCH   6  11
ENDBRANCH   3   4
TORSDOF 2
ENDMDL
MODEL       84
REMARK 921   NORMALIZED FREE ENERGY PREDICTED BY IDOCK:   -4.26 KCAL/MOL
REMARK 922        TOTAL FREE ENERGY PREDICTED BY IDOCK:   -5.07 KCAL/MOL
REMARK 923 INTER-LIGAND FREE ENERGY PREDICTED BY IDOCK:   -4.82 KCAL/MOL
REMARK 924 INTRA-LIGAND FREE ENERGY PREDICTED BY IDOCK:   -0.26 KCAL/MOL
REMARK 927      BINDING AFFINITY PREDICTED BY RF-SCORE:    0.00 PKD
ROOT
HETATM    1  O5* UNL     1     -14.149   8.945  73.138  1.00  0.00    -1.125 OA 
HETATM    2  H5* UNL     1     -14.732   8.281  73.485  1.00  0.00     0.000 HD 
HETATM    3  C5* UNL     1     -13.106   8.370  72.352  1.00  0.00    -0.234 C  
ENDROOT
BRANCH   3   4
HETATM    4  C4* UNL     1     -12.170   9.439  71.793  1.00  0.00    -0.390 C  
HETATM    5  O4* UNL     1     -11.147   8.860  70.961  1.00  0.00    -0.244 OA 
HETATM    6  C1* UNL     1     -10.666   9.943  70.149  1.00  0.00    -0.308 C  
HETATM    7  H3* UNL     1     -13.582  12.305  71.161  1.00  0.00     0.000 HD 
HETATM    8  C2* UNL     1     -11.895  10.781  69.811  1.00  0.00    -0.409 C  
HETATM    9  C3* UNL     1     -12.873  10.484  70.931  1.00  0.00    -0.394 C  
HETATM   10  O3* UNL     1     -13.145  11.655  71.698  1.00  0.00    -0.445 OA 
BRANCH   6  11
HETATM   11  N   UNL     1      -9.928   9.468  68.981  1.00  0.00    -0.174 N  
HETATM   12  C   UNL     1      -9.197   7.660  67.593  1.00  0.00    -0.135 C  
HETATM   13  C   UNL     1      -9.949   8.138  68.593  1.00  0.00    -0.190 C  
HETATM   14  I   UNL     1      -9.196   5.685  67.065  1.00  0.00    -0.141 I  
HETATM   15  C   UNL     1      -8.315   8.618  66.871  1.00  0.00    -0.108 C  
HETATM   16  O   UNL     1      -7.533   8.287  65.986  1.00  0.00    -0.075 OA 
HETATM   17  N   UNL     1      -8.414   9.926  67.263  1.00  0.00    -0.121 N  
HETATM   18  C   UNL     1      -9.132  10.399  68.326  1.00  0.00    -0.145 C  
HETATM   19  H   UNL     1      -7.903  10.612  66.709  1.00  0.00     0.000 HD 
HETATM   20  O   UNL     1      -9.040  11.580  68.654  1.00  0.00    -0.178 OA 
ENDBRANCH   6  11
ENDBRANCH   3   4
TORSDOF 2
ENDMDL
MODEL       85
REMARK 921   NORMALIZED FREE ENERGY PREDICTED BY IDOCK:   -4.25 KCAL/MOL
REMARK 922        TOTAL FREE ENERGY PREDICTED BY IDOCK:   -5.06 KCAL/MOL
REMARK 923 INTER-LIGAND FREE ENERGY PREDICTED BY IDOCK:   -4.77 KCAL/MOL
REMARK 924 INTRA-LIGAND FREE ENERGY PREDICTED BY IDOCK:   -0.29 KCAL/MOL
REMARK 927      BINDING AFFINITY PREDICTED BY RF-SCORE:    0.00 PKD
ROOT
HETATM    1  O5* UNL     1     -11.114  16.806  69.849  1.00  0.00    -0.423 OA 
HETATM    2  H5* UNL     1     -10.607  17.459  70.315  1.00  0.00     0.000 HD 
HETATM    3  C5* UNL     1     -10.952  15.508  70.421  1.00  0.00    -0.339 C  
ENDROOT
BRANCH   3   4
HETATM    4  C4* UNL     1     -11.768  14.458  69.671  1.00  0.00    -0.309 C  
HETATM    5  O4* UNL     1     -11.173  14.139  68.399  1.00  0.00    -0.244 OA 
HETATM    6  C1* UNL     1     -11.723  12.863  68.036  1.00  0.00    -0.356 C  
HETATM    7  H3* UNL     1     -13.234  12.251  71.565  1.00  0.00     0.000 HD 
HETATM    8  C2* UNL     1     -11.820  12.072  69.338  1.00  0.00    -0.384 C  
HETATM    9  C3* UNL     1     -11.901  13.133  70.417  1.00  0.00    -0.180 C  
HETATM   10  O3* UNL     1     -13.151  13.075  71.100  1.00  0.00    -0.230 OA 
BRANCH   6  11
HETATM   11  N   UNL     1     -10.939  12.203  66.995  1.00  0.00    -0.257 N  
HETATM   12  C   UNL     1      -8.861  11.283  66.242  1.00  0.00    -0.191 C  
HETATM   13  C   UNL     1      -9.634  11.792  67.211  1.00  0.00    -0.176 C  
HETATM   14  I   UNL     1      -6.919  10.730  66.560  1.00  0.00    -0.113 I  
HETATM   15  C   UNL     1      -9.453  11.152  64.882  1.00  0.00    -0.219 C  
HETATM   16  O   UNL     1      -8.825  10.766  63.902  1.00  0.00    -0.173 OA 
HETATM   17  N   UNL     1     -10.771  11.506  64.772  1.00  0.00    -0.301 N  
HETATM   18  C   UNL     1     -11.536  12.085  65.746  1.00  0.00    -0.290 C  
HETATM   19  H   UNL     1     -11.225  11.319  63.878  1.00  0.00     0.000 HD 
HETATM   20  O   UNL     1     -12.673  12.473  65.486  1.00  0.00    -0.583 OA 
ENDBRANCH   6  11
ENDBRANCH   3   4
TORSDOF 2
ENDMDL
MODEL       86
REMARK 921   NORMALIZED FREE ENERGY PREDICTED BY IDOCK:   -4.22 KCAL/MOL
REMARK 922        TOTAL FREE ENERGY PREDICTED BY IDOCK:   -5.04 KCAL/MOL
REMARK 923 INTER-LIGAND FREE ENERGY PREDICTED BY IDOCK:   -5.42 KCAL/MOL
REMARK 924 INTRA-LIGAND FREE ENERGY PREDICTED BY IDOCK:    0.38 KCAL/MOL
REMARK 927      BINDING AFFINITY PREDICTED BY RF-SCORE:    0.00 PKD
ROOT
HETATM    1  O5* UNL     1     -13.102  11.955  63.393  1.00  0.00    -0.710 OA 
HETATM    2  H5* UNL     1     -13.787  11.563  62.865  1.00  0.00     0.000 HD 
HETATM    3  C5* UNL     1     -11.809  11.497  63.001  1.00  0.00     0.302 C  
ENDROOT
BRANCH   3   4
HETATM    4  C4* UNL     1     -10.708  12.126  63.851  1.00  0.00    -0.407 C  
HETATM    5  O4* UNL     1     -11.202  13.252  64.602  1.00  0.00    -0.320 OA 
HETATM    6  C1* UNL     1     -10.259  13.434  65.670  1.00  0.00    -0.292 C  
HETATM    7  H3* UNL     1      -8.503  10.029  65.011  1.00  0.00     0.000 HD 
HETATM    8  C2* UNL     1      -9.847  12.029  66.099  1.00  0.00    -0.255 C  
HETATM    9  C3* UNL     1     -10.099  11.172  64.875  1.00  0.00    -0.289 C  
HETATM   10  O3* UNL     1      -8.882  10.623  64.374  1.00  0.00    -0.190 OA 
BRANCH   6  11
HETATM   11  N   UNL     1     -10.803  14.253  66.750  1.00  0.00    -0.295 N  
HETATM   12  C   UNL     1     -10.721  16.243  68.078  1.00  0.00    -0.331 C  
HETATM   13  C   UNL     1     -10.313  15.519  67.027  1.00  0.00    -0.279 C  
HETATM   14  I   UNL     1      -9.951  18.088  68.507  1.00  0.00    -0.372 I  
HETATM   15  C   UNL     1     -11.754  15.648  68.970  1.00  0.00    -0.395 C  
HETATM   16  O   UNL     1     -12.155  16.184  69.997  1.00  0.00    -0.212 OA 
HETATM   17  N   UNL     1     -12.242  14.430  68.581  1.00  0.00    -0.575 N  
HETATM   18  C   UNL     1     -11.777  13.665  67.547  1.00  0.00    -0.371 C  
HETATM   19  H   UNL     1     -13.027  14.056  69.114  1.00  0.00     0.000 HD 
HETATM   20  O   UNL     1     -12.216  12.530  67.375  1.00  0.00    -0.430 OA 
ENDBRANCH   6  11
ENDBRANCH   3   4
TORSDOF 2
ENDMDL
MODEL       87
REMARK 921   NORMALIZED FREE ENERGY PREDICTED BY IDOCK:   -4.21 KCAL/MOL
REMARK 922        TOTAL FREE ENERGY PREDICTED BY IDOCK:   -5.02 KCAL/MOL
REMARK 923 INTER-LIGAND FREE ENERGY PREDICTED BY IDOCK:   -4.62 KCAL/MOL
REMARK 924 INTRA-LIGAND FREE ENERGY PREDICTED BY IDOCK:   -0.40 KCAL/MOL
REMARK 927      BINDING AFFINITY PREDICTED BY RF-SCORE:    0.00 PKD
ROOT
HETATM    1  O5* UNL     1     -12.988  15.761  71.702  1.00  0.00    -0.464 OA 
HETATM    2  H5* UNL     1     -13.811  15.605  72.149  1.00  0.00     0.000 HD 
HETATM    3  C5* UNL     1     -12.706  14.735  70.750  1.00  0.00    -0.362 C  
ENDROOT
BRANCH   3   4
HETATM    4  C4* UNL     1     -11.383  14.986  70.031  1.00  0.00    -0.273 C  
HETATM    5  O4* UNL     1     -11.029  13.879  69.180  1.00  0.00    -0.245 OA 
HETATM    6  C1* UNL     1     -10.083  14.414  68.241  1.00  0.00    -0.239 C  
HETATM    7  H3* UNL     1     -10.813  18.096  69.252  1.00  0.00     0.000 HD 
HETATM    8  C2* UNL     1     -10.573  15.824  67.922  1.00  0.00    -0.282 C  
HETATM    9  C3* UNL     1     -11.394  16.220  69.133  1.00  0.00    -0.291 C  
HETATM   10  O3* UNL     1     -10.806  17.328  69.811  1.00  0.00    -0.035 OA 
BRANCH   6  11
HETATM   11  N   UNL     1      -9.927  13.558  67.069  1.00  0.00    -0.243 N  
HETATM   12  C   UNL     1     -10.812  12.656  65.035  1.00  0.00    -0.290 C  
HETATM   13  C   UNL     1     -10.881  13.511  66.064  1.00  0.00    -0.278 C  
HETATM   14  I   UNL     1     -12.253  12.560  63.588  1.00  0.00    -0.517 I  
HETATM   15  C   UNL     1      -9.647  11.730  64.980  1.00  0.00    -0.130 C  
HETATM   16  O   UNL     1      -9.511  10.860  64.128  1.00  0.00    -0.224 OA 
HETATM   17  N   UNL     1      -8.712  11.895  65.966  1.00  0.00    -0.400 N  
HETATM   18  C   UNL     1      -8.817  12.723  67.050  1.00  0.00    -0.213 C  
HETATM   19  H   UNL     1      -7.855  11.348  65.884  1.00  0.00     0.000 HD 
HETATM   20  O   UNL     1      -7.964  12.689  67.934  1.00  0.00    -0.131 OA 
ENDBRANCH   6  11
ENDBRANCH   3   4
TORSDOF 2
ENDMDL
MODEL       88
REMARK 921   NORMALIZED FREE ENERGY PREDICTED BY IDOCK:   -4.20 KCAL/MOL
REMARK 922        TOTAL FREE ENERGY PREDICTED BY IDOCK:   -5.02 KCAL/MOL
REMARK 923 INTER-LIGAND FREE ENERGY PREDICTED BY IDOCK:   -4.79 KCAL/MOL
REMARK 924 INTRA-LIGAND FREE ENERGY PREDICTED BY IDOCK:   -0.23 KCAL/MOL
REMARK 927      BINDING AFFINITY PREDICTED BY RF-SCORE:    0.00 PKD
ROOT
HETATM    1  O5* UNL     1      -9.381   9.689  63.656  1.00  0.00    -0.403 OA 
HETATM    2  H5* UNL     1      -8.994   9.248  62.910  1.00  0.00     0.000 HD 
HETATM    3  C5* UNL     1     -10.286  10.715  63.248  1.00  0.00    -0.073 C  
ENDROOT
BRANCH   3   4
HETATM    4  C4* UNL     1     -10.908  11.425  64.448  1.00  0.00    -0.330 C  
HETATM    5  O4* UNL     1      -9.908  11.800  65.414  1.00  0.00    -0.229 OA 
HETATM    6  C1* UNL     1     -10.518  12.833  66.205  1.00  0.00    -0.267 C  
HETATM    7  H3* UNL     1     -13.509  13.260  63.759  1.00  0.00     0.000 HD 
HETATM    8  C2* UNL     1     -11.348  13.662  65.229  1.00  0.00    -0.306 C  
HETATM    9  C3* UNL     1     -11.649  12.710  64.088  1.00  0.00    -0.394 C  
HETATM   10  O3* UNL     1     -13.048  12.460  63.984  1.00  0.00    -0.763 OA 
BRANCH   6  11
HETATM   11  N   UNL     1      -9.532  13.607  66.955  1.00  0.00    -0.253 N  
HETATM   12  C   UNL     1      -8.124  15.534  67.140  1.00  0.00    -0.216 C  
HETATM   13  C   UNL     1      -9.104  14.854  66.530  1.00  0.00    -0.277 C  
HETATM   14  I   UNL     1      -7.464  17.350  66.472  1.00  0.00    -0.363 I  
HETATM   15  C   UNL     1      -7.486  14.909  68.332  1.00  0.00    -0.115 C  
HETATM   16  O   UNL     1      -6.536  15.402  68.930  1.00  0.00    -0.104 OA 
HETATM   17  N   UNL     1      -8.020  13.714  68.732  1.00  0.00    -0.305 N  
HETATM   18  C   UNL     1      -8.975  12.993  68.070  1.00  0.00    -0.199 C  
HETATM   19  H   UNL     1      -7.674  13.325  69.608  1.00  0.00     0.000 HD 
HETATM   20  O   UNL     1      -9.284  11.871  68.465  1.00  0.00    -0.193 OA 
ENDBRANCH   6  11
ENDBRANCH   3   4
TORSDOF 2
ENDMDL
MODEL       89
REMARK 921   NORMALIZED FREE ENERGY PREDICTED BY IDOCK:   -4.19 KCAL/MOL
REMARK 922        TOTAL FREE ENERGY PREDICTED BY IDOCK:   -5.00 KCAL/MOL
REMARK 923 INTER-LIGAND FREE ENERGY PREDICTED BY IDOCK:   -4.55 KCAL/MOL
REMARK 924 INTRA-LIGAND FREE ENERGY PREDICTED BY IDOCK:   -0.46 KCAL/MOL
REMARK 927      BINDING AFFINITY PREDICTED BY RF-SCORE:    0.00 PKD
ROOT
HETATM    1  O5* UNL     1      -6.630   8.765  70.331  1.00  0.00    -0.038 OA 
HETATM    2  H5* UNL     1      -5.720   8.882  70.577  1.00  0.00     0.000 HD 
HETATM    3  C5* UNL     1      -7.296  10.017  70.172  1.00  0.00    -0.163 C  
ENDROOT
BRANCH   3   4
HETATM    4  C4* UNL     1      -8.759   9.829  69.775  1.00  0.00    -0.212 C  
HETATM    5  O4* UNL     1      -9.145  10.747  68.735  1.00  0.00    -0.165 OA 
HETATM    6  C1* UNL     1     -10.319  10.171  68.142  1.00  0.00    -0.185 C  
HETATM    7  H3* UNL     1      -9.842   6.762  69.949  1.00  0.00     0.000 HD 
HETATM    8  C2* UNL     1     -10.076   8.664  68.128  1.00  0.00    -0.236 C  
HETATM    9  C3* UNL     1      -9.078   8.433  69.245  1.00  0.00    -0.150 C  
HETATM   10  O3* UNL     1      -9.643   7.630  70.279  1.00  0.00    -0.171 OA 
BRANCH   6  11
HETATM   11  N   UNL     1     -10.608  10.740  66.829  1.00  0.00    -0.255 N  
HETATM   12  C   UNL     1     -10.106  10.912  64.494  1.00  0.00    -0.341 C  
HETATM   13  C   UNL     1      -9.935  10.330  65.689  1.00  0.00    -0.280 C  
HETATM   14  I   UNL     1      -9.068  10.333  62.831  1.00  0.00    -0.366 I  
HETATM   15  C   UNL     1     -11.073  12.041  64.406  1.00  0.00    -0.342 C  
HETATM   16  O   UNL     1     -11.262  12.694  63.386  1.00  0.00    -0.467 OA 
HETATM   17  N   UNL     1     -11.753  12.331  65.558  1.00  0.00    -0.386 N  
HETATM   18  C   UNL     1     -11.529  11.779  66.789  1.00  0.00    -0.281 C  
HETATM   19  H   UNL     1     -12.497  13.024  65.491  1.00  0.00     0.000 HD 
HETATM   20  O   UNL     1     -12.121  12.214  67.775  1.00  0.00    -0.508 OA 
ENDBRANCH   6  11
ENDBRANCH   3   4
TORSDOF 2
ENDMDL
MODEL       90
REMARK 921   NORMALIZED FREE ENERGY PREDICTED BY IDOCK:   -4.18 KCAL/MOL
REMARK 922        TOTAL FREE ENERGY PREDICTED BY IDOCK:   -4.99 KCAL/MOL
REMARK 923 INTER-LIGAND FREE ENERGY PREDICTED BY IDOCK:   -5.32 KCAL/MOL
REMARK 924 INTRA-LIGAND FREE ENERGY PREDICTED BY IDOCK:    0.33 KCAL/MOL
REMARK 927      BINDING AFFINITY PREDICTED BY RF-SCORE:    0.00 PKD
ROOT
HETATM    1  O5* UNL     1     -14.169   8.949  73.562  1.00  0.00    -1.194 OA 
HETATM    2  H5* UNL     1     -14.969   8.953  74.073  1.00  0.00     0.000 HD 
HETATM    3  C5* UNL     1     -14.353   8.300  72.304  1.00  0.00    -0.335 C  
ENDROOT
BRANCH   3   4
HETATM    4  C4* UNL     1     -13.066   8.294  71.482  1.00  0.00    -0.293 C  
HETATM    5  O4* UNL     1     -13.137   9.226  70.387  1.00  0.00     0.334 OA 
HETATM    6  C1* UNL     1     -11.772   9.472  70.014  1.00  0.00     0.018 C  
HETATM    7  H3* UNL     1     -10.349   7.744  73.192  1.00  0.00     0.000 HD 
HETATM    8  C2* UNL     1     -10.988   9.501  71.322  1.00  0.00    -0.440 C  
HETATM    9  C3* UNL     1     -11.823   8.677  72.281  1.00  0.00    -0.366 C  
HETATM   10  O3* UNL     1     -11.123   7.506  72.695  1.00  0.00    -0.292 OA 
BRANCH   6  11
HETATM   11  N   UNL     1     -11.632  10.682  69.208  1.00  0.00    -0.278 N  
HETATM   12  C   UNL     1     -10.974  11.739  67.162  1.00  0.00    -0.276 C  
HETATM   13  C   UNL     1     -11.213  10.637  67.887  1.00  0.00    -0.308 C  
HETATM   14  I   UNL     1     -10.305  11.660  65.232  1.00  0.00    -0.355 I  
HETATM   15  C   UNL     1     -11.184  13.059  67.819  1.00  0.00    -0.279 C  
HETATM   16  O   UNL     1     -10.933  14.132  67.281  1.00  0.00    -0.288 OA 
HETATM   17  N   UNL     1     -11.674  13.015  69.096  1.00  0.00    -0.310 N  
HETATM   18  C   UNL     1     -11.854  11.891  69.855  1.00  0.00    -0.343 C  
HETATM   19  H   UNL     1     -11.928  13.905  69.523  1.00  0.00     0.000 HD 
HETATM   20  O   UNL     1     -12.183  11.991  71.035  1.00  0.00    -0.311 OA 
ENDBRANCH   6  11
ENDBRANCH   3   4
TORSDOF 2
ENDMDL
MODEL       91
REMARK 921   NORMALIZED FREE ENERGY PREDICTED BY IDOCK:   -4.17 KCAL/MOL
REMARK 922        TOTAL FREE ENERGY PREDICTED BY IDOCK:   -4.98 KCAL/MOL
REMARK 923 INTER-LIGAND FREE ENERGY PREDICTED BY IDOCK:   -4.67 KCAL/MOL
REMARK 924 INTRA-LIGAND FREE ENERGY PREDICTED BY IDOCK:   -0.32 KCAL/MOL
REMARK 927      BINDING AFFINITY PREDICTED BY RF-SCORE:    0.00 PKD
ROOT
HETATM    1  O5* UNL     1     -11.422  16.895  72.383  1.00  0.00    -0.253 OA 
HETATM    2  H5* UNL     1     -11.665  16.874  73.301  1.00  0.00     0.000 HD 
HETATM    3  C5* UNL     1     -12.035  15.832  71.654  1.00  0.00    -0.454 C  
ENDROOT
BRANCH   3   4
HETATM    4  C4* UNL     1     -11.643  15.866  70.178  1.00  0.00    -0.351 C  
HETATM    5  O4* UNL     1     -11.060  17.132  69.818  1.00  0.00     0.082 OA 
HETATM    6  C1* UNL     1     -10.326  16.878  68.609  1.00  0.00    -0.332 C  
HETATM    7  H3* UNL     1     -10.636  13.019  68.961  1.00  0.00     0.000 HD 
HETATM    8  C2* UNL     1      -9.715  15.490  68.784  1.00  0.00    -0.213 C  
HETATM    9  C3* UNL     1     -10.619  14.803  69.788  1.00  0.00    -0.112 C  
HETATM   10  O3* UNL     1     -11.273  13.680  69.203  1.00  0.00    -0.256 OA 
BRANCH   6  11
HETATM   11  N   UNL     1      -9.351  17.927  68.326  1.00  0.00    -0.278 N  
HETATM   12  C   UNL     1      -7.168  18.859  68.636  1.00  0.00    -0.302 C  
HETATM   13  C   UNL     1      -8.048  17.861  68.791  1.00  0.00    -0.232 C  
HETATM   14  I   UNL     1      -5.264  18.771  69.375  1.00  0.00    -0.222 I  
HETATM   15  C   UNL     1      -7.627  20.082  67.921  1.00  0.00    -0.290 C  
HETATM   16  O   UNL     1      -6.937  21.085  67.779  1.00  0.00    -0.307 OA 
HETATM   17  N   UNL     1      -8.902  20.035  67.425  1.00  0.00    -0.335 N  
HETATM   18  C   UNL     1      -9.818  19.042  67.640  1.00  0.00    -0.332 C  
HETATM   19  H   UNL     1      -9.197  20.814  66.837  1.00  0.00     0.000 HD 
HETATM   20  O   UNL     1     -10.973  19.174  67.244  1.00  0.00    -0.478 OA 
ENDBRANCH   6  11
ENDBRANCH   3   4
TORSDOF 2
ENDMDL
MODEL       92
REMARK 921   NORMALIZED FREE ENERGY PREDICTED BY IDOCK:   -4.17 KCAL/MOL
REMARK 922        TOTAL FREE ENERGY PREDICTED BY IDOCK:   -4.97 KCAL/MOL
REMARK 923 INTER-LIGAND FREE ENERGY PREDICTED BY IDOCK:   -4.77 KCAL/MOL
REMARK 924 INTRA-LIGAND FREE ENERGY PREDICTED BY IDOCK:   -0.20 KCAL/MOL
REMARK 927      BINDING AFFINITY PREDICTED BY RF-SCORE:    0.00 PKD
ROOT
HETATM    1  O5* UNL     1     -10.437  17.760  69.288  1.00  0.00    -0.426 OA 
HETATM    2  H5* UNL     1      -9.732  18.291  69.639  1.00  0.00     0.000 HD 
HETATM    3  C5* UNL     1     -10.458  16.460  69.877  1.00  0.00    -0.201 C  
ENDROOT
BRANCH   3   4
HETATM    4  C4* UNL     1     -11.592  15.607  69.314  1.00  0.00    -0.366 C  
HETATM    5  O4* UNL     1     -11.101  14.639  68.367  1.00  0.00    -0.241 OA 
HETATM    6  C1* UNL     1     -12.126  13.635  68.291  1.00  0.00    -0.271 C  
HETATM    7  H3* UNL     1     -14.018  15.000  71.400  1.00  0.00     0.000 HD 
HETATM    8  C2* UNL     1     -12.660  13.484  69.712  1.00  0.00    -0.016 C  
HETATM    9  C3* UNL     1     -12.350  14.812  70.374  1.00  0.00    -0.344 C  
HETATM   10  O3* UNL     1     -13.547  15.494  70.740  1.00  0.00    -0.487 OA 
BRANCH   6  11
HETATM   11  N   UNL     1     -11.634  12.391  67.704  1.00  0.00    -0.338 N  
HETATM   12  C   UNL     1     -10.778  10.172  67.979  1.00  0.00    -0.260 C  
HETATM   13  C   UNL     1     -11.331  11.285  68.481  1.00  0.00    -0.276 C  
HETATM   14  I   UNL     1     -10.285   8.567  69.145  1.00  0.00    -0.199 I  
HETATM   15  C   UNL     1     -10.494  10.139  66.518  1.00  0.00    -0.166 C  
HETATM   16  O   UNL     1      -9.929   9.207  65.957  1.00  0.00    -0.291 OA 
HETATM   17  N   UNL     1     -10.896  11.240  65.810  1.00  0.00    -0.234 N  
HETATM   18  C   UNL     1     -11.400  12.398  66.335  1.00  0.00    -0.342 C  
HETATM   19  H   UNL     1     -10.813  11.191  64.795  1.00  0.00     0.000 HD 
HETATM   20  O   UNL     1     -11.608  13.365  65.605  1.00  0.00    -0.313 OA 
ENDBRANCH   6  11
ENDBRANCH   3   4
TORSDOF 2
ENDMDL
MODEL       93
REMARK 921   NORMALIZED FREE ENERGY PREDICTED BY IDOCK:   -4.16 KCAL/MOL
REMARK 922        TOTAL FREE ENERGY PREDICTED BY IDOCK:   -4.96 KCAL/MOL
REMARK 923 INTER-LIGAND FREE ENERGY PREDICTED BY IDOCK:   -4.71 KCAL/MOL
REMARK 924 INTRA-LIGAND FREE ENERGY PREDICTED BY IDOCK:   -0.26 KCAL/MOL
REMARK 927      BINDING AFFINITY PREDICTED BY RF-SCORE:    0.00 PKD
ROOT
HETATM    1  O5* UNL     1     -14.222   6.345  72.340  1.00  0.00    -0.647 OA 
HETATM    2  H5* UNL     1     -14.507   5.446  72.227  1.00  0.00     0.000 HD 
HETATM    3  C5* UNL     1     -12.849   6.509  71.987  1.00  0.00    -0.041 C  
ENDROOT
BRANCH   3   4
HETATM    4  C4* UNL     1     -12.391   7.955  72.169  1.00  0.00    -0.291 C  
HETATM    5  O4* UNL     1     -11.243   8.250  71.352  1.00  0.00    -0.241 OA 
HETATM    6  C1* UNL     1     -11.218   9.682  71.243  1.00  0.00    -0.376 C  
HETATM    7  H3* UNL     1     -14.785  10.090  72.733  1.00  0.00     0.000 HD 
HETATM    8  C2* UNL     1     -12.678  10.112  71.135  1.00  0.00    -0.494 C  
HETATM    9  C3* UNL     1     -13.451   8.988  71.796  1.00  0.00    -0.411 C  
HETATM   10  O3* UNL     1     -14.125   9.447  72.965  1.00  0.00    -0.310 OA 
BRANCH   6  11
HETATM   11  N   UNL     1     -10.380  10.134  70.135  1.00  0.00    -0.263 N  
HETATM   12  C   UNL     1     -10.184  11.090  67.949  1.00  0.00    -0.182 C  
HETATM   13  C   UNL     1     -10.916  10.764  69.022  1.00  0.00    -0.240 C  
HETATM   14  I   UNL     1     -10.995  11.971  66.292  1.00  0.00    -0.380 I  
HETATM   15  C   UNL     1      -8.732  10.763  67.975  1.00  0.00    -0.132 C  
HETATM   16  O   UNL     1      -7.976  10.950  67.027  1.00  0.00    -0.122 OA 
HETATM   17  N   UNL     1      -8.269  10.215  69.140  1.00  0.00    -0.133 N  
HETATM   18  C   UNL     1      -9.029   9.823  70.208  1.00  0.00    -0.150 C  
HETATM   19  H   UNL     1      -7.261  10.086  69.220  1.00  0.00     0.000 HD 
HETATM   20  O   UNL     1      -8.509   9.227  71.148  1.00  0.00    -0.294 OA 
ENDBRANCH   6  11
ENDBRANCH   3   4
TORSDOF 2
ENDMDL
MODEL       94
REMARK 921   NORMALIZED FREE ENERGY PREDICTED BY IDOCK:   -4.15 KCAL/MOL
REMARK 922        TOTAL FREE ENERGY PREDICTED BY IDOCK:   -4.95 KCAL/MOL
REMARK 923 INTER-LIGAND FREE ENERGY PREDICTED BY IDOCK:   -4.68 KCAL/MOL
REMARK 924 INTRA-LIGAND FREE ENERGY PREDICTED BY IDOCK:   -0.27 KCAL/MOL
REMARK 927      BINDING AFFINITY PREDICTED BY RF-SCORE:    0.00 PKD
ROOT
HETATM    1  O5* UNL     1     -11.259   6.403  66.722  1.00  0.00    -0.681 OA 
HETATM    2  H5* UNL     1     -11.378   5.467  66.620  1.00  0.00     0.000 HD 
HETATM    3  C5* UNL     1      -9.905   6.788  66.486  1.00  0.00    -0.104 C  
ENDROOT
BRANCH   3   4
HETATM    4  C4* UNL     1      -9.713   8.294  66.651  1.00  0.00    -0.251 C  
HETATM    5  O4* UNL     1     -10.768   8.876  67.439  1.00  0.00    -0.272 OA 
HETATM    6  C1* UNL     1     -10.240  10.126  67.910  1.00  0.00    -0.180 C  
HETATM    7  H3* UNL     1      -6.610   9.272  66.812  1.00  0.00     0.000 HD 
HETATM    8  C2* UNL     1      -8.769   9.861  68.219  1.00  0.00    -0.119 C  
HETATM    9  C3* UNL     1      -8.408   8.677  67.345  1.00  0.00    -0.116 C  
HETATM   10  O3* UNL     1      -7.422   9.034  66.380  1.00  0.00    -0.090 OA 
BRANCH   6  11
HETATM   11  N   UNL     1     -11.001  10.655  69.039  1.00  0.00    -0.229 N  
HETATM   12  C   UNL     1     -12.499  10.294  70.872  1.00  0.00    -0.370 C  
HETATM   13  C   UNL     1     -11.708   9.827  69.896  1.00  0.00    -0.018 C  
HETATM   14  I   UNL     1     -13.579   9.064  72.096  1.00  0.00    -0.521 I  
HETATM   15  C   UNL     1     -12.601  11.771  71.032  1.00  0.00    -0.310 C  
HETATM   16  O   UNL     1     -13.343  12.317  71.841  1.00  0.00    -0.463 OA 
HETATM   17  N   UNL     1     -11.810  12.514  70.197  1.00  0.00    -0.510 N  
HETATM   18  C   UNL     1     -11.055  12.037  69.161  1.00  0.00    -0.215 C  
HETATM   19  H   UNL     1     -11.781  13.519  70.364  1.00  0.00     0.000 HD 
HETATM   20  O   UNL     1     -10.486  12.819  68.404  1.00  0.00    -0.233 OA 
ENDBRANCH   6  11
ENDBRANCH   3   4
TORSDOF 2
ENDMDL
MODEL       95
REMARK 921   NORMALIZED FREE ENERGY PREDICTED BY IDOCK:   -4.14 KCAL/MOL
REMARK 922        TOTAL FREE ENERGY PREDICTED BY IDOCK:   -4.94 KCAL/MOL
REMARK 923 INTER-LIGAND FREE ENERGY PREDICTED BY IDOCK:   -4.63 KCAL/MOL
REMARK 924 INTRA-LIGAND FREE ENERGY PREDICTED BY IDOCK:   -0.31 KCAL/MOL
REMARK 927      BINDING AFFINITY PREDICTED BY RF-SCORE:    0.00 PKD
ROOT
HETATM    1  O5* UNL     1      -6.294  10.872  63.602  1.00  0.00    -0.356 OA 
HETATM    2  H5* UNL     1      -5.357  11.024  63.568  1.00  0.00     0.000 HD 
HETATM    3  C5* UNL     1      -6.613   9.745  64.417  1.00  0.00    -0.118 C  
ENDROOT
BRANCH   3   4
HETATM    4  C4* UNL     1      -8.120   9.502  64.472  1.00  0.00    -0.142 C  
HETATM    5  O4* UNL     1      -8.616   9.577  65.822  1.00  0.00    -0.129 OA 
HETATM    6  C1* UNL     1     -10.027   9.811  65.692  1.00  0.00    -0.282 C  
HETATM    7  H3* UNL     1      -9.780  10.593  61.892  1.00  0.00     0.000 HD 
HETATM    8  C2* UNL     1     -10.179  10.753  64.500  1.00  0.00    -0.428 C  
HETATM    9  C3* UNL     1      -8.936  10.510  63.667  1.00  0.00    -0.218 C  
HETATM   10  O3* UNL     1      -9.272   9.966  62.393  1.00  0.00    -0.278 OA 
BRANCH   6  11
HETATM   11  N   UNL     1     -10.618  10.315  66.929  1.00  0.00    -0.238 N  
HETATM   12  C   UNL     1     -11.367  12.158  68.261  1.00  0.00    -0.289 C  
HETATM   13  C   UNL     1     -10.926  11.655  67.100  1.00  0.00    -0.280 C  
HETATM   14  I   UNL     1     -11.768  14.146  68.517  1.00  0.00    -0.356 I  
HETATM   15  C   UNL     1     -11.536  11.217  69.403  1.00  0.00    -0.321 C  
HETATM   16  O   UNL     1     -11.866  11.570  70.530  1.00  0.00    -0.346 OA 
HETATM   17  N   UNL     1     -11.286   9.900  69.128  1.00  0.00    -0.442 N  
HETATM   18  C   UNL     1     -10.774   9.400  67.962  1.00  0.00    -0.190 C  
HETATM   19  H   UNL     1     -11.502   9.227  69.862  1.00  0.00     0.000 HD 
HETATM   20  O   UNL     1     -10.476   8.211  67.881  1.00  0.00    -0.222 OA 
ENDBRANCH   6  11
ENDBRANCH   3   4
TORSDOF 2
ENDMDL
MODEL       96
REMARK 921   NORMALIZED FREE ENERGY PREDICTED BY IDOCK:   -4.12 KCAL/MOL
REMARK 922        TOTAL FREE ENERGY PREDICTED BY IDOCK:   -4.92 KCAL/MOL
REMARK 923 INTER-LIGAND FREE ENERGY PREDICTED BY IDOCK:   -4.61 KCAL/MOL
REMARK 924 INTRA-LIGAND FREE ENERGY PREDICTED BY IDOCK:   -0.30 KCAL/MOL
REMARK 927      BINDING AFFINITY PREDICTED BY RF-SCORE:    0.00 PKD
ROOT
HETATM    1  O5* UNL     1     -11.603   4.692  65.305  1.00  0.00    -1.093 OA 
HETATM    2  H5* UNL     1     -12.054   3.884  65.088  1.00  0.00     0.000 HD 
HETATM    3  C5* UNL     1     -10.244   4.453  65.667  1.00  0.00    -0.238 C  
ENDROOT
BRANCH   3   4
HETATM    4  C4* UNL     1      -9.519   5.751  66.015  1.00  0.00    -0.086 C  
HETATM    5  O4* UNL     1     -10.348   6.619  66.812  1.00  0.00    -0.219 OA 
HETATM    6  C1* UNL     1      -9.436   7.527  67.451  1.00  0.00    -0.142 C  
HETATM    7  H3* UNL     1      -6.305   5.455  66.444  1.00  0.00     0.000 HD 
HETATM    8  C2* UNL     1      -8.205   6.695  67.800  1.00  0.00    -0.119 C  
HETATM    9  C3* UNL     1      -8.235   5.545  66.814  1.00  0.00    -0.105 C  
HETATM   10  O3* UNL     1      -7.104   5.583  65.947  1.00  0.00    -0.065 OA 
BRANCH   6  11
HETATM   11  N   UNL     1     -10.043   8.203  68.594  1.00  0.00    -0.191 N  
HETATM   12  C   UNL     1     -10.694   8.187  70.898  1.00  0.00    -0.221 C  
HETATM   13  C   UNL     1     -10.051   7.637  69.859  1.00  0.00    -0.198 C  
HETATM   14  I   UNL     1     -10.743   7.315  72.747  1.00  0.00    -0.442 I  
HETATM   15  C   UNL     1     -11.419   9.466  70.665  1.00  0.00    -0.284 C  
HETATM   16  O   UNL     1     -12.098  10.027  71.518  1.00  0.00    -0.381 OA 
HETATM   17  N   UNL     1     -11.295   9.998  69.409  1.00  0.00    -0.395 N  
HETATM   18  C   UNL     1     -10.693   9.403  68.335  1.00  0.00    -0.168 C  
HETATM   19  H   UNL     1     -11.690  10.926  69.261  1.00  0.00     0.000 HD 
HETATM   20  O   UNL     1     -10.757   9.927  67.226  1.00  0.00    -0.265 OA 
ENDBRANCH   6  11
ENDBRANCH   3   4
TORSDOF 2
ENDMDL
MODEL       97
REMARK 921   NORMALIZED FREE ENERGY PREDICTED BY IDOCK:   -4.10 KCAL/MOL
REMARK 922        TOTAL FREE ENERGY PREDICTED BY IDOCK:   -4.90 KCAL/MOL
REMARK 923 INTER-LIGAND FREE ENERGY PREDICTED BY IDOCK:   -4.83 KCAL/MOL
REMARK 924 INTRA-LIGAND FREE ENERGY PREDICTED BY IDOCK:   -0.07 KCAL/MOL
REMARK 927      BINDING AFFINITY PREDICTED BY RF-SCORE:    0.00 PKD
ROOT
HETATM    1  O5* UNL     1     -10.193  15.211  69.999  1.00  0.00    -0.445 OA 
HETATM    2  H5* UNL     1     -10.476  15.699  70.763  1.00  0.00     0.000 HD 
HETATM    3  C5* UNL     1     -11.303  14.778  69.213  1.00  0.00    -0.294 C  
ENDROOT
BRANCH   3   4
HETATM    4  C4* UNL     1     -10.847  13.993  67.984  1.00  0.00    -0.246 C  
HETATM    5  O4* UNL     1     -10.456  12.651  68.333  1.00  0.00    -0.228 OA 
HETATM    6  C1* UNL     1     -10.521  11.910  67.104  1.00  0.00    -0.221 C  
HETATM    7  H3* UNL     1     -12.402  14.745  65.223  1.00  0.00     0.000 HD 
HETATM    8  C2* UNL     1     -11.738  12.452  66.360  1.00  0.00    -0.453 C  
HETATM    9  C3* UNL     1     -11.923  13.853  66.910  1.00  0.00    -0.433 C  
HETATM   10  O3* UNL     1     -11.733  14.832  65.892  1.00  0.00    -0.336 OA 
BRANCH   6  11
HETATM   11  N   UNL     1     -10.555  10.468  67.333  1.00  0.00    -0.244 N  
HETATM   12  C   UNL     1     -10.634   8.617  68.849  1.00  0.00    -0.144 C  
HETATM   13  C   UNL     1     -10.708   9.932  68.601  1.00  0.00    -0.226 C  
HETATM   14  I   UNL     1     -10.808   7.842  70.733  1.00  0.00    -0.274 I  
HETATM   15  C   UNL     1     -10.387   7.708  67.696  1.00  0.00    -0.237 C  
HETATM   16  O   UNL     1     -10.232   6.497  67.807  1.00  0.00    -0.140 OA 
HETATM   17  N   UNL     1     -10.327   8.310  66.468  1.00  0.00    -0.423 N  
HETATM   18  C   UNL     1     -10.337   9.656  66.227  1.00  0.00    -0.160 C  
HETATM   19  H   UNL     1     -10.270   7.696  65.656  1.00  0.00     0.000 HD 
HETATM   20  O   UNL     1     -10.151  10.079  65.088  1.00  0.00    -0.325 OA 
ENDBRANCH   6  11
ENDBRANCH   3   4
TORSDOF 2
ENDMDL
MODEL       98
REMARK 921   NORMALIZED FREE ENERGY PREDICTED BY IDOCK:   -4.10 KCAL/MOL
REMARK 922        TOTAL FREE ENERGY PREDICTED BY IDOCK:   -4.90 KCAL/MOL
REMARK 923 INTER-LIGAND FREE ENERGY PREDICTED BY IDOCK:   -4.78 KCAL/MOL
REMARK 924 INTRA-LIGAND FREE ENERGY PREDICTED BY IDOCK:   -0.11 KCAL/MOL
REMARK 927      BINDING AFFINITY PREDICTED BY RF-SCORE:    0.00 PKD
ROOT
HETATM    1  O5* UNL     1      -7.098  11.750  66.679  1.00  0.00    -0.325 OA 
HETATM    2  H5* UNL     1      -6.203  11.455  66.792  1.00  0.00     0.000 HD 
HETATM    3  C5* UNL     1      -7.294  13.055  67.224  1.00  0.00    -0.057 C  
ENDROOT
BRANCH   3   4
HETATM    4  C4* UNL     1      -8.734  13.529  67.041  1.00  0.00    -0.187 C  
HETATM    5  O4* UNL     1      -9.607  12.952  68.030  1.00  0.00    -0.208 OA 
HETATM    6  C1* UNL     1     -10.760  13.808  68.058  1.00  0.00    -0.250 C  
HETATM    7  H3* UNL     1      -9.043  16.578  65.939  1.00  0.00     0.000 HD 
HETATM    8  C2* UNL     1     -10.224  15.226  67.880  1.00  0.00    -0.235 C  
HETATM    9  C3* UNL     1      -8.903  15.042  67.160  1.00  0.00    -0.213 C  
HETATM   10  O3* UNL     1      -8.938  15.637  65.866  1.00  0.00    -0.320 OA 
BRANCH   6  11
HETATM   11  N   UNL     1     -11.556  13.619  69.269  1.00  0.00    -0.291 N  
HETATM   12  C   UNL     1     -12.263  14.397  71.420  1.00  0.00    -0.352 C  
HETATM   13  C   UNL     1     -11.629  14.590  70.255  1.00  0.00    -0.268 C  
HETATM   14  I   UNL     1     -12.318  15.817  72.890  1.00  0.00    -0.740 I  
HETATM   15  C   UNL     1     -12.921  13.079  71.640  1.00  0.00    -0.321 C  
HETATM   16  O   UNL     1     -13.471  12.762  72.689  1.00  0.00    -0.428 OA 
HETATM   17  N   UNL     1     -12.870  12.208  70.586  1.00  0.00    -0.037 N  
HETATM   18  C   UNL     1     -12.167  12.382  69.426  1.00  0.00    -0.065 C  
HETATM   19  H   UNL     1     -13.407  11.346  70.675  1.00  0.00     0.000 HD 
HETATM   20  O   UNL     1     -12.098  11.470  68.605  1.00  0.00    -0.483 OA 
ENDBRANCH   6  11
ENDBRANCH   3   4
TORSDOF 2
ENDMDL
MODEL       99
REMARK 921   NORMALIZED FREE ENERGY PREDICTED BY IDOCK:   -4.09 KCAL/MOL
REMARK 922        TOTAL FREE ENERGY PREDICTED BY IDOCK:   -4.89 KCAL/MOL
REMARK 923 INTER-LIGAND FREE ENERGY PREDICTED BY IDOCK:   -4.44 KCAL/MOL
REMARK 924 INTRA-LIGAND FREE ENERGY PREDICTED BY IDOCK:   -0.45 KCAL/MOL
REMARK 927      BINDING AFFINITY PREDICTED BY RF-SCORE:    0.00 PKD
ROOT
HETATM    1  O5* UNL     1      -7.944   6.042  72.784  1.00  0.00    -0.106 OA 
HETATM    2  H5* UNL     1      -7.124   5.969  73.257  1.00  0.00     0.000 HD 
HETATM    3  C5* UNL     1      -8.795   7.034  73.357  1.00  0.00    -0.137 C  
ENDROOT
BRANCH   3   4
HETATM    4  C4* UNL     1     -10.114   7.150  72.597  1.00  0.00    -0.186 C  
HETATM    5  O4* UNL     1     -10.505   8.526  72.429  1.00  0.00    -0.322 OA 
HETATM    6  C1* UNL     1     -11.439   8.521  71.338  1.00  0.00    -0.287 C  
HETATM    7  H3* UNL     1     -10.596   4.862  70.330  1.00  0.00     0.000 HD 
HETATM    8  C2* UNL     1     -10.909   7.487  70.348  1.00  0.00    -0.255 C  
HETATM    9  C3* UNL     1     -10.071   6.550  71.194  1.00  0.00    -0.183 C  
HETATM   10  O3* UNL     1     -10.622   5.236  71.203  1.00  0.00    -0.228 OA 
BRANCH   6  11
HETATM   11  N   UNL     1     -11.626   9.852  70.767  1.00  0.00    -0.321 N  
HETATM   12  C   UNL     1     -10.919  11.573  69.261  1.00  0.00    -0.208 C  
HETATM   13  C   UNL     1     -10.838  10.320  69.728  1.00  0.00    -0.287 C  
HETATM   14  I   UNL     1      -9.714  12.268  67.763  1.00  0.00    -0.217 I  
HETATM   15  C   UNL     1     -11.912  12.485  69.894  1.00  0.00    -0.301 C  
HETATM   16  O   UNL     1     -12.030  13.669  69.600  1.00  0.00    -0.309 OA 
HETATM   17  N   UNL     1     -12.704  11.922  70.857  1.00  0.00    -0.262 N  
HETATM   18  C   UNL     1     -12.575  10.663  71.376  1.00  0.00    -0.421 C  
HETATM   19  H   UNL     1     -13.462  12.496  71.224  1.00  0.00     0.000 HD 
HETATM   20  O   UNL     1     -13.269  10.316  72.329  1.00  0.00    -0.409 OA 
ENDBRANCH   6  11
ENDBRANCH   3   4
TORSDOF 2
ENDMDL
MODEL      100
REMARK 921   NORMALIZED FREE ENERGY PREDICTED BY IDOCK:   -4.09 KCAL/MOL
REMARK 922        TOTAL FREE ENERGY PREDICTED BY IDOCK:   -4.89 KCAL/MOL
REMARK 923 INTER-LIGAND FREE ENERGY PREDICTED BY IDOCK:   -5.18 KCAL/MOL
REMARK 924 INTRA-LIGAND FREE ENERGY PREDICTED BY IDOCK:    0.30 KCAL/MOL
REMARK 927      BINDING AFFINITY PREDICTED BY RF-SCORE:    0.00 PKD
ROOT
HETATM    1  O5* UNL     1      -8.740  17.338  65.527  1.00  0.00    -0.253 OA 
HETATM    2  H5* UNL     1      -8.236  18.133  65.654  1.00  0.00     0.000 HD 
HETATM    3  C5* UNL     1      -8.630  16.462  66.649  1.00  0.00    -0.260 C  
ENDROOT
BRANCH   3   4
HETATM    4  C4* UNL     1      -9.441  15.184  66.444  1.00  0.00    -0.296 C  
HETATM    5  O4* UNL     1      -9.595  14.456  67.677  1.00  0.00    -0.209 OA 
HETATM    6  C1* UNL     1     -10.723  13.592  67.466  1.00  0.00    -0.259 C  
HETATM    7  H3* UNL     1     -11.777  15.390  64.184  1.00  0.00     0.000 HD 
HETATM    8  C2* UNL     1     -11.713  14.406  66.637  1.00  0.00    -0.410 C  
HETATM    9  C3* UNL     1     -10.855  15.429  65.921  1.00  0.00    -0.325 C  
HETATM   10  O3* UNL     1     -10.898  15.238  64.510  1.00  0.00    -0.315 OA 
BRANCH   6  11
HETATM   11  N   UNL     1     -11.270  13.085  68.721  1.00  0.00    -0.266 N  
HETATM   12  C   UNL     1     -11.704  11.250  70.196  1.00  0.00    -0.343 C  
HETATM   13  C   UNL     1     -11.120  11.762  69.104  1.00  0.00    -0.238 C  
HETATM   14  I   UNL     1     -11.518   9.283  70.721  1.00  0.00    -0.352 I  
HETATM   15  C   UNL     1     -12.539  12.160  71.026  1.00  0.00    -0.263 C  
HETATM   16  O   UNL     1     -13.177  11.792  72.006  1.00  0.00    -0.506 OA 
HETATM   17  N   UNL     1     -12.571  13.468  70.623  1.00  0.00    -0.305 N  
HETATM   18  C   UNL     1     -12.028  13.973  69.474  1.00  0.00    -0.339 C  
HETATM   19  H   UNL     1     -13.045  14.128  71.238  1.00  0.00     0.000 HD 
HETATM   20  O   UNL     1     -12.233  15.144  69.160  1.00  0.00    -0.246 OA 
ENDBRANCH   6  11
ENDBRANCH   3   4
TORSDOF 2
ENDMDL
MODEL      101
REMARK 921   NORMALIZED FREE ENERGY PREDICTED BY IDOCK:   -4.08 KCAL/MOL
REMARK 922        TOTAL FREE ENERGY PREDICTED BY IDOCK:   -4.88 KCAL/MOL
REMARK 923 INTER-LIGAND FREE ENERGY PREDICTED BY IDOCK:   -5.11 KCAL/MOL
REMARK 924 INTRA-LIGAND FREE ENERGY PREDICTED BY IDOCK:    0.23 KCAL/MOL
REMARK 927      BINDING AFFINITY PREDICTED BY RF-SCORE:    0.00 PKD
ROOT
HETATM    1  O5* UNL     1     -12.243  13.592  62.620  1.00  0.00    -0.744 OA 
HETATM    2  H5* UNL     1     -11.960  13.676  61.718  1.00  0.00     0.000 HD 
HETATM    3  C5* UNL     1     -11.778  12.377  63.206  1.00  0.00    -0.382 C  
ENDROOT
BRANCH   3   4
HETATM    4  C4* UNL     1     -12.234  12.242  64.657  1.00  0.00    -0.377 C  
HETATM    5  O4* UNL     1     -11.336  11.411  65.416  1.00  0.00    -0.150 OA 
HETATM    6  C1* UNL     1     -11.583  11.748  66.791  1.00  0.00    -0.210 C  
HETATM    7  H3* UNL     1     -13.701  14.879  65.883  1.00  0.00     0.000 HD 
HETATM    8  C2* UNL     1     -11.831  13.254  66.807  1.00  0.00    -0.448 C  
HETATM    9  C3* UNL     1     -12.311  13.571  65.404  1.00  0.00    -0.478 C  
HETATM   10  O3* UNL     1     -13.653  14.052  65.419  1.00  0.00    -0.593 OA 
BRANCH   6  11
HETATM   11  N   UNL     1     -10.499  11.313  67.667  1.00  0.00    -0.186 N  
HETATM   12  C   UNL     1      -9.729   9.969  69.493  1.00  0.00    -0.233 C  
HETATM   13  C   UNL     1     -10.675  10.309  68.607  1.00  0.00    -0.224 C  
HETATM   14  I   UNL     1     -10.020   8.523  70.909  1.00  0.00    -0.308 I  
HETATM   15  C   UNL     1      -8.436  10.705  69.443  1.00  0.00    -0.044 C  
HETATM   16  O   UNL     1      -7.524  10.530  70.243  1.00  0.00    -0.176 OA 
HETATM   17  N   UNL     1      -8.315  11.624  68.436  1.00  0.00    -0.154 N  
HETATM   18  C   UNL     1      -9.304  12.015  67.576  1.00  0.00    -0.179 C  
HETATM   19  H   UNL     1      -7.401  12.058  68.316  1.00  0.00     0.000 HD 
HETATM   20  O   UNL     1      -9.107  12.943  66.793  1.00  0.00    -0.225 OA 
ENDBRANCH   6  11
ENDBRANCH   3   4
TORSDOF 2
ENDMDL
MODEL      102
REMARK 921   NORMALIZED FREE ENERGY PREDICTED BY IDOCK:   -4.08 KCAL/MOL
REMARK 922        TOTAL FREE ENERGY PREDICTED BY IDOCK:   -4.87 KCAL/MOL
REMARK 923 INTER-LIGAND FREE ENERGY PREDICTED BY IDOCK:   -4.41 KCAL/MOL
REMARK 924 INTRA-LIGAND FREE ENERGY PREDICTED BY IDOCK:   -0.47 KCAL/MOL
REMARK 927      BINDING AFFINITY PREDICTED BY RF-SCORE:    0.00 PKD
ROOT
HETATM    1  O5* UNL     1      -8.835   7.258  68.434  1.00  0.00    -0.129 OA 
HETATM    2  H5* UNL     1      -8.640   6.763  69.221  1.00  0.00     0.000 HD 
HETATM    3  C5* UNL     1      -9.839   8.244  68.668  1.00  0.00    -0.176 C  
ENDROOT
BRANCH   3   4
HETATM    4  C4* UNL     1     -10.152   9.039  67.402  1.00  0.00    -0.230 C  
HETATM    5  O4* UNL     1     -10.676  10.343  67.716  1.00  0.00    -0.236 OA 
HETATM    6  C1* UNL     1     -10.473  11.125  66.529  1.00  0.00    -0.255 C  
HETATM    7  H3* UNL     1      -8.152   8.469  64.897  1.00  0.00     0.000 HD 
HETATM    8  C2* UNL     1      -9.125  10.681  65.969  1.00  0.00    -0.201 C  
HETATM    9  C3* UNL     1      -8.937   9.277  66.509  1.00  0.00    -0.149 C  
HETATM   10  O3* UNL     1      -8.907   8.321  65.452  1.00  0.00    -0.157 OA 
BRANCH   6  11
HETATM   11  N   UNL     1     -10.566  12.559  66.792  1.00  0.00    -0.232 N  
HETATM   12  C   UNL     1      -9.744  14.514  67.903  1.00  0.00    -0.218 C  
HETATM   13  C   UNL     1      -9.623  13.225  67.559  1.00  0.00    -0.218 C  
HETATM   14  I   UNL     1      -8.373  15.471  69.079  1.00  0.00    -0.255 I  
HETATM   15  C   UNL     1     -10.947  15.249  67.423  1.00  0.00    -0.321 C  
HETATM   16  O   UNL     1     -11.201  16.408  67.729  1.00  0.00    -0.254 OA 
HETATM   17  N   UNL     1     -11.787  14.541  66.607  1.00  0.00    -0.389 N  
HETATM   18  C   UNL     1     -11.695  13.209  66.311  1.00  0.00    -0.375 C  
HETATM   19  H   UNL     1     -12.556  15.056  66.178  1.00  0.00     0.000 HD 
HETATM   20  O   UNL     1     -12.585  12.659  65.665  1.00  0.00    -0.611 OA 
ENDBRANCH   6  11
ENDBRANCH   3   4
TORSDOF 2
ENDMDL
MODEL      103
REMARK 921   NORMALIZED FREE ENERGY PREDICTED BY IDOCK:   -4.07 KCAL/MOL
REMARK 922        TOTAL FREE ENERGY PREDICTED BY IDOCK:   -4.87 KCAL/MOL
REMARK 923 INTER-LIGAND FREE ENERGY PREDICTED BY IDOCK:   -4.54 KCAL/MOL
REMARK 924 INTRA-LIGAND FREE ENERGY PREDICTED BY IDOCK:   -0.32 KCAL/MOL
REMARK 927      BINDING AFFINITY PREDICTED BY RF-SCORE:    0.00 PKD
ROOT
HETATM    1  O5* UNL     1     -12.239  10.348  69.578  1.00  0.00    -0.525 OA 
HETATM    2  H5* UNL     1     -12.851  10.153  70.277  1.00  0.00     0.000 HD 
HETATM    3  C5* UNL     1     -11.043   9.578  69.697  1.00  0.00    -0.171 C  
ENDROOT
BRANCH   3   4
HETATM    4  C4* UNL     1     -10.059   9.891  68.572  1.00  0.00    -0.168 C  
HETATM    5  O4* UNL     1     -10.602  10.858  67.653  1.00  0.00    -0.196 OA 
HETATM    6  C1* UNL     1      -9.464  11.405  66.967  1.00  0.00    -0.173 C  
HETATM    7  H3* UNL     1      -6.920   9.804  69.432  1.00  0.00     0.000 HD 
HETATM    8  C2* UNL     1      -8.363  11.510  68.019  1.00  0.00    -0.146 C  
HETATM    9  C3* UNL     1      -8.732  10.470  69.057  1.00  0.00    -0.156 C  
HETATM   10  O3* UNL     1      -7.745   9.444  69.130  1.00  0.00    -0.075 OA 
BRANCH   6  11
HETATM   11  N   UNL     1      -9.776  12.668  66.303  1.00  0.00    -0.257 N  
HETATM   12  C   UNL     1     -10.346  14.989  66.440  1.00  0.00    -0.287 C  
HETATM   13  C   UNL     1      -9.954  13.844  67.014  1.00  0.00    -0.258 C  
HETATM   14  I   UNL     1     -10.656  16.705  67.507  1.00  0.00    -0.171 I  
HETATM   15  C   UNL     1     -10.587  14.980  64.970  1.00  0.00    -0.412 C  
HETATM   16  O   UNL     1     -11.013  15.945  64.346  1.00  0.00    -0.489 OA 
HETATM   17  N   UNL     1     -10.312  13.800  64.332  1.00  0.00    -0.664 N  
HETATM   18  C   UNL     1      -9.976  12.617  64.930  1.00  0.00    -0.146 C  
HETATM   19  H   UNL     1     -10.364  13.804  63.314  1.00  0.00     0.000 HD 
HETATM   20  O   UNL     1      -9.877  11.594  64.256  1.00  0.00    -0.248 OA 
ENDBRANCH   6  11
ENDBRANCH   3   4
TORSDOF 2
ENDMDL
MODEL      104
REMARK 921   NORMALIZED FREE ENERGY PREDICTED BY IDOCK:   -4.07 KCAL/MOL
REMARK 922        TOTAL FREE ENERGY PREDICTED BY IDOCK:   -4.87 KCAL/MOL
REMARK 923 INTER-LIGAND FREE ENERGY PREDICTED BY IDOCK:   -4.80 KCAL/MOL
REMARK 924 INTRA-LIGAND FREE ENERGY PREDICTED BY IDOCK:   -0.07 KCAL/MOL
REMARK 927      BINDING AFFINITY PREDICTED BY RF-SCORE:    0.00 PKD
ROOT
HETATM    1  O5* UNL     1      -7.485   7.946  72.221  1.00  0.00    -0.077 OA 
HETATM    2  H5* UNL     1      -6.919   7.654  72.926  1.00  0.00     0.000 HD 
HETATM    3  C5* UNL     1      -8.864   7.810  72.566  1.00  0.00    -0.150 C  
ENDROOT
BRANCH   3   4
HETATM    4  C4* UNL     1      -9.775   8.278  71.433  1.00  0.00    -0.183 C  
HETATM    5  O4* UNL     1     -10.860   9.083  71.930  1.00  0.00    -0.350 OA 
HETATM    6  C1* UNL     1     -11.328   9.827  70.793  1.00  0.00    -0.342 C  
HETATM    7  H3* UNL     1      -8.261   8.859  68.608  1.00  0.00     0.000 HD 
HETATM    8  C2* UNL     1     -10.077  10.188  69.996  1.00  0.00    -0.241 C  
HETATM    9  C3* UNL     1      -9.064   9.130  70.384  1.00  0.00    -0.233 C  
HETATM   10  O3* UNL     1      -8.704   8.329  69.261  1.00  0.00    -0.136 OA 
BRANCH   6  11
HETATM   11  N   UNL     1     -12.139  10.977  71.184  1.00  0.00    -0.293 N  
HETATM   12  C   UNL     1     -12.491  13.345  71.209  1.00  0.00    -0.278 C  
HETATM   13  C   UNL     1     -11.827  12.264  70.777  1.00  0.00     0.209 C  
HETATM   14  I   UNL     1     -11.987  15.244  70.643  1.00  0.00    -0.541 I  
HETATM   15  C   UNL     1     -13.617  13.131  72.160  1.00  0.00    -0.544 C  
HETATM   16  O   UNL     1     -14.252  14.044  72.676  1.00  0.00    -0.639 OA 
HETATM   17  N   UNL     1     -13.909  11.825  72.448  1.00  0.00    -0.245 N  
HETATM   18  C   UNL     1     -13.190  10.730  72.057  1.00  0.00    -0.361 C  
HETATM   19  H   UNL     1     -14.744  11.653  73.007  1.00  0.00     0.000 HD 
HETATM   20  O   UNL     1     -13.483   9.616  72.486  1.00  0.00    -0.394 OA 
ENDBRANCH   6  11
ENDBRANCH   3   4
TORSDOF 2
ENDMDL
MODEL      105
REMARK 921   NORMALIZED FREE ENERGY PREDICTED BY IDOCK:   -4.07 KCAL/MOL
REMARK 922        TOTAL FREE ENERGY PREDICTED BY IDOCK:   -4.86 KCAL/MOL
REMARK 923 INTER-LIGAND FREE ENERGY PREDICTED BY IDOCK:   -5.38 KCAL/MOL
REMARK 924 INTRA-LIGAND FREE ENERGY PREDICTED BY IDOCK:    0.52 KCAL/MOL
REMARK 927      BINDING AFFINITY PREDICTED BY RF-SCORE:    0.00 PKD
ROOT
HETATM    1  O5* UNL     1      -9.833  20.863  67.145  1.00  0.00    -0.605 OA 
HETATM    2  H5* UNL     1     -10.400  21.609  67.300  1.00  0.00     0.000 HD 
HETATM    3  C5* UNL     1     -10.057  19.826  68.099  1.00  0.00    -0.452 C  
ENDROOT
BRANCH   3   4
HETATM    4  C4* UNL     1      -9.145  18.627  67.850  1.00  0.00    -0.294 C  
HETATM    5  O4* UNL     1      -9.584  17.470  68.587  1.00  0.00    -0.288 OA 
HETATM    6  C1* UNL     1      -8.978  16.350  67.923  1.00  0.00    -0.196 C  
HETATM    7  H3* UNL     1      -7.878  18.467  64.854  1.00  0.00     0.000 HD 
HETATM    8  C2* UNL     1      -9.021  16.682  66.434  1.00  0.00    -0.326 C  
HETATM    9  C3* UNL     1      -9.081  18.196  66.387  1.00  0.00    -0.241 C  
HETATM   10  O3* UNL     1      -7.918  18.736  65.764  1.00  0.00    -0.476 OA 
BRANCH   6  11
HETATM   11  N   UNL     1      -9.625  15.088  68.271  1.00  0.00    -0.206 N  
HETATM   12  C   UNL     1     -10.198  12.833  67.705  1.00  0.00    -0.223 C  
HETATM   13  C   UNL     1      -9.526  13.967  67.463  1.00  0.00    -0.216 C  
HETATM   14  I   UNL     1     -10.086  11.204  66.476  1.00  0.00    -0.299 I  
HETATM   15  C   UNL     1     -11.077  12.793  68.907  1.00  0.00    -0.262 C  
HETATM   16  O   UNL     1     -11.791  11.839  69.194  1.00  0.00    -0.299 OA 
HETATM   17  N   UNL     1     -11.056  13.912  69.694  1.00  0.00    -0.443 N  
HETATM   18  C   UNL     1     -10.421  15.089  69.410  1.00  0.00    -0.247 C  
HETATM   19  H   UNL     1     -11.563  13.863  70.578  1.00  0.00     0.000 HD 
HETATM   20  O   UNL     1     -10.581  16.067  70.138  1.00  0.00    -0.306 OA 
ENDBRANCH   6  11
ENDBRANCH   3   4
TORSDOF 2
ENDMDL
MODEL      106
REMARK 921   NORMALIZED FREE ENERGY PREDICTED BY IDOCK:   -4.06 KCAL/MOL
REMARK 922        TOTAL FREE ENERGY PREDICTED BY IDOCK:   -4.85 KCAL/MOL
REMARK 923 INTER-LIGAND FREE ENERGY PREDICTED BY IDOCK:   -4.67 KCAL/MOL
REMARK 924 INTRA-LIGAND FREE ENERGY PREDICTED BY IDOCK:   -0.18 KCAL/MOL
REMARK 927      BINDING AFFINITY PREDICTED BY RF-SCORE:    0.00 PKD
ROOT
HETATM    1  O5* UNL     1      -8.787   7.901  71.104  1.00  0.00    -0.132 OA 
HETATM    2  H5* UNL     1      -7.954   7.679  71.503  1.00  0.00     0.000 HD 
HETATM    3  C5* UNL     1      -8.653   8.974  70.172  1.00  0.00    -0.160 C  
ENDROOT
BRANCH   3   4
HETATM    4  C4* UNL     1      -9.992   9.331  69.530  1.00  0.00    -0.187 C  
HETATM    5  O4* UNL     1     -10.337  10.709  69.765  1.00  0.00    -0.205 OA 
HETATM    6  C1* UNL     1     -11.307  11.030  68.756  1.00  0.00    -0.283 C  
HETATM    7  H3* UNL     1     -10.634   7.774  66.743  1.00  0.00     0.000 HD 
HETATM    8  C2* UNL     1     -10.849  10.298  67.497  1.00  0.00    -0.355 C  
HETATM    9  C3* UNL     1     -10.018   9.142  68.015  1.00  0.00    -0.178 C  
HETATM   10  O3* UNL     1     -10.617   7.891  67.685  1.00  0.00    -0.240 OA 
BRANCH   6  11
HETATM   11  N   UNL     1     -11.464  12.472  68.583  1.00  0.00    -0.281 N  
HETATM   12  C   UNL     1     -10.981  14.472  67.359  1.00  0.00    -0.303 C  
HETATM   13  C   UNL     1     -10.944  13.139  67.485  1.00  0.00    -0.263 C  
HETATM   14  I   UNL     1     -10.163  15.448  65.760  1.00  0.00    -0.444 I  
HETATM   15  C   UNL     1     -11.623  15.253  68.451  1.00  0.00    -0.349 C  
HETATM   16  O   UNL     1     -11.657  16.478  68.481  1.00  0.00    -0.252 OA 
HETATM   17  N   UNL     1     -12.182  14.514  69.459  1.00  0.00    -0.466 N  
HETATM   18  C   UNL     1     -12.085  13.160  69.618  1.00  0.00    -0.255 C  
HETATM   19  H   UNL     1     -12.722  15.023  70.159  1.00  0.00     0.000 HD 
HETATM   20  O   UNL     1     -12.524  12.626  70.634  1.00  0.00    -0.318 OA 
ENDBRANCH   6  11
ENDBRANCH   3   4
TORSDOF 2
ENDMDL
MODEL      107
REMARK 921   NORMALIZED FREE ENERGY PREDICTED BY IDOCK:   -4.05 KCAL/MOL
REMARK 922        TOTAL FREE ENERGY PREDICTED BY IDOCK:   -4.84 KCAL/MOL
REMARK 923 INTER-LIGAND FREE ENERGY PREDICTED BY IDOCK:   -4.41 KCAL/MOL
REMARK 924 INTRA-LIGAND FREE ENERGY PREDICTED BY IDOCK:   -0.43 KCAL/MOL
REMARK 927      BINDING AFFINITY PREDICTED BY RF-SCORE:    0.00 PKD
ROOT
HETATM    1  O5* UNL     1      -8.150   8.852  66.718  1.00  0.00    -0.109 OA 
HETATM    2  H5* UNL     1      -7.392   8.373  67.031  1.00  0.00     0.000 HD 
HETATM    3  C5* UNL     1      -8.371  10.039  67.478  1.00  0.00    -0.118 C  
ENDROOT
BRANCH   3   4
HETATM    4  C4* UNL     1      -9.589  10.810  66.974  1.00  0.00    -0.169 C  
HETATM    5  O4* UNL     1      -9.764  12.046  67.692  1.00  0.00    -0.181 OA 
HETATM    6  C1* UNL     1     -10.591  12.859  66.845  1.00  0.00    -0.253 C  
HETATM    7  H3* UNL     1     -10.193  10.489  63.790  1.00  0.00     0.000 HD 
HETATM    8  C2* UNL     1     -10.130  12.570  65.419  1.00  0.00    -0.284 C  
HETATM    9  C3* UNL     1      -9.510  11.189  65.497  1.00  0.00    -0.221 C  
HETATM   10  O3* UNL     1     -10.242  10.254  64.709  1.00  0.00    -0.329 OA 
BRANCH   6  11
HETATM   11  N   UNL     1     -10.537  14.271  67.214  1.00  0.00    -0.276 N  
HETATM   12  C   UNL     1      -9.450  16.401  67.085  1.00  0.00    -0.231 C  
HETATM   13  C   UNL     1      -9.588  15.131  66.682  1.00  0.00    -0.253 C  
HETATM   14  I   UNL     1      -8.012  17.643  66.331  1.00  0.00    -0.232 I  
HETATM   15  C   UNL     1     -10.372  16.895  68.145  1.00  0.00    -0.336 C  
HETATM   16  O   UNL     1     -10.297  18.014  68.642  1.00  0.00    -0.369 OA 
HETATM   17  N   UNL     1     -11.329  16.009  68.559  1.00  0.00    -0.378 N  
HETATM   18  C   UNL     1     -11.426  14.694  68.194  1.00  0.00    -0.323 C  
HETATM   19  H   UNL     1     -12.037  16.362  69.202  1.00  0.00     0.000 HD 
HETATM   20  O   UNL     1     -12.256  13.966  68.732  1.00  0.00    -0.348 OA 
ENDBRANCH   6  11
ENDBRANCH   3   4
TORSDOF 2
ENDMDL
MODEL      108
REMARK 921   NORMALIZED FREE ENERGY PREDICTED BY IDOCK:   -4.04 KCAL/MOL
REMARK 922        TOTAL FREE ENERGY PREDICTED BY IDOCK:   -4.83 KCAL/MOL
REMARK 923 INTER-LIGAND FREE ENERGY PREDICTED BY IDOCK:   -4.37 KCAL/MOL
REMARK 924 INTRA-LIGAND FREE ENERGY PREDICTED BY IDOCK:   -0.46 KCAL/MOL
REMARK 927      BINDING AFFINITY PREDICTED BY RF-SCORE:    0.00 PKD
ROOT
HETATM    1  O5* UNL     1     -10.255   5.336  68.833  1.00  0.00    -0.191 OA 
HETATM    2  H5* UNL     1     -10.833   4.710  69.251  1.00  0.00     0.000 HD 
HETATM    3  C5* UNL     1     -10.987   6.315  68.096  1.00  0.00    -0.323 C  
ENDROOT
BRANCH   3   4
HETATM    4  C4* UNL     1     -10.057   7.322  67.423  1.00  0.00    -0.204 C  
HETATM    5  O4* UNL     1     -10.776   8.490  66.982  1.00  0.00    -0.275 OA 
HETATM    6  C1* UNL     1      -9.777   9.510  66.826  1.00  0.00    -0.197 C  
HETATM    7  H3* UNL     1      -7.041   7.433  68.645  1.00  0.00     0.000 HD 
HETATM    8  C2* UNL     1      -8.790   9.297  67.970  1.00  0.00    -0.128 C  
HETATM    9  C3* UNL     1      -8.941   7.833  68.331  1.00  0.00    -0.132 C  
HETATM   10  O3* UNL     1      -7.735   7.116  68.080  1.00  0.00    -0.111 OA 
BRANCH   6  11
HETATM   11  N   UNL     1     -10.360  10.848  66.782  1.00  0.00    -0.232 N  
HETATM   12  C   UNL     1     -11.309  12.728  67.922  1.00  0.00    -0.293 C  
HETATM   13  C   UNL     1     -10.676  11.547  67.937  1.00  0.00    -0.200 C  
HETATM   14  I   UNL     1     -11.818  13.723  69.634  1.00  0.00    -0.347 I  
HETATM   15  C   UNL     1     -11.671  13.303  66.597  1.00  0.00    -0.377 C  
HETATM   16  O   UNL     1     -12.310  14.340  66.459  1.00  0.00    -0.445 OA 
HETATM   17  N   UNL     1     -11.253  12.589  65.507  1.00  0.00    -0.303 N  
HETATM   18  C   UNL     1     -10.665  11.354  65.525  1.00  0.00    -0.253 C  
HETATM   19  H   UNL     1     -11.392  13.020  64.593  1.00  0.00     0.000 HD 
HETATM   20  O   UNL     1     -10.449  10.760  64.472  1.00  0.00    -0.357 OA 
ENDBRANCH   6  11
ENDBRANCH   3   4
TORSDOF 2
ENDMDL
MODEL      109
REMARK 921   NORMALIZED FREE ENERGY PREDICTED BY IDOCK:   -4.04 KCAL/MOL
REMARK 922        TOTAL FREE ENERGY PREDICTED BY IDOCK:   -4.83 KCAL/MOL
REMARK 923 INTER-LIGAND FREE ENERGY PREDICTED BY IDOCK:   -4.65 KCAL/MOL
REMARK 924 INTRA-LIGAND FREE ENERGY PREDICTED BY IDOCK:   -0.18 KCAL/MOL
REMARK 927      BINDING AFFINITY PREDICTED BY RF-SCORE:    0.00 PKD
ROOT
HETATM    1  O5* UNL     1     -11.774   6.556  69.648  1.00  0.00    -0.621 OA 
HETATM    2  H5* UNL     1     -11.970   5.892  70.298  1.00  0.00     0.000 HD 
HETATM    3  C5* UNL     1     -10.833   7.510  70.140  1.00  0.00    -0.249 C  
ENDROOT
BRANCH   3   4
HETATM    4  C4* UNL     1     -10.519   8.579  69.095  1.00  0.00    -0.205 C  
HETATM    5  O4* UNL     1     -11.340   9.749  69.276  1.00  0.00    -0.144 OA 
HETATM    6  C1* UNL     1     -10.647  10.803  68.589  1.00  0.00    -0.199 C  
HETATM    7  H3* UNL     1      -7.404   8.705  68.156  1.00  0.00     0.000 HD 
HETATM    8  C2* UNL     1      -9.163  10.554  68.844  1.00  0.00    -0.188 C  
HETATM    9  C3* UNL     1      -9.074   9.069  69.130  1.00  0.00    -0.140 C  
HETATM   10  O3* UNL     1      -8.303   8.401  68.135  1.00  0.00    -0.125 OA 
BRANCH   6  11
HETATM   11  N   UNL     1     -11.110  12.125  69.003  1.00  0.00    -0.241 N  
HETATM   12  C   UNL     1     -12.351  13.500  70.521  1.00  0.00    -0.342 C  
HETATM   13  C   UNL     1     -11.824  12.317  70.175  1.00  0.00    -0.272 C  
HETATM   14  I   UNL     1     -13.448  13.758  72.226  1.00  0.00    -0.649 I  
HETATM   15  C   UNL     1     -12.140  14.648  69.597  1.00  0.00    -0.311 C  
HETATM   16  O   UNL     1     -12.629  15.759  69.771  1.00  0.00    -0.203 OA 
HETATM   17  N   UNL     1     -11.357  14.393  68.503  1.00  0.00    -0.267 N  
HETATM   18  C   UNL     1     -10.877  13.172  68.120  1.00  0.00    -0.251 C  
HETATM   19  H   UNL     1     -11.109  15.191  67.918  1.00  0.00     0.000 HD 
HETATM   20  O   UNL     1     -10.289  13.050  67.047  1.00  0.00    -0.244 OA 
ENDBRANCH   6  11
ENDBRANCH   3   4
TORSDOF 2
ENDMDL
MODEL      110
REMARK 921   NORMALIZED FREE ENERGY PREDICTED BY IDOCK:   -4.00 KCAL/MOL
REMARK 922        TOTAL FREE ENERGY PREDICTED BY IDOCK:   -4.78 KCAL/MOL
REMARK 923 INTER-LIGAND FREE ENERGY PREDICTED BY IDOCK:   -4.88 KCAL/MOL
REMARK 924 INTRA-LIGAND FREE ENERGY PREDICTED BY IDOCK:    0.10 KCAL/MOL
REMARK 927      BINDING AFFINITY PREDICTED BY RF-SCORE:    0.00 PKD
ROOT
HETATM    1  O5* UNL     1     -13.679   8.596  73.211  1.00  0.00    -0.888 OA 
HETATM    2  H5* UNL     1     -14.462   8.105  73.430  1.00  0.00     0.000 HD 
HETATM    3  C5* UNL     1     -13.794   9.225  71.935  1.00  0.00    -0.349 C  
ENDROOT
BRANCH   3   4
HETATM    4  C4* UNL     1     -12.536  10.015  71.583  1.00  0.00    -0.427 C  
HETATM    5  O4* UNL     1     -11.688   9.280  70.680  1.00  0.00    -0.268 OA 
HETATM    6  C1* UNL     1     -10.840  10.267  70.073  1.00  0.00    -0.307 C  
HETATM    7  H3* UNL     1     -12.943  13.243  71.427  1.00  0.00     0.000 HD 
HETATM    8  C2* UNL     1     -11.722  11.495  69.864  1.00  0.00    -0.420 C  
HETATM    9  C3* UNL     1     -12.819  11.352  70.900  1.00  0.00    -0.232 C  
HETATM   10  O3* UNL     1     -12.767  12.412  71.852  1.00  0.00    -0.217 OA 
BRANCH   6  11
HETATM   11  N   UNL     1     -10.207   9.773  68.853  1.00  0.00    -0.191 N  
HETATM   12  C   UNL     1      -9.862   9.941  66.490  1.00  0.00    -0.215 C  
HETATM   13  C   UNL     1     -10.342  10.431  67.641  1.00  0.00    -0.219 C  
HETATM   14  I   UNL     1     -10.113  10.895  64.699  1.00  0.00    -0.386 I  
HETATM   15  C   UNL     1      -9.147   8.636  66.537  1.00  0.00    -0.165 C  
HETATM   16  O   UNL     1      -8.726   8.056  65.543  1.00  0.00    -0.157 OA 
HETATM   17  N   UNL     1      -8.989   8.092  67.784  1.00  0.00    -0.132 N  
HETATM   18  C   UNL     1      -9.535   8.561  68.946  1.00  0.00    -0.147 C  
HETATM   19  H   UNL     1      -8.408   7.257  67.851  1.00  0.00     0.000 HD 
HETATM   20  O   UNL     1      -9.424   7.913  69.984  1.00  0.00    -0.157 OA 
ENDBRANCH   6  11
ENDBRANCH   3   4
TORSDOF 2
ENDMDL
MODEL      111
REMARK 921   NORMALIZED FREE ENERGY PREDICTED BY IDOCK:   -3.98 KCAL/MOL
REMARK 922        TOTAL FREE ENERGY PREDICTED BY IDOCK:   -4.77 KCAL/MOL
REMARK 923 INTER-LIGAND FREE ENERGY PREDICTED BY IDOCK:   -4.90 KCAL/MOL
REMARK 924 INTRA-LIGAND FREE ENERGY PREDICTED BY IDOCK:    0.13 KCAL/MOL
REMARK 927      BINDING AFFINITY PREDICTED BY RF-SCORE:    0.00 PKD
ROOT
HETATM    1  O5* UNL     1      -7.586  10.875  65.286  1.00  0.00    -0.354 OA 
HETATM    2  H5* UNL     1      -6.665  10.686  65.152  1.00  0.00     0.000 HD 
HETATM    3  C5* UNL     1      -7.900  10.996  66.673  1.00  0.00    -0.153 C  
ENDROOT
BRANCH   3   4
HETATM    4  C4* UNL     1      -9.380  11.300  66.890  1.00  0.00    -0.177 C  
HETATM    5  O4* UNL     1      -9.609  11.919  68.170  1.00  0.00    -0.184 OA 
HETATM    6  C1* UNL     1     -10.885  12.568  68.051  1.00  0.00    -0.225 C  
HETATM    7  H3* UNL     1     -11.023  12.102  64.194  1.00  0.00     0.000 HD 
HETATM    8  C2* UNL     1     -10.933  13.124  66.631  1.00  0.00    -0.301 C  
HETATM    9  C3* UNL     1      -9.972  12.250  65.851  1.00  0.00    -0.254 C  
HETATM   10  O3* UNL     1     -10.655  11.512  64.841  1.00  0.00    -0.279 OA 
BRANCH   6  11
HETATM   11  N   UNL     1     -11.091  13.571  69.092  1.00  0.00    -0.249 N  
HETATM   12  C   UNL     1     -12.461  14.509  70.817  1.00  0.00    -0.351 C  
HETATM   13  C   UNL     1     -12.195  13.542  69.929  1.00  0.00    -0.292 C  
HETATM   14  I   UNL     1     -14.122  14.482  72.008  1.00  0.00    -0.623 I  
HETATM   15  C   UNL     1     -11.511  15.652  70.901  1.00  0.00    -0.390 C  
HETATM   16  O   UNL     1     -11.683  16.627  71.624  1.00  0.00    -0.321 OA 
HETATM   17  N   UNL     1     -10.406  15.565  70.097  1.00  0.00    -0.375 N  
HETATM   18  C   UNL     1     -10.171  14.610  69.146  1.00  0.00    -0.193 C  
HETATM   19  H   UNL     1      -9.689  16.280  70.220  1.00  0.00     0.000 HD 
HETATM   20  O   UNL     1      -9.200  14.711  68.400  1.00  0.00    -0.184 OA 
ENDBRANCH   6  11
ENDBRANCH   3   4
TORSDOF 2
ENDMDL
MODEL      112
REMARK 921   NORMALIZED FREE ENERGY PREDICTED BY IDOCK:   -3.97 KCAL/MOL
REMARK 922        TOTAL FREE ENERGY PREDICTED BY IDOCK:   -4.75 KCAL/MOL
REMARK 923 INTER-LIGAND FREE ENERGY PREDICTED BY IDOCK:   -4.98 KCAL/MOL
REMARK 924 INTRA-LIGAND FREE ENERGY PREDICTED BY IDOCK:    0.23 KCAL/MOL
REMARK 927      BINDING AFFINITY PREDICTED BY RF-SCORE:    0.00 PKD
ROOT
HETATM    1  O5* UNL     1     -11.182  16.090  63.993  1.00  0.00    -1.078 OA 
HETATM    2  H5* UNL     1     -11.542  16.503  63.217  1.00  0.00     0.000 HD 
HETATM    3  C5* UNL     1     -11.141  16.994  65.097  1.00  0.00     0.089 C  
ENDROOT
BRANCH   3   4
HETATM    4  C4* UNL     1     -10.561  16.331  66.344  1.00  0.00    -0.253 C  
HETATM    5  O4* UNL     1     -11.164  15.045  66.585  1.00  0.00    -0.335 OA 
HETATM    6  C1* UNL     1     -10.242  14.352  67.440  1.00  0.00    -0.247 C  
HETATM    7  H3* UNL     1      -7.415  16.964  66.896  1.00  0.00     0.000 HD 
HETATM    8  C2* UNL     1      -8.851  14.745  66.949  1.00  0.00    -0.274 C  
HETATM    9  C3* UNL     1      -9.057  16.082  66.266  1.00  0.00    -0.344 C  
HETATM   10  O3* UNL     1      -8.351  17.118  66.944  1.00  0.00    -0.200 OA 
BRANCH   6  11
HETATM   11  N   UNL     1     -10.483  12.912  67.456  1.00  0.00    -0.222 N  
HETATM   12  C   UNL     1     -10.715  10.868  68.682  1.00  0.00    -0.203 C  
HETATM   13  C   UNL     1     -10.601  12.202  68.641  1.00  0.00    -0.223 C  
HETATM   14  I   UNL     1     -10.834   9.828  70.438  1.00  0.00    -0.400 I  
HETATM   15  C   UNL     1     -10.723  10.134  67.387  1.00  0.00    -0.277 C  
HETATM   16  O   UNL     1     -10.752   8.911  67.300  1.00  0.00    -0.273 OA 
HETATM   17  N   UNL     1     -10.682  10.914  66.263  1.00  0.00    -0.217 N  
HETATM   18  C   UNL     1     -10.501  12.269  66.225  1.00  0.00    -0.238 C  
HETATM   19  H   UNL     1     -10.798  10.439  65.368  1.00  0.00     0.000 HD 
HETATM   20  O   UNL     1     -10.356  12.841  65.147  1.00  0.00    -0.287 OA 
ENDBRANCH   6  11
ENDBRANCH   3   4
TORSDOF 2
ENDMDL
MODEL      113
REMARK 921   NORMALIZED FREE ENERGY PREDICTED BY IDOCK:   -3.96 KCAL/MOL
REMARK 922        TOTAL FREE ENERGY PREDICTED BY IDOCK:   -4.75 KCAL/MOL
REMARK 923 INTER-LIGAND FREE ENERGY PREDICTED BY IDOCK:   -4.51 KCAL/MOL
REMARK 924 INTRA-LIGAND FREE ENERGY PREDICTED BY IDOCK:   -0.24 KCAL/MOL
REMARK 927      BINDING AFFINITY PREDICTED BY RF-SCORE:    0.00 PKD
ROOT
HETATM    1  O5* UNL     1     -12.794   9.704  70.689  1.00  0.00    -0.524 OA 
HETATM    2  H5* UNL     1     -13.167   9.632  71.560  1.00  0.00     0.000 HD 
HETATM    3  C5* UNL     1     -12.021  10.896  70.547  1.00  0.00    -0.371 C  
ENDROOT
BRANCH   3   4
HETATM    4  C4* UNL     1     -11.422  11.013  69.148  1.00  0.00    -0.301 C  
HETATM    5  O4* UNL     1     -11.437  12.375  68.681  1.00  0.00    -0.254 OA 
HETATM    6  C1* UNL     1     -10.457  12.424  67.632  1.00  0.00    -0.216 C  
HETATM    7  H3* UNL     1      -8.998   8.931  68.517  1.00  0.00     0.000 HD 
HETATM    8  C2* UNL     1      -9.316  11.521  68.093  1.00  0.00    -0.185 C  
HETATM    9  C3* UNL     1      -9.968  10.554  69.061  1.00  0.00    -0.211 C  
HETATM   10  O3* UNL     1      -9.902   9.217  68.571  1.00  0.00    -0.156 OA 
BRANCH   6  11
HETATM   11  N   UNL     1     -10.047  13.792  67.325  1.00  0.00    -0.237 N  
HETATM   12  C   UNL     1      -8.510  15.604  67.615  1.00  0.00    -0.157 C  
HETATM   13  C   UNL     1      -8.855  14.322  67.793  1.00  0.00    -0.185 C  
HETATM   14  I   UNL     1      -6.774  16.388  68.357  1.00  0.00    -0.173 I  
HETATM   15  C   UNL     1      -9.457  16.479  66.871  1.00  0.00    -0.237 C  
HETATM   16  O   UNL     1      -9.283  17.682  66.705  1.00  0.00    -0.256 OA 
HETATM   17  N   UNL     1     -10.572  15.859  66.374  1.00  0.00    -0.309 N  
HETATM   18  C   UNL     1     -10.953  14.568  66.612  1.00  0.00    -0.321 C  
HETATM   19  H   UNL     1     -11.176  16.414  65.768  1.00  0.00     0.000 HD 
HETATM   20  O   UNL     1     -12.042  14.164  66.212  1.00  0.00    -0.412 OA 
ENDBRANCH   6  11
ENDBRANCH   3   4
TORSDOF 2
ENDMDL
MODEL      114
REMARK 921   NORMALIZED FREE ENERGY PREDICTED BY IDOCK:   -3.94 KCAL/MOL
REMARK 922        TOTAL FREE ENERGY PREDICTED BY IDOCK:   -4.72 KCAL/MOL
REMARK 923 INTER-LIGAND FREE ENERGY PREDICTED BY IDOCK:   -4.76 KCAL/MOL
REMARK 924 INTRA-LIGAND FREE ENERGY PREDICTED BY IDOCK:    0.04 KCAL/MOL
REMARK 927      BINDING AFFINITY PREDICTED BY RF-SCORE:    0.00 PKD
ROOT
HETATM    1  O5* UNL     1      -8.819  17.235  65.764  1.00  0.00    -0.530 OA 
HETATM    2  H5* UNL     1      -8.041  17.777  65.811  1.00  0.00     0.000 HD 
HETATM    3  C5* UNL     1      -8.967  16.429  66.933  1.00  0.00    -0.216 C  
ENDROOT
BRANCH   3   4
HETATM    4  C4* UNL     1     -10.218  15.556  66.857  1.00  0.00    -0.279 C  
HETATM    5  O4* UNL     1      -9.939  14.290  66.230  1.00  0.00    -0.284 OA 
HETATM    6  C1* UNL     1     -11.007  13.422  66.643  1.00  0.00    -0.287 C  
HETATM    7  H3* UNL     1     -12.283  15.901  69.352  1.00  0.00     0.000 HD 
HETATM    8  C2* UNL     1     -11.300  13.794  68.094  1.00  0.00    -0.315 C  
HETATM    9  C3* UNL     1     -10.822  15.227  68.220  1.00  0.00    -0.262 C  
HETATM   10  O3* UNL     1     -11.907  16.106  68.504  1.00  0.00    -0.300 OA 
BRANCH   6  11
HETATM   11  N   UNL     1     -10.679  12.013  66.443  1.00  0.00    -0.249 N  
HETATM   12  C   UNL     1     -10.261   9.839  67.353  1.00  0.00    -0.230 C  
HETATM   13  C   UNL     1     -10.662  11.109  67.493  1.00  0.00    -0.236 C  
HETATM   14  I   UNL     1     -10.189   8.529  68.922  1.00  0.00    -0.187 I  
HETATM   15  C   UNL     1      -9.827   9.395  66.000  1.00  0.00    -0.296 C  
HETATM   16  O   UNL     1      -9.377   8.279  65.763  1.00  0.00    -0.145 OA 
HETATM   17  N   UNL     1      -9.950  10.325  65.003  1.00  0.00    -0.325 N  
HETATM   18  C   UNL     1     -10.298  11.638  65.161  1.00  0.00    -0.279 C  
HETATM   19  H   UNL     1      -9.765  10.008  64.052  1.00  0.00     0.000 HD 
HETATM   20  O   UNL     1     -10.251  12.407  64.203  1.00  0.00    -0.344 OA 
ENDBRANCH   6  11
ENDBRANCH   3   4
TORSDOF 2
ENDMDL
MODEL      115
REMARK 921   NORMALIZED FREE ENERGY PREDICTED BY IDOCK:   -3.94 KCAL/MOL
REMARK 922        TOTAL FREE ENERGY PREDICTED BY IDOCK:   -4.72 KCAL/MOL
REMARK 923 INTER-LIGAND FREE ENERGY PREDICTED BY IDOCK:   -4.34 KCAL/MOL
REMARK 924 INTRA-LIGAND FREE ENERGY PREDICTED BY IDOCK:   -0.38 KCAL/MOL
REMARK 927      BINDING AFFINITY PREDICTED BY RF-SCORE:    0.00 PKD
ROOT
HETATM    1  O5* UNL     1      -5.163  14.429  70.290  1.00  0.00    -0.094 OA 
HETATM    2  H5* UNL     1      -4.514  13.832  70.643  1.00  0.00     0.000 HD 
HETATM    3  C5* UNL     1      -5.188  14.391  68.863  1.00  0.00    -0.088 C  
ENDROOT
BRANCH   3   4
HETATM    4  C4* UNL     1      -6.231  15.352  68.295  1.00  0.00    -0.118 C  
HETATM    5  O4* UNL     1      -7.228  14.652  67.528  1.00  0.00    -0.178 OA 
HETATM    6  C1* UNL     1      -8.353  15.545  67.470  1.00  0.00    -0.173 C  
HETATM    7  H3* UNL     1      -6.900  17.921  70.182  1.00  0.00     0.000 HD 
HETATM    8  C2* UNL     1      -8.412  16.219  68.838  1.00  0.00    -0.253 C  
HETATM    9  C3* UNL     1      -6.992  16.135  69.362  1.00  0.00    -0.220 C  
HETATM   10  O3* UNL     1      -6.426  17.434  69.518  1.00  0.00    -0.249 OA 
BRANCH   6  11
HETATM   11  N   UNL     1      -9.583  14.855  67.091  1.00  0.00    -0.221 N  
HETATM   12  C   UNL     1     -11.123  13.050  67.410  1.00  0.00    -0.272 C  
HETATM   13  C   UNL     1     -10.058  13.763  67.800  1.00  0.00    -0.245 C  
HETATM   14  I   UNL     1     -11.782  11.408  68.435  1.00  0.00    -0.163 I  
HETATM   15  C   UNL     1     -11.819  13.470  66.163  1.00  0.00    -0.389 C  
HETATM   16  O   UNL     1     -12.759  12.857  65.670  1.00  0.00    -0.537 OA 
HETATM   17  N   UNL     1     -11.335  14.604  65.567  1.00  0.00    -0.335 N  
HETATM   18  C   UNL     1     -10.210  15.291  65.931  1.00  0.00    -0.332 C  
HETATM   19  H   UNL     1     -11.864  14.971  64.777  1.00  0.00     0.000 HD 
HETATM   20  O   UNL     1      -9.808  16.223  65.239  1.00  0.00    -0.470 OA 
ENDBRANCH   6  11
ENDBRANCH   3   4
TORSDOF 2
ENDMDL
MODEL      116
REMARK 921   NORMALIZED FREE ENERGY PREDICTED BY IDOCK:   -3.94 KCAL/MOL
REMARK 922        TOTAL FREE ENERGY PREDICTED BY IDOCK:   -4.72 KCAL/MOL
REMARK 923 INTER-LIGAND FREE ENERGY PREDICTED BY IDOCK:   -4.42 KCAL/MOL
REMARK 924 INTRA-LIGAND FREE ENERGY PREDICTED BY IDOCK:   -0.30 KCAL/MOL
REMARK 927      BINDING AFFINITY PREDICTED BY RF-SCORE:    0.00 PKD
ROOT
HETATM    1  O5* UNL     1      -9.435  17.180  67.851  1.00  0.00    -0.248 OA 
HETATM    2  H5* UNL     1      -8.960  18.001  67.818  1.00  0.00     0.000 HD 
HETATM    3  C5* UNL     1     -10.681  17.321  68.533  1.00  0.00    -0.305 C  
ENDROOT
BRANCH   3   4
HETATM    4  C4* UNL     1     -11.445  16.000  68.586  1.00  0.00    -0.377 C  
HETATM    5  O4* UNL     1     -10.756  14.964  67.861  1.00  0.00    -0.256 OA 
HETATM    6  C1* UNL     1     -11.286  13.731  68.373  1.00  0.00    -0.293 C  
HETATM    7  H3* UNL     1     -13.071  15.468  71.358  1.00  0.00     0.000 HD 
HETATM    8  C2* UNL     1     -11.491  13.960  69.868  1.00  0.00    -0.252 C  
HETATM    9  C3* UNL     1     -11.646  15.462  70.001  1.00  0.00    -0.321 C  
HETATM   10  O3* UNL     1     -12.945  15.803  70.478  1.00  0.00    -0.454 OA 
BRANCH   6  11
HETATM   11  N   UNL     1     -10.430  12.591  68.056  1.00  0.00    -0.213 N  
HETATM   12  C   UNL     1      -8.268  11.717  67.512  1.00  0.00    -0.152 C  
HETATM   13  C   UNL     1      -9.059  12.725  67.907  1.00  0.00    -0.204 C  
HETATM   14  I   UNL     1      -6.254  11.941  67.243  1.00  0.00    -0.110 I  
HETATM   15  C   UNL     1      -8.909  10.402  67.235  1.00  0.00    -0.132 C  
HETATM   16  O   UNL     1      -8.302   9.428  66.804  1.00  0.00    -0.121 OA 
HETATM   17  N   UNL     1     -10.253  10.334  67.484  1.00  0.00    -0.198 N  
HETATM   18  C   UNL     1     -11.067  11.379  67.824  1.00  0.00    -0.265 C  
HETATM   19  H   UNL     1     -10.690   9.415  67.408  1.00  0.00     0.000 HD 
HETATM   20  O   UNL     1     -12.283  11.214  67.897  1.00  0.00    -0.521 OA 
ENDBRANCH   6  11
ENDBRANCH   3   4
TORSDOF 2
ENDMDL
MODEL      117
REMARK 921   NORMALIZED FREE ENERGY PREDICTED BY IDOCK:   -3.92 KCAL/MOL
REMARK 922        TOTAL FREE ENERGY PREDICTED BY IDOCK:   -4.70 KCAL/MOL
REMARK 923 INTER-LIGAND FREE ENERGY PREDICTED BY IDOCK:   -4.24 KCAL/MOL
REMARK 924 INTRA-LIGAND FREE ENERGY PREDICTED BY IDOCK:   -0.46 KCAL/MOL
REMARK 927      BINDING AFFINITY PREDICTED BY RF-SCORE:    0.00 PKD
ROOT
HETATM    1  O5* UNL     1      -5.849   9.240  65.799  1.00  0.00    -0.052 OA 
HETATM    2  H5* UNL     1      -5.371   8.493  65.458  1.00  0.00     0.000 HD 
HETATM    3  C5* UNL     1      -7.180   8.885  66.172  1.00  0.00    -0.090 C  
ENDROOT
BRANCH   3   4
HETATM    4  C4* UNL     1      -7.948  10.085  66.720  1.00  0.00    -0.114 C  
HETATM    5  O4* UNL     1      -9.158   9.676  67.386  1.00  0.00    -0.130 OA 
HETATM    6  C1* UNL     1      -9.512  10.780  68.235  1.00  0.00    -0.164 C  
HETATM    7  H3* UNL     1      -6.087  12.552  67.747  1.00  0.00     0.000 HD 
HETATM    8  C2* UNL     1      -8.191  11.324  68.772  1.00  0.00    -0.122 C  
HETATM    9  C3* UNL     1      -7.163  10.906  67.741  1.00  0.00    -0.091 C  
HETATM   10  O3* UNL     1      -6.575  12.042  67.112  1.00  0.00    -0.140 OA 
BRANCH   6  11
HETATM   11  N   UNL     1     -10.464  10.393  69.272  1.00  0.00    -0.220 N  
HETATM   12  C   UNL     1     -10.993   9.090  71.210  1.00  0.00    -0.313 C  
HETATM   13  C   UNL     1     -10.111   9.544  70.310  1.00  0.00    -0.262 C  
HETATM   14  I   UNL     1     -10.471   7.795  72.704  1.00  0.00    -0.433 I  
HETATM   15  C   UNL     1     -12.408   9.536  71.080  1.00  0.00    -0.282 C  
HETATM   16  O   UNL     1     -13.315   9.135  71.800  1.00  0.00    -0.358 OA 
HETATM   17  N   UNL     1     -12.656  10.435  70.078  1.00  0.00    -0.538 N  
HETATM   18  C   UNL     1     -11.768  10.846  69.122  1.00  0.00    -0.326 C  
HETATM   19  H   UNL     1     -13.592  10.837  70.041  1.00  0.00     0.000 HD 
HETATM   20  O   UNL     1     -12.147  11.562  68.198  1.00  0.00    -0.604 OA 
ENDBRANCH   6  11
ENDBRANCH   3   4
TORSDOF 2
ENDMDL
MODEL      118
REMARK 921   NORMALIZED FREE ENERGY PREDICTED BY IDOCK:   -3.86 KCAL/MOL
REMARK 922        TOTAL FREE ENERGY PREDICTED BY IDOCK:   -4.64 KCAL/MOL
REMARK 923 INTER-LIGAND FREE ENERGY PREDICTED BY IDOCK:   -4.39 KCAL/MOL
REMARK 924 INTRA-LIGAND FREE ENERGY PREDICTED BY IDOCK:   -0.24 KCAL/MOL
REMARK 927      BINDING AFFINITY PREDICTED BY RF-SCORE:    0.00 PKD
ROOT
HETATM    1  O5* UNL     1     -12.463  12.287  66.018  1.00  0.00    -0.503 OA 
HETATM    2  H5* UNL     1     -13.243  12.701  65.669  1.00  0.00     0.000 HD 
HETATM    3  C5* UNL     1     -11.466  12.112  65.011  1.00  0.00    -0.323 C  
ENDROOT
BRANCH   3   4
HETATM    4  C4* UNL     1     -10.212  11.447  65.573  1.00  0.00    -0.264 C  
HETATM    5  O4* UNL     1     -10.274  11.333  67.007  1.00  0.00    -0.204 OA 
HETATM    6  C1* UNL     1      -9.325  10.309  67.344  1.00  0.00    -0.145 C  
HETATM    7  H3* UNL     1      -8.889   9.174  63.652  1.00  0.00     0.000 HD 
HETATM    8  C2* UNL     1      -9.436   9.265  66.237  1.00  0.00    -0.284 C  
HETATM    9  C3* UNL     1      -9.978  10.033  65.048  1.00  0.00    -0.250 C  
HETATM   10  O3* UNL     1      -9.035  10.054  63.979  1.00  0.00    -0.200 OA 
BRANCH   6  11
HETATM   11  N   UNL     1      -9.541   9.779  68.688  1.00  0.00    -0.148 N  
HETATM   12  C   UNL     1     -10.950   9.524  70.606  1.00  0.00    -0.306 C  
HETATM   13  C   UNL     1     -10.760   9.905  69.336  1.00  0.00    -0.232 C  
HETATM   14  I   UNL     1     -12.738   9.763  71.570  1.00  0.00    -0.573 I  
HETATM   15  C   UNL     1      -9.793   8.932  71.333  1.00  0.00    -0.306 C  
HETATM   16  O   UNL     1      -9.826   8.610  72.515  1.00  0.00    -0.285 OA 
HETATM   17  N   UNL     1      -8.651   8.770  70.596  1.00  0.00    -0.160 N  
HETATM   18  C   UNL     1      -8.440   9.219  69.322  1.00  0.00    -0.137 C  
HETATM   19  H   UNL     1      -7.883   8.267  71.041  1.00  0.00     0.000 HD 
HETATM   20  O   UNL     1      -7.326   9.123  68.812  1.00  0.00    -0.073 OA 
ENDBRANCH   6  11
ENDBRANCH   3   4
TORSDOF 2
ENDMDL
MODEL      119
REMARK 921   NORMALIZED FREE ENERGY PREDICTED BY IDOCK:   -3.73 KCAL/MOL
REMARK 922        TOTAL FREE ENERGY PREDICTED BY IDOCK:   -4.48 KCAL/MOL
REMARK 923 INTER-LIGAND FREE ENERGY PREDICTED BY IDOCK:   -4.14 KCAL/MOL
REMARK 924 INTRA-LIGAND FREE ENERGY PREDICTED BY IDOCK:   -0.34 KCAL/MOL
REMARK 927      BINDING AFFINITY PREDICTED BY RF-SCORE:    0.00 PKD
ROOT
HETATM    1  O5* UNL     1      -7.451  10.152  66.179  1.00  0.00    -0.104 OA 
HETATM    2  H5* UNL     1      -6.588  10.192  65.785  1.00  0.00     0.000 HD 
HETATM    3  C5* UNL     1      -7.428   9.454  67.423  1.00  0.00    -0.091 C  
ENDROOT
BRANCH   3   4
HETATM    4  C4* UNL     1      -8.816   9.390  68.056  1.00  0.00    -0.124 C  
HETATM    5  O4* UNL     1      -9.149  10.623  68.721  1.00  0.00    -0.155 OA 
HETATM    6  C1* UNL     1     -10.581  10.613  68.837  1.00  0.00    -0.212 C  
HETATM    7  H3* UNL     1     -10.987   7.595  66.421  1.00  0.00     0.000 HD 
HETATM    8  C2* UNL     1     -11.094   9.986  67.544  1.00  0.00    -0.190 C  
HETATM    9  C3* UNL     1      -9.939   9.135  67.054  1.00  0.00    -0.230 C  
HETATM   10  O3* UNL     1     -10.289   7.754  67.045  1.00  0.00    -0.279 OA 
BRANCH   6  11
HETATM   11  N   UNL     1     -11.120  11.943  69.110  1.00  0.00    -0.238 N  
HETATM   12  C   UNL     1     -11.118  14.300  68.690  1.00  0.00    -0.253 C  
HETATM   13  C   UNL     1     -10.720  13.057  68.388  1.00  0.00    -0.256 C  
HETATM   14  I   UNL     1     -10.479  15.941  67.651  1.00  0.00    -0.295 I  
HETATM   15  C   UNL     1     -12.037  14.471  69.849  1.00  0.00    -0.336 C  
HETATM   16  O   UNL     1     -12.414  15.562  70.262  1.00  0.00    -0.399 OA 
HETATM   17  N   UNL     1     -12.446  13.314  70.457  1.00  0.00    -0.296 N  
HETATM   18  C   UNL     1     -11.988  12.054  70.189  1.00  0.00    -0.321 C  
HETATM   19  H   UNL     1     -13.160  13.401  71.179  1.00  0.00     0.000 HD 
HETATM   20  O   UNL     1     -12.340  11.109  70.891  1.00  0.00    -0.360 OA 
ENDBRANCH   6  11
ENDBRANCH   3   4
TORSDOF 2
ENDMDL
MODEL      120
REMARK 921   NORMALIZED FREE ENERGY PREDICTED BY IDOCK:   -3.71 KCAL/MOL
REMARK 922        TOTAL FREE ENERGY PREDICTED BY IDOCK:   -4.46 KCAL/MOL
REMARK 923 INTER-LIGAND FREE ENERGY PREDICTED BY IDOCK:   -4.30 KCAL/MOL
REMARK 924 INTRA-LIGAND FREE ENERGY PREDICTED BY IDOCK:   -0.17 KCAL/MOL
REMARK 927      BINDING AFFINITY PREDICTED BY RF-SCORE:    0.00 PKD
ROOT
HETATM    1  O5* UNL     1     -12.097  14.178  67.585  1.00  0.00    -0.481 OA 
HETATM    2  H5* UNL     1     -12.777  14.676  68.023  1.00  0.00     0.000 HD 
HETATM    3  C5* UNL     1     -12.330  14.096  66.179  1.00  0.00    -0.436 C  
ENDROOT
BRANCH   3   4
HETATM    4  C4* UNL     1     -11.237  13.296  65.475  1.00  0.00    -0.287 C  
HETATM    5  O4* UNL     1     -10.416  12.583  66.418  1.00  0.00    -0.242 OA 
HETATM    6  C1* UNL     1      -9.782  11.544  65.655  1.00  0.00    -0.232 C  
HETATM    7  H3* UNL     1     -12.076  12.096  62.566  1.00  0.00     0.000 HD 
HETATM    8  C2* UNL     1     -10.835  11.065  64.660  1.00  0.00    -0.248 C  
HETATM    9  C3* UNL     1     -11.771  12.247  64.503  1.00  0.00    -0.353 C  
HETATM   10  O3* UNL     1     -11.743  12.749  63.170  1.00  0.00    -0.472 OA 
BRANCH   6  11
HETATM   11  N   UNL     1      -9.242  10.488  66.507  1.00  0.00    -0.159 N  
HETATM   12  C   UNL     1      -9.416   8.286  67.431  1.00  0.00    -0.151 C  
HETATM   13  C   UNL     1      -9.828   9.234  66.578  1.00  0.00    -0.263 C  
HETATM   14  I   UNL     1     -10.322   6.458  67.564  1.00  0.00    -0.406 I  
HETATM   15  C   UNL     1      -8.271   8.610  68.326  1.00  0.00    -0.122 C  
HETATM   16  O   UNL     1      -7.850   7.851  69.192  1.00  0.00    -0.105 OA 
HETATM   17  N   UNL     1      -7.700   9.839  68.137  1.00  0.00    -0.082 N  
HETATM   18  C   UNL     1      -8.162  10.828  67.312  1.00  0.00    -0.121 C  
HETATM   19  H   UNL     1      -6.848  10.037  68.660  1.00  0.00     0.000 HD 
HETATM   20  O   UNL     1      -7.633  11.937  67.324  1.00  0.00    -0.137 OA 
ENDBRANCH   6  11
ENDBRANCH   3   4
TORSDOF 2
ENDMDL
MODEL      121
REMARK 921   NORMALIZED FREE ENERGY PREDICTED BY IDOCK:   -3.70 KCAL/MOL
REMARK 922        TOTAL FREE ENERGY PREDICTED BY IDOCK:   -4.46 KCAL/MOL
REMARK 923 INTER-LIGAND FREE ENERGY PREDICTED BY IDOCK:   -4.14 KCAL/MOL
REMARK 924 INTRA-LIGAND FREE ENERGY PREDICTED BY IDOCK:   -0.31 KCAL/MOL
REMARK 927      BINDING AFFINITY PREDICTED BY RF-SCORE:    0.00 PKD
ROOT
HETATM    1  O5* UNL     1     -14.409   7.699  72.476  1.00  0.00    -0.577 OA 
HETATM    2  H5* UNL     1     -15.123   7.090  72.330  1.00  0.00     0.000 HD 
HETATM    3  C5* UNL     1     -13.416   7.597  71.455  1.00  0.00    -0.336 C  
ENDROOT
BRANCH   3   4
HETATM    4  C4* UNL     1     -12.267   8.576  71.690  1.00  0.00    -0.322 C  
HETATM    5  O4* UNL     1     -11.023   8.058  71.183  1.00  0.00    -0.235 OA 
HETATM    6  C1* UNL     1     -10.174   9.206  71.026  1.00  0.00    -0.302 C  
HETATM    7  H3* UNL     1     -13.093  11.722  71.534  1.00  0.00     0.000 HD 
HETATM    8  C2* UNL     1     -11.085  10.326  70.531  1.00  0.00    -0.381 C  
HETATM    9  C3* UNL     1     -12.465   9.931  71.016  1.00  0.00    -0.346 C  
HETATM   10  O3* UNL     1     -12.969  10.879  71.954  1.00  0.00    -0.458 OA 
BRANCH   6  11
HETATM   11  N   UNL     1      -9.036   8.933  70.152  1.00  0.00    -0.159 N  
HETATM   12  C   UNL     1      -8.180   8.177  68.048  1.00  0.00    -0.129 C  
HETATM   13  C   UNL     1      -9.203   8.536  68.835  1.00  0.00    -0.146 C  
HETATM   14  I   UNL     1      -8.444   7.543  66.122  1.00  0.00    -0.172 I  
HETATM   15  C   UNL     1      -6.810   8.222  68.629  1.00  0.00    -0.063 C  
HETATM   16  O   UNL     1      -5.806   7.852  68.031  1.00  0.00    -0.038 OA 
HETATM   17  N   UNL     1      -6.725   8.699  69.909  1.00  0.00    -0.041 N  
HETATM   18  C   UNL     1      -7.775   9.003  70.731  1.00  0.00    -0.128 C  
HETATM   19  H   UNL     1      -5.788   8.842  70.286  1.00  0.00     0.000 HD 
HETATM   20  O   UNL     1      -7.571   9.304  71.905  1.00  0.00    -0.309 OA 
ENDBRANCH   6  11
ENDBRANCH   3   4
TORSDOF 2
ENDMDL
MODEL      122
REMARK 921   NORMALIZED FREE ENERGY PREDICTED BY IDOCK:   -3.69 KCAL/MOL
REMARK 922        TOTAL FREE ENERGY PREDICTED BY IDOCK:   -4.44 KCAL/MOL
REMARK 923 INTER-LIGAND FREE ENERGY PREDICTED BY IDOCK:   -4.70 KCAL/MOL
REMARK 924 INTRA-LIGAND FREE ENERGY PREDICTED BY IDOCK:    0.27 KCAL/MOL
REMARK 927      BINDING AFFINITY PREDICTED BY RF-SCORE:    0.00 PKD
ROOT
HETATM    1  O5* UNL     1      -9.657  20.224  65.863  1.00  0.00    -0.615 OA 
HETATM    2  H5* UNL     1     -10.277  20.929  65.718  1.00  0.00     0.000 HD 
HETATM    3  C5* UNL     1      -9.857  19.602  67.131  1.00  0.00    -0.369 C  
ENDROOT
BRANCH   3   4
HETATM    4  C4* UNL     1      -8.859  18.469  67.364  1.00  0.00    -0.268 C  
HETATM    5  O4* UNL     1      -9.516  17.188  67.397  1.00  0.00    -0.242 OA 
HETATM    6  C1* UNL     1      -8.480  16.227  67.139  1.00  0.00    -0.187 C  
HETATM    7  H3* UNL     1      -5.919  18.940  66.046  1.00  0.00     0.000 HD 
HETATM    8  C2* UNL     1      -7.569  16.875  66.100  1.00  0.00    -0.230 C  
HETATM    9  C3* UNL     1      -7.785  18.364  66.285  1.00  0.00    -0.247 C  
HETATM   10  O3* UNL     1      -6.587  19.005  66.717  1.00  0.00    -0.188 OA 
BRANCH   6  11
HETATM   11  N   UNL     1      -9.019  14.932  66.735  1.00  0.00    -0.255 N  
HETATM   12  C   UNL     1      -8.909  12.541  66.784  1.00  0.00    -0.177 C  
HETATM   13  C   UNL     1      -8.504  13.741  67.221  1.00  0.00    -0.194 C  
HETATM   14  I   UNL     1      -8.104  10.791  67.471  1.00  0.00    -0.116 I  
HETATM   15  C   UNL     1      -9.967  12.506  65.737  1.00  0.00    -0.259 C  
HETATM   16  O   UNL     1     -10.369  11.474  65.212  1.00  0.00    -0.250 OA 
HETATM   17  N   UNL     1     -10.477  13.722  65.369  1.00  0.00    -0.315 N  
HETATM   18  C   UNL     1     -10.017  14.946  65.769  1.00  0.00    -0.347 C  
HETATM   19  H   UNL     1     -11.277  13.714  64.737  1.00  0.00     0.000 HD 
HETATM   20  O   UNL     1     -10.479  15.970  65.270  1.00  0.00    -0.447 OA 
ENDBRANCH   6  11
ENDBRANCH   3   4
TORSDOF 2
ENDMDL
MODEL      123
REMARK 921   NORMALIZED FREE ENERGY PREDICTED BY IDOCK:   -3.68 KCAL/MOL
REMARK 922        TOTAL FREE ENERGY PREDICTED BY IDOCK:   -4.43 KCAL/MOL
REMARK 923 INTER-LIGAND FREE ENERGY PREDICTED BY IDOCK:   -4.10 KCAL/MOL
REMARK 924 INTRA-LIGAND FREE ENERGY PREDICTED BY IDOCK:   -0.34 KCAL/MOL
REMARK 927      BINDING AFFINITY PREDICTED BY RF-SCORE:    0.00 PKD
ROOT
HETATM    1  O5* UNL     1     -11.484  12.091  70.318  1.00  0.00    -0.515 OA 
HETATM    2  H5* UNL     1     -11.770  12.981  70.483  1.00  0.00     0.000 HD 
HETATM    3  C5* UNL     1     -12.305  11.141  70.996  1.00  0.00    -0.382 C  
ENDROOT
BRANCH   3   4
HETATM    4  C4* UNL     1     -11.844   9.710  70.730  1.00  0.00    -0.300 C  
HETATM    5  O4* UNL     1     -11.487   9.521  69.347  1.00  0.00    -0.027 OA 
HETATM    6  C1* UNL     1     -10.651   8.352  69.331  1.00  0.00    -0.197 C  
HETATM    7  H3* UNL     1     -10.256   8.299  73.198  1.00  0.00     0.000 HD 
HETATM    8  C2* UNL     1      -9.803   8.436  70.597  1.00  0.00    -0.208 C  
HETATM    9  C3* UNL     1     -10.619   9.296  71.542  1.00  0.00    -0.335 C  
HETATM   10  O3* UNL     1     -11.018   8.556  72.693  1.00  0.00    -0.315 OA 
BRANCH   6  11
HETATM   11  N   UNL     1      -9.875   8.248  68.099  1.00  0.00    -0.166 N  
HETATM   12  C   UNL     1      -8.081   9.021  66.715  1.00  0.00    -0.111 C  
HETATM   13  C   UNL     1      -8.745   9.021  67.878  1.00  0.00    -0.129 C  
HETATM   14  I   UNL     1      -6.448  10.205  66.382  1.00  0.00    -0.103 I  
HETATM   15  C   UNL     1      -8.587   8.139  65.627  1.00  0.00    -0.158 C  
HETATM   16  O   UNL     1      -8.105   8.105  64.501  1.00  0.00    -0.147 OA 
HETATM   17  N   UNL     1      -9.657   7.351  65.954  1.00  0.00    -0.397 N  
HETATM   18  C   UNL     1     -10.373   7.400  67.118  1.00  0.00    -0.307 C  
HETATM   19  H   UNL     1      -9.949   6.661  65.262  1.00  0.00     0.000 HD 
HETATM   20  O   UNL     1     -11.393   6.727  67.243  1.00  0.00    -0.300 OA 
ENDBRANCH   6  11
ENDBRANCH   3   4
TORSDOF 2
ENDMDL
MODEL      124
REMARK 921   NORMALIZED FREE ENERGY PREDICTED BY IDOCK:   -3.68 KCAL/MOL
REMARK 922        TOTAL FREE ENERGY PREDICTED BY IDOCK:   -4.43 KCAL/MOL
REMARK 923 INTER-LIGAND FREE ENERGY PREDICTED BY IDOCK:   -4.72 KCAL/MOL
REMARK 924 INTRA-LIGAND FREE ENERGY PREDICTED BY IDOCK:    0.29 KCAL/MOL
REMARK 927      BINDING AFFINITY PREDICTED BY RF-SCORE:    0.00 PKD
ROOT
HETATM    1  O5* UNL     1     -14.157   9.015  72.987  1.00  0.00    -1.086 OA 
HETATM    2  H5* UNL     1     -15.055   9.120  73.275  1.00  0.00     0.000 HD 
HETATM    3  C5* UNL     1     -14.027   7.943  72.053  1.00  0.00    -0.273 C  
ENDROOT
BRANCH   3   4
HETATM    4  C4* UNL     1     -12.582   7.774  71.590  1.00  0.00    -0.332 C  
HETATM    5  O4* UNL     1     -12.349   8.445  70.337  1.00  0.00     0.198 OA 
HETATM    6  C1* UNL     1     -10.925   8.621  70.264  1.00  0.00    -0.236 C  
HETATM    7  H3* UNL     1     -10.381   7.642  73.987  1.00  0.00     0.000 HD 
HETATM    8  C2* UNL     1     -10.477   8.943  71.687  1.00  0.00    -0.408 C  
HETATM    9  C3* UNL     1     -11.552   8.336  72.567  1.00  0.00    -0.385 C  
HETATM   10  O3* UNL     1     -11.021   7.292  73.379  1.00  0.00    -0.358 OA 
BRANCH   6  11
HETATM   11  N   UNL     1     -10.545   9.628  69.278  1.00  0.00    -0.213 N  
HETATM   12  C   UNL     1      -8.994  10.441  67.646  1.00  0.00    -0.138 C  
HETATM   13  C   UNL     1      -9.421   9.484  68.479  1.00  0.00    -0.141 C  
HETATM   14  I   UNL     1      -7.304  10.238  66.513  1.00  0.00    -0.131 I  
HETATM   15  C   UNL     1      -9.779  11.705  67.580  1.00  0.00    -0.180 C  
HETATM   16  O   UNL     1      -9.449  12.675  66.908  1.00  0.00    -0.215 OA 
HETATM   17  N   UNL     1     -10.918  11.735  68.340  1.00  0.00    -0.216 N  
HETATM   18  C   UNL     1     -11.316  10.783  69.238  1.00  0.00    -0.286 C  
HETATM   19  H   UNL     1     -11.527  12.544  68.224  1.00  0.00     0.000 HD 
HETATM   20  O   UNL     1     -12.295  10.984  69.953  1.00  0.00    -0.322 OA 
ENDBRANCH   6  11
ENDBRANCH   3   4
TORSDOF 2
ENDMDL
MODEL      125
REMARK 921   NORMALIZED FREE ENERGY PREDICTED BY IDOCK:   -3.66 KCAL/MOL
REMARK 922        TOTAL FREE ENERGY PREDICTED BY IDOCK:   -4.41 KCAL/MOL
REMARK 923 INTER-LIGAND FREE ENERGY PREDICTED BY IDOCK:   -4.09 KCAL/MOL
REMARK 924 INTRA-LIGAND FREE ENERGY PREDICTED BY IDOCK:   -0.32 KCAL/MOL
REMARK 927      BINDING AFFINITY PREDICTED BY RF-SCORE:    0.00 PKD
ROOT
HETATM    1  O5* UNL     1      -6.601  10.774  63.873  1.00  0.00    -0.354 OA 
HETATM    2  H5* UNL     1      -5.660  10.872  63.790  1.00  0.00     0.000 HD 
HETATM    3  C5* UNL     1      -6.941   9.738  64.793  1.00  0.00    -0.122 C  
ENDROOT
BRANCH   3   4
HETATM    4  C4* UNL     1      -8.454   9.581  64.927  1.00  0.00    -0.158 C  
HETATM    5  O4* UNL     1      -8.794   8.508  65.826  1.00  0.00    -0.175 OA 
HETATM    6  C1* UNL     1     -10.149   8.769  66.228  1.00  0.00    -0.184 C  
HETATM    7  H3* UNL     1     -10.143  12.359  64.735  1.00  0.00     0.000 HD 
HETATM    8  C2* UNL     1     -10.249  10.285  66.372  1.00  0.00    -0.290 C  
HETATM    9  C3* UNL     1      -9.157  10.823  65.469  1.00  0.00    -0.199 C  
HETATM   10  O3* UNL     1      -9.706  11.586  64.398  1.00  0.00    -0.234 OA 
BRANCH   6  11
HETATM   11  N   UNL     1     -10.517   8.030  67.432  1.00  0.00    -0.280 N  
HETATM   12  C   UNL     1     -10.834   7.970  69.805  1.00  0.00    -0.194 C  
HETATM   13  C   UNL     1     -10.604   8.646  68.671  1.00  0.00    -0.129 C  
HETATM   14  I   UNL     1     -10.906   8.882  71.633  1.00  0.00    -0.399 I  
HETATM   15  C   UNL     1     -11.012   6.495  69.707  1.00  0.00    -0.338 C  
HETATM   16  O   UNL     1     -11.159   5.763  70.680  1.00  0.00    -0.278 OA 
HETATM   17  N   UNL     1     -10.991   5.977  68.440  1.00  0.00    -0.292 N  
HETATM   18  C   UNL     1     -10.692   6.659  67.293  1.00  0.00    -0.357 C  
HETATM   19  H   UNL     1     -11.221   4.989  68.342  1.00  0.00     0.000 HD 
HETATM   20  O   UNL     1     -10.582   6.055  66.228  1.00  0.00    -0.102 OA 
ENDBRANCH   6  11
ENDBRANCH   3   4
TORSDOF 2
ENDMDL
MODEL      126
REMARK 921   NORMALIZED FREE ENERGY PREDICTED BY IDOCK:   -3.65 KCAL/MOL
REMARK 922        TOTAL FREE ENERGY PREDICTED BY IDOCK:   -4.40 KCAL/MOL
REMARK 923 INTER-LIGAND FREE ENERGY PREDICTED BY IDOCK:   -3.94 KCAL/MOL
REMARK 924 INTRA-LIGAND FREE ENERGY PREDICTED BY IDOCK:   -0.46 KCAL/MOL
REMARK 927      BINDING AFFINITY PREDICTED BY RF-SCORE:    0.00 PKD
ROOT
HETATM    1  O5* UNL     1      -6.745   7.962  64.230  1.00  0.00    -0.059 OA 
HETATM    2  H5* UNL     1      -6.217   8.197  63.476  1.00  0.00     0.000 HD 
HETATM    3  C5* UNL     1      -6.955   9.080  65.092  1.00  0.00    -0.080 C  
ENDROOT
BRANCH   3   4
HETATM    4  C4* UNL     1      -7.804   8.702  66.304  1.00  0.00    -0.102 C  
HETATM    5  O4* UNL     1      -8.304   9.871  66.981  1.00  0.00    -0.120 OA 
HETATM    6  C1* UNL     1      -9.422   9.407  67.755  1.00  0.00    -0.132 C  
HETATM    7  H3* UNL     1      -9.517   5.953  65.975  1.00  0.00     0.000 HD 
HETATM    8  C2* UNL     1     -10.116   8.361  66.888  1.00  0.00    -0.364 C  
HETATM    9  C3* UNL     1      -9.028   7.858  65.960  1.00  0.00    -0.154 C  
HETATM   10  O3* UNL     1      -8.756   6.478  66.189  1.00  0.00    -0.139 OA 
BRANCH   6  11
HETATM   11  N   UNL     1     -10.291  10.503  68.177  1.00  0.00    -0.164 N  
HETATM   12  C   UNL     1     -11.412  12.560  67.683  1.00  0.00    -0.334 C  
HETATM   13  C   UNL     1     -10.705  11.489  67.296  1.00  0.00    -0.244 C  
HETATM   14  I   UNL     1     -11.971  14.036  66.384  1.00  0.00    -0.440 I  
HETATM   15  C   UNL     1     -11.766  12.671  69.125  1.00  0.00    -0.321 C  
HETATM   16  O   UNL     1     -12.348  13.636  69.609  1.00  0.00    -0.296 OA 
HETATM   17  N   UNL     1     -11.388  11.617  69.912  1.00  0.00    -0.476 N  
HETATM   18  C   UNL     1     -10.611  10.559  69.527  1.00  0.00    -0.246 C  
HETATM   19  H   UNL     1     -11.717  11.621  70.877  1.00  0.00     0.000 HD 
HETATM   20  O   UNL     1     -10.234   9.737  70.360  1.00  0.00    -0.269 OA 
ENDBRANCH   6  11
ENDBRANCH   3   4
TORSDOF 2
ENDMDL
MODEL      127
REMARK 921   NORMALIZED FREE ENERGY PREDICTED BY IDOCK:   -3.64 KCAL/MOL
REMARK 922        TOTAL FREE ENERGY PREDICTED BY IDOCK:   -4.38 KCAL/MOL
REMARK 923 INTER-LIGAND FREE ENERGY PREDICTED BY IDOCK:   -4.72 KCAL/MOL
REMARK 924 INTRA-LIGAND FREE ENERGY PREDICTED BY IDOCK:    0.34 KCAL/MOL
REMARK 927      BINDING AFFINITY PREDICTED BY RF-SCORE:    0.00 PKD
ROOT
HETATM    1  O5* UNL     1     -10.887  15.402  66.769  1.00  0.00    -0.310 OA 
HETATM    2  H5* UNL     1     -11.442  16.168  66.848  1.00  0.00     0.000 HD 
HETATM    3  C5* UNL     1     -11.354  14.518  65.750  1.00  0.00    -0.336 C  
ENDROOT
BRANCH   3   4
HETATM    4  C4* UNL     1     -10.460  13.286  65.624  1.00  0.00    -0.281 C  
HETATM    5  O4* UNL     1     -10.296  12.622  66.891  1.00  0.00    -0.231 OA 
HETATM    6  C1* UNL     1      -9.874  11.289  66.566  1.00  0.00    -0.208 C  
HETATM    7  H3* UNL     1     -10.707  11.699  62.791  1.00  0.00     0.000 HD 
HETATM    8  C2* UNL     1     -10.655  10.905  65.312  1.00  0.00    -0.259 C  
HETATM    9  C3* UNL     1     -11.000  12.230  64.662  1.00  0.00    -0.306 C  
HETATM   10  O3* UNL     1     -10.371  12.355  63.389  1.00  0.00    -0.413 OA 
BRANCH   6  11
HETATM   11  N   UNL     1     -10.052  10.367  67.684  1.00  0.00    -0.180 N  
HETATM   12  C   UNL     1      -9.324   8.448  68.917  1.00  0.00    -0.147 C  
HETATM   13  C   UNL     1      -9.130   9.371  67.966  1.00  0.00    -0.127 C  
HETATM   14  I   UNL     1      -7.981   6.951  69.287  1.00  0.00    -0.117 I  
HETATM   15  C   UNL     1     -10.587   8.518  69.703  1.00  0.00    -0.220 C  
HETATM   16  O   UNL     1     -10.906   7.692  70.550  1.00  0.00    -0.232 OA 
HETATM   17  N   UNL     1     -11.405   9.577  69.416  1.00  0.00    -0.443 N  
HETATM   18  C   UNL     1     -11.236  10.479  68.402  1.00  0.00    -0.279 C  
HETATM   19  H   UNL     1     -12.219   9.707  70.017  1.00  0.00     0.000 HD 
HETATM   20  O   UNL     1     -12.108  11.312  68.168  1.00  0.00    -0.635 OA 
ENDBRANCH   6  11
ENDBRANCH   3   4
TORSDOF 2
ENDMDL
MODEL      128
REMARK 921   NORMALIZED FREE ENERGY PREDICTED BY IDOCK:   -3.62 KCAL/MOL
REMARK 922        TOTAL FREE ENERGY PREDICTED BY IDOCK:   -4.36 KCAL/MOL
REMARK 923 INTER-LIGAND FREE ENERGY PREDICTED BY IDOCK:   -4.18 KCAL/MOL
REMARK 924 INTRA-LIGAND FREE ENERGY PREDICTED BY IDOCK:   -0.19 KCAL/MOL
REMARK 927      BINDING AFFINITY PREDICTED BY RF-SCORE:    0.00 PKD
ROOT
HETATM    1  O5* UNL     1     -12.587   7.939  72.341  1.00  0.00    -0.506 OA 
HETATM    2  H5* UNL     1     -12.665   7.054  72.676  1.00  0.00     0.000 HD 
HETATM    3  C5* UNL     1     -11.279   8.193  71.829  1.00  0.00    -0.272 C  
ENDROOT
BRANCH   3   4
HETATM    4  C4* UNL     1     -11.154   9.617  71.290  1.00  0.00    -0.355 C  
HETATM    5  O4* UNL     1     -10.330   9.662  70.110  1.00  0.00    -0.229 OA 
HETATM    6  C1* UNL     1     -10.676  10.894  69.457  1.00  0.00    -0.206 C  
HETATM    7  H3* UNL     1     -13.797  11.475  71.701  1.00  0.00     0.000 HD 
HETATM    8  C2* UNL     1     -12.182  11.053  69.651  1.00  0.00    -0.370 C  
HETATM    9  C3* UNL     1     -12.488  10.245  70.897  1.00  0.00    -0.370 C  
HETATM   10  O3* UNL     1     -12.967  11.083  71.946  1.00  0.00    -0.457 OA 
BRANCH   6  11
HETATM   11  N   UNL     1     -10.249  10.915  68.061  1.00  0.00    -0.173 N  
HETATM   12  C   UNL     1      -9.190   9.833  66.207  1.00  0.00    -0.164 C  
HETATM   13  C   UNL     1      -9.687   9.805  67.451  1.00  0.00    -0.163 C  
HETATM   14  I   UNL     1      -8.314   8.203  65.337  1.00  0.00    -0.108 I  
HETATM   15  C   UNL     1      -9.264  11.118  65.460  1.00  0.00    -0.216 C  
HETATM   16  O   UNL     1      -8.783  11.284  64.344  1.00  0.00     0.081 OA 
HETATM   17  N   UNL     1      -9.905  12.142  66.104  1.00  0.00    -0.233 N  
HETATM   18  C   UNL     1     -10.352  12.130  67.396  1.00  0.00    -0.205 C  
HETATM   19  H   UNL     1     -10.065  12.995  65.568  1.00  0.00     0.000 HD 
HETATM   20  O   UNL     1     -10.800  13.157  67.902  1.00  0.00    -0.233 OA 
ENDBRANCH   6  11
ENDBRANCH   3   4
TORSDOF 2
ENDMDL
MODEL      129
REMARK 921   NORMALIZED FREE ENERGY PREDICTED BY IDOCK:   -3.61 KCAL/MOL
REMARK 922        TOTAL FREE ENERGY PREDICTED BY IDOCK:   -4.35 KCAL/MOL
REMARK 923 INTER-LIGAND FREE ENERGY PREDICTED BY IDOCK:   -4.55 KCAL/MOL
REMARK 924 INTRA-LIGAND FREE ENERGY PREDICTED BY IDOCK:    0.20 KCAL/MOL
REMARK 927      BINDING AFFINITY PREDICTED BY RF-SCORE:    0.00 PKD
ROOT
HETATM    1  O5* UNL     1     -10.869  15.797  65.782  1.00  0.00    -0.322 OA 
HETATM    2  H5* UNL     1     -10.388  16.511  65.381  1.00  0.00     0.000 HD 
HETATM    3  C5* UNL     1     -10.911  15.924  67.203  1.00  0.00    -0.214 C  
ENDROOT
BRANCH   3   4
HETATM    4  C4* UNL     1     -11.684  14.776  67.847  1.00  0.00    -0.341 C  
HETATM    5  O4* UNL     1     -11.333  13.509  67.258  1.00  0.00    -0.291 OA 
HETATM    6  C1* UNL     1     -11.729  12.523  68.224  1.00  0.00    -0.340 C  
HETATM    7  H3* UNL     1     -12.322  15.160  71.018  1.00  0.00     0.000 HD 
HETATM    8  C2* UNL     1     -11.411  13.132  69.587  1.00  0.00    -0.261 C  
HETATM    9  C3* UNL     1     -11.432  14.628  69.346  1.00  0.00    -0.296 C  
HETATM   10  O3* UNL     1     -12.478  15.252  70.085  1.00  0.00    -0.355 OA 
BRANCH   6  11
HETATM   11  N   UNL     1     -11.090  11.231  67.985  1.00  0.00    -0.243 N  
HETATM   12  C   UNL     1      -9.815   9.788  66.562  1.00  0.00    -0.225 C  
HETATM   13  C   UNL     1     -10.321  10.993  66.857  1.00  0.00    -0.235 C  
HETATM   14  I   UNL     1      -8.727   9.437  64.868  1.00  0.00    -0.212 I  
HETATM   15  C   UNL     1     -10.094   8.670  67.506  1.00  0.00    -0.216 C  
HETATM   16  O   UNL     1      -9.744   7.512  67.309  1.00  0.00    -0.147 OA 
HETATM   17  N   UNL     1     -10.793   9.008  68.634  1.00  0.00    -0.428 N  
HETATM   18  C   UNL     1     -11.363  10.222  68.899  1.00  0.00    -0.173 C  
HETATM   19  H   UNL     1     -10.898   8.284  69.344  1.00  0.00     0.000 HD 
HETATM   20  O   UNL     1     -12.074  10.365  69.891  1.00  0.00    -0.250 OA 
ENDBRANCH   6  11
ENDBRANCH   3   4
TORSDOF 2
ENDMDL
MODEL      130
REMARK 921   NORMALIZED FREE ENERGY PREDICTED BY IDOCK:   -3.59 KCAL/MOL
REMARK 922        TOTAL FREE ENERGY PREDICTED BY IDOCK:   -4.33 KCAL/MOL
REMARK 923 INTER-LIGAND FREE ENERGY PREDICTED BY IDOCK:   -4.30 KCAL/MOL
REMARK 924 INTRA-LIGAND FREE ENERGY PREDICTED BY IDOCK:   -0.03 KCAL/MOL
REMARK 927      BINDING AFFINITY PREDICTED BY RF-SCORE:    0.00 PKD
ROOT
HETATM    1  O5* UNL     1     -12.392  11.047  68.247  1.00  0.00    -0.717 OA 
HETATM    2  H5* UNL     1     -12.839  11.167  67.418  1.00  0.00     0.000 HD 
HETATM    3  C5* UNL     1     -11.058  10.575  68.061  1.00  0.00    -0.300 C  
ENDROOT
BRANCH   3   4
HETATM    4  C4* UNL     1     -10.339  10.382  69.395  1.00  0.00    -0.237 C  
HETATM    5  O4* UNL     1     -10.929   9.315  70.161  1.00  0.00    -0.235 OA 
HETATM    6  C1* UNL     1      -9.920   8.929  71.107  1.00  0.00    -0.272 C  
HETATM    7  H3* UNL     1      -7.139  10.980  69.327  1.00  0.00     0.000 HD 
HETATM    8  C2* UNL     1      -8.594   9.029  70.358  1.00  0.00    -0.215 C  
HETATM    9  C3* UNL     1      -8.860  10.031  69.253  1.00  0.00    -0.178 C  
HETATM   10  O3* UNL     1      -8.059  11.199  69.416  1.00  0.00    -0.019 OA 
BRANCH   6  11
HETATM   11  N   UNL     1     -10.181   7.613  71.684  1.00  0.00    -0.184 N  
HETATM   12  C   UNL     1      -9.593   5.304  71.915  1.00  0.00    -0.152 C  
HETATM   13  C   UNL     1      -9.321   6.544  71.488  1.00  0.00    -0.147 C  
HETATM   14  I   UNL     1      -8.342   3.724  71.573  1.00  0.00    -0.103 I  
HETATM   15  C   UNL     1     -10.876   5.087  72.640  1.00  0.00    -0.226 C  
HETATM   16  O   UNL     1     -11.265   3.987  73.017  1.00  0.00    -0.135 OA 
HETATM   17  N   UNL     1     -11.629   6.208  72.860  1.00  0.00    -0.495 N  
HETATM   18  C   UNL     1     -11.381   7.459  72.367  1.00  0.00    -0.297 C  
HETATM   19  H   UNL     1     -12.455   6.100  73.449  1.00  0.00     0.000 HD 
HETATM   20  O   UNL     1     -12.201   8.360  72.532  1.00  0.00    -0.386 OA 
ENDBRANCH   6  11
ENDBRANCH   3   4
TORSDOF 2
ENDMDL
MODEL      131
REMARK 921   NORMALIZED FREE ENERGY PREDICTED BY IDOCK:   -3.59 KCAL/MOL
REMARK 922        TOTAL FREE ENERGY PREDICTED BY IDOCK:   -4.32 KCAL/MOL
REMARK 923 INTER-LIGAND FREE ENERGY PREDICTED BY IDOCK:   -4.56 KCAL/MOL
REMARK 924 INTRA-LIGAND FREE ENERGY PREDICTED BY IDOCK:    0.24 KCAL/MOL
REMARK 927      BINDING AFFINITY PREDICTED BY RF-SCORE:    0.00 PKD
ROOT
HETATM    1  O5* UNL     1     -13.592   8.941  73.224  1.00  0.00    -1.012 OA 
HETATM    2  H5* UNL     1     -14.359   9.479  73.379  1.00  0.00     0.000 HD 
HETATM    3  C5* UNL     1     -13.747   8.126  72.063  1.00  0.00    -0.295 C  
ENDROOT
BRANCH   3   4
HETATM    4  C4* UNL     1     -12.514   7.260  71.816  1.00  0.00    -0.343 C  
HETATM    5  O4* UNL     1     -12.296   7.045  70.409  1.00  0.00    -0.208 OA 
HETATM    6  C1* UNL     1     -10.916   6.662  70.296  1.00  0.00    -0.303 C  
HETATM    7  H3* UNL     1     -10.097   7.672  73.960  1.00  0.00     0.000 HD 
HETATM    8  C2* UNL     1     -10.169   7.510  71.322  1.00  0.00    -0.198 C  
HETATM    9  C3* UNL     1     -11.220   7.864  72.355  1.00  0.00    -0.350 C  
HETATM   10  O3* UNL     1     -10.903   7.297  73.624  1.00  0.00    -0.356 OA 
BRANCH   6  11
HETATM   11  N   UNL     1     -10.416   6.799  68.931  1.00  0.00    -0.195 N  
HETATM   12  C   UNL     1      -9.505   5.804  66.953  1.00  0.00    -0.133 C  
HETATM   13  C   UNL     1     -10.066   5.698  68.165  1.00  0.00    -0.168 C  
HETATM   14  I   UNL     1      -8.943   4.173  65.856  1.00  0.00    -0.155 I  
HETATM   15  C   UNL     1      -9.265   7.173  66.418  1.00  0.00    -0.157 C  
HETATM   16  O   UNL     1      -8.698   7.396  65.355  1.00  0.00    -0.090 OA 
HETATM   17  N   UNL     1      -9.712   8.202  67.202  1.00  0.00    -0.181 N  
HETATM   18  C   UNL     1     -10.224   8.094  68.465  1.00  0.00    -0.208 C  
HETATM   19  H   UNL     1      -9.658   9.140  66.805  1.00  0.00     0.000 HD 
HETATM   20  O   UNL     1     -10.474   9.105  69.117  1.00  0.00    -0.212 OA 
ENDBRANCH   6  11
ENDBRANCH   3   4
TORSDOF 2
ENDMDL
MODEL      132
REMARK 921   NORMALIZED FREE ENERGY PREDICTED BY IDOCK:   -3.57 KCAL/MOL
REMARK 922        TOTAL FREE ENERGY PREDICTED BY IDOCK:   -4.31 KCAL/MOL
REMARK 923 INTER-LIGAND FREE ENERGY PREDICTED BY IDOCK:   -4.71 KCAL/MOL
REMARK 924 INTRA-LIGAND FREE ENERGY PREDICTED BY IDOCK:    0.40 KCAL/MOL
REMARK 927      BINDING AFFINITY PREDICTED BY RF-SCORE:    0.00 PKD
ROOT
HETATM    1  O5* UNL     1      -9.082  10.866  63.668  1.00  0.00    -0.208 OA 
HETATM    2  H5* UNL     1      -9.330  10.302  62.946  1.00  0.00     0.000 HD 
HETATM    3  C5* UNL     1      -9.990  10.748  64.763  1.00  0.00    -0.320 C  
ENDROOT
BRANCH   3   4
HETATM    4  C4* UNL     1      -9.590  11.656  65.924  1.00  0.00    -0.229 C  
HETATM    5  O4* UNL     1     -10.719  11.965  66.763  1.00  0.00    -0.227 OA 
HETATM    6  C1* UNL     1     -10.153  12.386  68.014  1.00  0.00    -0.214 C  
HETATM    7  H3* UNL     1      -6.584  11.164  67.076  1.00  0.00     0.000 HD 
HETATM    8  C2* UNL     1      -8.937  11.492  68.237  1.00  0.00    -0.177 C  
HETATM    9  C3* UNL     1      -8.534  11.049  66.844  1.00  0.00    -0.139 C  
HETATM   10  O3* UNL     1      -7.241  11.541  66.504  1.00  0.00    -0.106 OA 
BRANCH   6  11
HETATM   11  N   UNL     1     -11.129  12.347  69.100  1.00  0.00    -0.231 N  
HETATM   12  C   UNL     1     -12.419  13.490  70.761  1.00  0.00    -0.353 C  
HETATM   13  C   UNL     1     -11.608  13.503  69.695  1.00  0.00    -0.275 C  
HETATM   14  I   UNL     1     -13.077  15.203  71.663  1.00  0.00    -0.635 I  
HETATM   15  C   UNL     1     -12.820  12.165  71.311  1.00  0.00    -0.250 C  
HETATM   16  O   UNL     1     -13.500  12.027  72.321  1.00  0.00    -0.465 OA 
HETATM   17  N   UNL     1     -12.367  11.075  70.617  1.00  0.00    -0.358 N  
HETATM   18  C   UNL     1     -11.488  11.090  69.570  1.00  0.00    -0.299 C  
HETATM   19  H   UNL     1     -12.720  10.164  70.910  1.00  0.00     0.000 HD 
HETATM   20  O   UNL     1     -11.059  10.034  69.111  1.00  0.00    -0.225 OA 
ENDBRANCH   6  11
ENDBRANCH   3   4
TORSDOF 2
ENDMDL
MODEL      133
REMARK 921   NORMALIZED FREE ENERGY PREDICTED BY IDOCK:   -3.53 KCAL/MOL
REMARK 922        TOTAL FREE ENERGY PREDICTED BY IDOCK:   -4.26 KCAL/MOL
REMARK 923 INTER-LIGAND FREE ENERGY PREDICTED BY IDOCK:   -3.96 KCAL/MOL
REMARK 924 INTRA-LIGAND FREE ENERGY PREDICTED BY IDOCK:   -0.30 KCAL/MOL
REMARK 927      BINDING AFFINITY PREDICTED BY RF-SCORE:    0.00 PKD
ROOT
HETATM    1  O5* UNL     1     -13.442  11.328  72.270  1.00  0.00    -0.604 OA 
HETATM    2  H5* UNL     1     -14.331  11.281  72.601  1.00  0.00     0.000 HD 
HETATM    3  C5* UNL     1     -13.045  10.101  71.657  1.00  0.00    -0.447 C  
ENDROOT
BRANCH   3   4
HETATM    4  C4* UNL     1     -11.616  10.177  71.124  1.00  0.00    -0.346 C  
HETATM    5  O4* UNL     1     -10.782   9.160  71.712  1.00  0.00    -0.355 OA 
HETATM    6  C1* UNL     1      -9.665   9.028  70.818  1.00  0.00    -0.246 C  
HETATM    7  H3* UNL     1     -11.357  11.133  68.022  1.00  0.00     0.000 HD 
HETATM    8  C2* UNL     1     -10.243   9.181  69.414  1.00  0.00    -0.212 C  
HETATM    9  C3* UNL     1     -11.511   9.987  69.613  1.00  0.00    -0.155 C  
HETATM   10  O3* UNL     1     -11.422  11.251  68.962  1.00  0.00    -0.244 OA 
BRANCH   6  11
HETATM   11  N   UNL     1      -8.936   7.780  71.030  1.00  0.00    -0.141 N  
HETATM   12  C   UNL     1      -8.690   5.434  70.618  1.00  0.00    -0.128 C  
HETATM   13  C   UNL     1      -9.272   6.613  70.361  1.00  0.00    -0.156 C  
HETATM   14  I   UNL     1      -9.231   3.710  69.663  1.00  0.00    -0.223 I  
HETATM   15  C   UNL     1      -7.630   5.399  71.664  1.00  0.00    -0.104 C  
HETATM   16  O   UNL     1      -7.075   4.370  72.033  1.00  0.00    -0.055 OA 
HETATM   17  N   UNL     1      -7.304   6.607  72.219  1.00  0.00    -0.088 N  
HETATM   18  C   UNL     1      -7.944   7.795  72.002  1.00  0.00    -0.105 C  
HETATM   19  H   UNL     1      -6.507   6.621  72.854  1.00  0.00     0.000 HD 
HETATM   20  O   UNL     1      -7.636   8.789  72.657  1.00  0.00    -0.353 OA 
ENDBRANCH   6  11
ENDBRANCH   3   4
TORSDOF 2
ENDMDL
MODEL      134
REMARK 921   NORMALIZED FREE ENERGY PREDICTED BY IDOCK:   -3.52 KCAL/MOL
REMARK 922        TOTAL FREE ENERGY PREDICTED BY IDOCK:   -4.25 KCAL/MOL
REMARK 923 INTER-LIGAND FREE ENERGY PREDICTED BY IDOCK:   -3.93 KCAL/MOL
REMARK 924 INTRA-LIGAND FREE ENERGY PREDICTED BY IDOCK:   -0.32 KCAL/MOL
REMARK 927      BINDING AFFINITY PREDICTED BY RF-SCORE:    0.00 PKD
ROOT
HETATM    1  O5* UNL     1      -7.783   8.495  73.035  1.00  0.00    -0.320 OA 
HETATM    2  H5* UNL     1      -7.064   8.253  73.606  1.00  0.00     0.000 HD 
HETATM    3  C5* UNL     1      -9.001   7.864  73.430  1.00  0.00    -0.277 C  
ENDROOT
BRANCH   3   4
HETATM    4  C4* UNL     1     -10.158   8.253  72.512  1.00  0.00    -0.306 C  
HETATM    5  O4* UNL     1      -9.842   9.424  71.735  1.00  0.00    -0.206 OA 
HETATM    6  C1* UNL     1     -10.753   9.395  70.625  1.00  0.00    -0.290 C  
HETATM    7  H3* UNL     1     -11.892   5.751  71.356  1.00  0.00     0.000 HD 
HETATM    8  C2* UNL     1     -10.884   7.925  70.238  1.00  0.00    -0.241 C  
HETATM    9  C3* UNL     1     -10.537   7.169  71.506  1.00  0.00    -0.207 C  
HETATM   10  O3* UNL     1     -11.656   6.425  71.981  1.00  0.00    -0.292 OA 
BRANCH   6  11
HETATM   11  N   UNL     1     -10.318  10.262  69.534  1.00  0.00    -0.230 N  
HETATM   12  C   UNL     1      -8.582  11.045  68.082  1.00  0.00    -0.140 C  
HETATM   13  C   UNL     1      -9.038  10.190  69.007  1.00  0.00    -0.173 C  
HETATM   14  I   UNL     1      -6.674  10.962  67.353  1.00  0.00    -0.097 I  
HETATM   15  C   UNL     1      -9.510  12.107  67.604  1.00  0.00    -0.187 C  
HETATM   16  O   UNL     1      -9.187  12.985  66.812  1.00  0.00    -0.229 OA 
HETATM   17  N   UNL     1     -10.779  12.059  68.114  1.00  0.00    -0.207 N  
HETATM   18  C   UNL     1     -11.221  11.227  69.105  1.00  0.00    -0.273 C  
HETATM   19  H   UNL     1     -11.460  12.706  67.718  1.00  0.00     0.000 HD 
HETATM   20  O   UNL     1     -12.352  11.366  69.567  1.00  0.00    -0.252 OA 
ENDBRANCH   6  11
ENDBRANCH   3   4
TORSDOF 2
ENDMDL
MODEL      135
REMARK 921   NORMALIZED FREE ENERGY PREDICTED BY IDOCK:   -3.51 KCAL/MOL
REMARK 922        TOTAL FREE ENERGY PREDICTED BY IDOCK:   -4.24 KCAL/MOL
REMARK 923 INTER-LIGAND FREE ENERGY PREDICTED BY IDOCK:   -3.88 KCAL/MOL
REMARK 924 INTRA-LIGAND FREE ENERGY PREDICTED BY IDOCK:   -0.37 KCAL/MOL
REMARK 927      BINDING AFFINITY PREDICTED BY RF-SCORE:    0.00 PKD
ROOT
HETATM    1  O5* UNL     1      -8.429   8.184  71.634  1.00  0.00    -0.114 OA 
HETATM    2  H5* UNL     1      -8.441   8.081  72.578  1.00  0.00     0.000 HD 
HETATM    3  C5* UNL     1      -9.499   9.015  71.184  1.00  0.00    -0.278 C  
ENDROOT
BRANCH   3   4
HETATM    4  C4* UNL     1      -9.480   9.181  69.666  1.00  0.00    -0.172 C  
HETATM    5  O4* UNL     1     -10.132  10.400  69.262  1.00  0.00    -0.209 OA 
HETATM    6  C1* UNL     1      -9.640  10.669  67.939  1.00  0.00    -0.162 C  
HETATM    7  H3* UNL     1      -6.833   7.992  68.189  1.00  0.00     0.000 HD 
HETATM    8  C2* UNL     1      -8.170  10.261  67.957  1.00  0.00    -0.113 C  
HETATM    9  C3* UNL     1      -8.076   9.236  69.070  1.00  0.00    -0.106 C  
HETATM   10  O3* UNL     1      -7.706   7.958  68.560  1.00  0.00    -0.109 OA 
BRANCH   6  11
HETATM   11  N   UNL     1      -9.870  12.054  67.538  1.00  0.00    -0.184 N  
HETATM   12  C   UNL     1      -9.053  14.287  67.255  1.00  0.00    -0.215 C  
HETATM   13  C   UNL     1      -8.847  12.989  67.515  1.00  0.00    -0.195 C  
HETATM   14  I   UNL     1      -7.543  15.665  67.277  1.00  0.00    -0.214 I  
HETATM   15  C   UNL     1     -10.448  14.723  66.971  1.00  0.00    -0.270 C  
HETATM   16  O   UNL     1     -10.770  15.892  66.788  1.00  0.00    -0.321 OA 
HETATM   17  N   UNL     1     -11.385  13.726  66.935  1.00  0.00    -0.317 N  
HETATM   18  C   UNL     1     -11.183  12.414  67.264  1.00  0.00    -0.303 C  
HETATM   19  H   UNL     1     -12.323  13.987  66.634  1.00  0.00     0.000 HD 
HETATM   20  O   UNL     1     -12.135  11.638  67.314  1.00  0.00    -0.595 OA 
ENDBRANCH   6  11
ENDBRANCH   3   4
TORSDOF 2
ENDMDL
MODEL      136
REMARK 921   NORMALIZED FREE ENERGY PREDICTED BY IDOCK:   -3.50 KCAL/MOL
REMARK 922        TOTAL FREE ENERGY PREDICTED BY IDOCK:   -4.23 KCAL/MOL
REMARK 923 INTER-LIGAND FREE ENERGY PREDICTED BY IDOCK:   -3.80 KCAL/MOL
REMARK 924 INTRA-LIGAND FREE ENERGY PREDICTED BY IDOCK:   -0.43 KCAL/MOL
REMARK 927      BINDING AFFINITY PREDICTED BY RF-SCORE:    0.00 PKD
ROOT
HETATM    1  O5* UNL     1      -7.786   7.138  64.300  1.00  0.00    -0.112 OA 
HETATM    2  H5* UNL     1      -7.309   7.515  63.571  1.00  0.00     0.000 HD 
HETATM    3  C5* UNL     1      -7.567   7.870  65.506  1.00  0.00    -0.083 C  
ENDROOT
BRANCH   3   4
HETATM    4  C4* UNL     1      -8.335   7.263  66.679  1.00  0.00    -0.121 C  
HETATM    5  O4* UNL     1      -8.759   8.277  67.610  1.00  0.00    -0.132 OA 
HETATM    6  C1* UNL     1      -9.828   7.676  68.357  1.00  0.00    -0.166 C  
HETATM    7  H3* UNL     1     -10.128   4.648  65.937  1.00  0.00     0.000 HD 
HETATM    8  C2* UNL     1     -10.606   6.829  67.354  1.00  0.00    -0.372 C  
HETATM    9  C3* UNL     1      -9.599   6.514  66.266  1.00  0.00    -0.046 C  
HETATM   10  O3* UNL     1      -9.342   5.114  66.194  1.00  0.00    -0.144 OA 
BRANCH   6  11
HETATM   11  N   UNL     1     -10.640   8.670  69.054  1.00  0.00    -0.198 N  
HETATM   12  C   UNL     1     -11.427  10.923  69.254  1.00  0.00    -0.302 C  
HETATM   13  C   UNL     1     -10.778   9.965  68.578  1.00  0.00    -0.226 C  
HETATM   14  I   UNL     1     -11.578  12.842  68.567  1.00  0.00    -0.376 I  
HETATM   15  C   UNL     1     -12.028  10.558  70.566  1.00  0.00    -0.342 C  
HETATM   16  O   UNL     1     -12.584  11.363  71.305  1.00  0.00    -0.394 OA 
HETATM   17  N   UNL     1     -11.914   9.242  70.925  1.00  0.00    -0.357 N  
HETATM   18  C   UNL     1     -11.196   8.283  70.266  1.00  0.00    -0.176 C  
HETATM   19  H   UNL     1     -12.414   8.949  71.764  1.00  0.00     0.000 HD 
HETATM   20  O   UNL     1     -11.068   7.164  70.757  1.00  0.00    -0.252 OA 
ENDBRANCH   6  11
ENDBRANCH   3   4
TORSDOF 2
ENDMDL
MODEL      137
REMARK 921   NORMALIZED FREE ENERGY PREDICTED BY IDOCK:   -3.50 KCAL/MOL
REMARK 922        TOTAL FREE ENERGY PREDICTED BY IDOCK:   -4.23 KCAL/MOL
REMARK 923 INTER-LIGAND FREE ENERGY PREDICTED BY IDOCK:   -3.92 KCAL/MOL
REMARK 924 INTRA-LIGAND FREE ENERGY PREDICTED BY IDOCK:   -0.30 KCAL/MOL
REMARK 927      BINDING AFFINITY PREDICTED BY RF-SCORE:    0.00 PKD
ROOT
HETATM    1  O5* UNL     1     -13.496  11.430  72.269  1.00  0.00    -0.601 OA 
HETATM    2  H5* UNL     1     -14.317  11.174  72.670  1.00  0.00     0.000 HD 
HETATM    3  C5* UNL     1     -13.131  10.545  71.209  1.00  0.00    -0.383 C  
ENDROOT
BRANCH   3   4
HETATM    4  C4* UNL     1     -11.809  10.956  70.564  1.00  0.00    -0.360 C  
HETATM    5  O4* UNL     1     -10.919   9.833  70.427  1.00  0.00    -0.263 OA 
HETATM    6  C1* UNL     1      -9.973  10.225  69.420  1.00  0.00    -0.233 C  
HETATM    7  H3* UNL     1     -12.045  13.336  68.353  1.00  0.00     0.000 HD 
HETATM    8  C2* UNL     1     -10.772  11.019  68.391  1.00  0.00    -0.240 C  
HETATM    9  C3* UNL     1     -11.965  11.545  69.164  1.00  0.00    -0.320 C  
HETATM   10  O3* UNL     1     -11.949  12.969  69.224  1.00  0.00    -0.307 OA 
BRANCH   6  11
HETATM   11  N   UNL     1      -9.256   9.080  68.864  1.00  0.00    -0.139 N  
HETATM   12  C   UNL     1      -9.293   6.954  67.762  1.00  0.00    -0.120 C  
HETATM   13  C   UNL     1      -9.912   8.064  68.186  1.00  0.00    -0.185 C  
HETATM   14  I   UNL     1     -10.282   5.439  66.811  1.00  0.00    -0.329 I  
HETATM   15  C   UNL     1      -7.834   6.830  68.032  1.00  0.00    -0.113 C  
HETATM   16  O   UNL     1      -7.175   5.834  67.754  1.00  0.00    -0.072 OA 
HETATM   17  N   UNL     1      -7.248   7.910  68.634  1.00  0.00    -0.079 N  
HETATM   18  C   UNL     1      -7.893   9.012  69.124  1.00  0.00    -0.093 C  
HETATM   19  H   UNL     1      -6.233   7.891  68.727  1.00  0.00     0.000 HD 
HETATM   20  O   UNL     1      -7.269   9.860  69.757  1.00  0.00    -0.085 OA 
ENDBRANCH   6  11
ENDBRANCH   3   4
TORSDOF 2
ENDMDL
MODEL      138
REMARK 921   NORMALIZED FREE ENERGY PREDICTED BY IDOCK:   -3.50 KCAL/MOL
REMARK 922        TOTAL FREE ENERGY PREDICTED BY IDOCK:   -4.22 KCAL/MOL
REMARK 923 INTER-LIGAND FREE ENERGY PREDICTED BY IDOCK:   -3.82 KCAL/MOL
REMARK 924 INTRA-LIGAND FREE ENERGY PREDICTED BY IDOCK:   -0.41 KCAL/MOL
REMARK 927      BINDING AFFINITY PREDICTED BY RF-SCORE:    0.00 PKD
ROOT
HETATM    1  O5* UNL     1     -11.265  13.269  63.474  1.00  0.00    -0.574 OA 
HETATM    2  H5* UNL     1     -11.019  13.338  62.560  1.00  0.00     0.000 HD 
HETATM    3  C5* UNL     1     -10.900  12.003  64.022  1.00  0.00    -0.378 C  
ENDROOT
BRANCH   3   4
HETATM    4  C4* UNL     1     -11.296  11.892  65.493  1.00  0.00    -0.277 C  
HETATM    5  O4* UNL     1     -10.495  10.914  66.181  1.00  0.00    -0.247 OA 
HETATM    6  C1* UNL     1     -10.617  11.241  67.575  1.00  0.00    -0.218 C  
HETATM    7  H3* UNL     1     -12.286  14.678  66.859  1.00  0.00     0.000 HD 
HETATM    8  C2* UNL     1     -10.636  12.765  67.639  1.00  0.00    -0.230 C  
HETATM    9  C3* UNL     1     -11.134  13.194  66.273  1.00  0.00    -0.287 C  
HETATM   10  O3* UNL     1     -12.386  13.868  66.373  1.00  0.00    -0.448 OA 
BRANCH   6  11
HETATM   11  N   UNL     1      -9.567  10.623  68.379  1.00  0.00    -0.161 N  
HETATM   12  C   UNL     1      -7.423  10.759  69.437  1.00  0.00    -0.124 C  
HETATM   13  C   UNL     1      -8.449  11.331  68.792  1.00  0.00    -0.112 C  
HETATM   14  I   UNL     1      -5.756  11.803  69.994  1.00  0.00    -0.165 I  
HETATM   15  C   UNL     1      -7.511   9.300  69.723  1.00  0.00    -0.075 C  
HETATM   16  O   UNL     1      -6.608   8.655  70.244  1.00  0.00    -0.037 OA 
HETATM   17  N   UNL     1      -8.681   8.693  69.352  1.00  0.00    -0.137 N  
HETATM   18  C   UNL     1      -9.697   9.264  68.637  1.00  0.00    -0.150 C  
HETATM   19  H   UNL     1      -8.806   7.723  69.638  1.00  0.00     0.000 HD 
HETATM   20  O   UNL     1     -10.643   8.578  68.257  1.00  0.00    -0.198 OA 
ENDBRANCH   6  11
ENDBRANCH   3   4
TORSDOF 2
ENDMDL
MODEL      139
REMARK 921   NORMALIZED FREE ENERGY PREDICTED BY IDOCK:   -3.48 KCAL/MOL
REMARK 922        TOTAL FREE ENERGY PREDICTED BY IDOCK:   -4.21 KCAL/MOL
REMARK 923 INTER-LIGAND FREE ENERGY PREDICTED BY IDOCK:   -5.02 KCAL/MOL
REMARK 924 INTRA-LIGAND FREE ENERGY PREDICTED BY IDOCK:    0.82 KCAL/MOL
REMARK 927      BINDING AFFINITY PREDICTED BY RF-SCORE:    0.00 PKD
ROOT
HETATM    1  O5* UNL     1     -12.654  13.838  63.085  1.00  0.00    -1.024 OA 
HETATM    2  H5* UNL     1     -12.747  13.820  62.140  1.00  0.00     0.000 HD 
HETATM    3  C5* UNL     1     -11.700  12.876  63.536  1.00  0.00    -0.512 C  
ENDROOT
BRANCH   3   4
HETATM    4  C4* UNL     1     -11.551  12.904  65.055  1.00  0.00    -0.332 C  
HETATM    5  O4* UNL     1     -11.250  11.596  65.578  1.00  0.00    -0.285 OA 
HETATM    6  C1* UNL     1     -10.678  11.832  66.875  1.00  0.00    -0.250 C  
HETATM    7  H3* UNL     1     -10.278  15.649  66.258  1.00  0.00     0.000 HD 
HETATM    8  C2* UNL     1      -9.823  13.087  66.724  1.00  0.00    -0.243 C  
HETATM    9  C3* UNL     1     -10.435  13.821  65.548  1.00  0.00    -0.318 C  
HETATM   10  O3* UNL     1     -10.972  15.078  65.952  1.00  0.00    -0.331 OA 
BRANCH   6  11
HETATM   11  N   UNL     1      -9.948  10.669  67.374  1.00  0.00    -0.177 N  
HETATM   12  C   UNL     1      -9.789   8.299  67.666  1.00  0.00    -0.169 C  
HETATM   13  C   UNL     1     -10.379   9.375  67.130  1.00  0.00    -0.258 C  
HETATM   14  I   UNL     1     -10.466   6.397  67.342  1.00  0.00    -0.475 I  
HETATM   15  C   UNL     1      -8.614   8.523  68.553  1.00  0.00    -0.138 C  
HETATM   16  O   UNL     1      -8.035   7.625  69.154  1.00  0.00    -0.116 OA 
HETATM   17  N   UNL     1      -8.205   9.823  68.678  1.00  0.00    -0.104 N  
HETATM   18  C   UNL     1      -8.848  10.924  68.182  1.00  0.00    -0.137 C  
HETATM   19  H   UNL     1      -7.338   9.987  69.189  1.00  0.00     0.000 HD 
HETATM   20  O   UNL     1      -8.449  12.051  68.469  1.00  0.00    -0.155 OA 
ENDBRANCH   6  11
ENDBRANCH   3   4
TORSDOF 2
ENDMDL
MODEL      140
REMARK 921   NORMALIZED FREE ENERGY PREDICTED BY IDOCK:   -3.47 KCAL/MOL
REMARK 922        TOTAL FREE ENERGY PREDICTED BY IDOCK:   -4.19 KCAL/MOL
REMARK 923 INTER-LIGAND FREE ENERGY PREDICTED BY IDOCK:   -4.34 KCAL/MOL
REMARK 924 INTRA-LIGAND FREE ENERGY PREDICTED BY IDOCK:    0.14 KCAL/MOL
REMARK 927      BINDING AFFINITY PREDICTED BY RF-SCORE:    0.00 PKD
ROOT
HETATM    1  O5* UNL     1     -10.476  15.982  67.668  1.00  0.00    -0.278 OA 
HETATM    2  H5* UNL     1     -10.300  16.814  68.089  1.00  0.00     0.000 HD 
HETATM    3  C5* UNL     1     -10.034  14.885  68.466  1.00  0.00    -0.223 C  
ENDROOT
BRANCH   3   4
HETATM    4  C4* UNL     1     -10.317  13.546  67.788  1.00  0.00    -0.241 C  
HETATM    5  O4* UNL     1     -10.071  12.442  68.679  1.00  0.00    -0.210 OA 
HETATM    6  C1* UNL     1     -10.803  11.339  68.123  1.00  0.00    -0.217 C  
HETATM    7  H3* UNL     1     -12.753  13.593  65.627  1.00  0.00     0.000 HD 
HETATM    8  C2* UNL     1     -12.099  11.937  67.581  1.00  0.00     0.089 C  
HETATM    9  C3* UNL     1     -11.760  13.390  67.313  1.00  0.00    -0.380 C  
HETATM   10  O3* UNL     1     -11.856  13.690  65.923  1.00  0.00    -0.344 OA 
BRANCH   6  11
HETATM   11  N   UNL     1     -11.002  10.266  69.093  1.00  0.00    -0.227 N  
HETATM   12  C   UNL     1     -10.897   7.940  69.653  1.00  0.00    -0.176 C  
HETATM   13  C   UNL     1     -10.628   8.958  68.825  1.00  0.00    -0.157 C  
HETATM   14  I   UNL     1     -10.387   6.008  69.221  1.00  0.00    -0.396 I  
HETATM   15  C   UNL     1     -11.622   8.248  70.916  1.00  0.00    -0.262 C  
HETATM   16  O   UNL     1     -11.984   7.394  71.717  1.00  0.00    -0.282 OA 
HETATM   17  N   UNL     1     -11.884   9.573  71.141  1.00  0.00    -0.331 N  
HETATM   18  C   UNL     1     -11.667  10.601  70.265  1.00  0.00    -0.344 C  
HETATM   19  H   UNL     1     -12.280   9.816  72.049  1.00  0.00     0.000 HD 
HETATM   20  O   UNL     1     -12.061  11.733  70.535  1.00  0.00    -0.363 OA 
ENDBRANCH   6  11
ENDBRANCH   3   4
TORSDOF 2
ENDMDL
MODEL      141
REMARK 921   NORMALIZED FREE ENERGY PREDICTED BY IDOCK:   -3.45 KCAL/MOL
REMARK 922        TOTAL FREE ENERGY PREDICTED BY IDOCK:   -4.18 KCAL/MOL
REMARK 923 INTER-LIGAND FREE ENERGY PREDICTED BY IDOCK:   -3.74 KCAL/MOL
REMARK 924 INTRA-LIGAND FREE ENERGY PREDICTED BY IDOCK:   -0.44 KCAL/MOL
REMARK 927      BINDING AFFINITY PREDICTED BY RF-SCORE:    0.00 PKD
ROOT
HETATM    1  O5* UNL     1      -8.773   4.154  64.882  1.00  0.00    -0.118 OA 
HETATM    2  H5* UNL     1      -8.559   3.738  64.056  1.00  0.00     0.000 HD 
HETATM    3  C5* UNL     1      -8.538   5.561  64.839  1.00  0.00    -0.111 C  
ENDROOT
BRANCH   3   4
HETATM    4  C4* UNL     1      -8.882   6.229  66.169  1.00  0.00    -0.153 C  
HETATM    5  O4* UNL     1      -8.807   7.663  66.071  1.00  0.00    -0.161 OA 
HETATM    6  C1* UNL     1      -9.587   8.156  67.173  1.00  0.00    -0.174 C  
HETATM    7  H3* UNL     1     -11.119   4.669  67.948  1.00  0.00     0.000 HD 
HETATM    8  C2* UNL     1     -10.776   7.207  67.292  1.00  0.00    -0.399 C  
HETATM    9  C3* UNL     1     -10.289   5.913  66.670  1.00  0.00    -0.226 C  
HETATM   10  O3* UNL     1     -10.244   4.865  67.636  1.00  0.00    -0.146 OA 
BRANCH   6  11
HETATM   11  N   UNL     1      -9.958   9.558  67.001  1.00  0.00    -0.199 N  
HETATM   12  C   UNL     1     -10.518  11.386  65.560  1.00  0.00    -0.268 C  
HETATM   13  C   UNL     1     -10.280  10.082  65.759  1.00  0.00    -0.200 C  
HETATM   14  I   UNL     1     -10.939  12.156  63.713  1.00  0.00    -0.569 I  
HETATM   15  C   UNL     1     -10.439  12.292  66.738  1.00  0.00    -0.218 C  
HETATM   16  O   UNL     1     -10.569  13.509  66.668  1.00  0.00    -0.276 OA 
HETATM   17  N   UNL     1     -10.194  11.683  67.939  1.00  0.00    -0.185 N  
HETATM   18  C   UNL     1      -9.887  10.364  68.129  1.00  0.00    -0.151 C  
HETATM   19  H   UNL     1     -10.246  12.269  68.772  1.00  0.00     0.000 HD 
HETATM   20  O   UNL     1      -9.564   9.962  69.245  1.00  0.00    -0.181 OA 
ENDBRANCH   6  11
ENDBRANCH   3   4
TORSDOF 2
ENDMDL
MODEL      142
REMARK 921   NORMALIZED FREE ENERGY PREDICTED BY IDOCK:   -3.43 KCAL/MOL
REMARK 922        TOTAL FREE ENERGY PREDICTED BY IDOCK:   -4.16 KCAL/MOL
REMARK 923 INTER-LIGAND FREE ENERGY PREDICTED BY IDOCK:   -3.91 KCAL/MOL
REMARK 924 INTRA-LIGAND FREE ENERGY PREDICTED BY IDOCK:   -0.24 KCAL/MOL
REMARK 927      BINDING AFFINITY PREDICTED BY RF-SCORE:    0.00 PKD
ROOT
HETATM    1  O5* UNL     1      -8.737  11.211  66.760  1.00  0.00    -0.147 OA 
HETATM    2  H5* UNL     1      -8.330  12.003  66.428  1.00  0.00     0.000 HD 
HETATM    3  C5* UNL     1      -7.770  10.315  67.308  1.00  0.00    -0.095 C  
ENDROOT
BRANCH   3   4
HETATM    4  C4* UNL     1      -8.424   9.042  67.841  1.00  0.00    -0.121 C  
HETATM    5  O4* UNL     1      -9.226   9.311  69.006  1.00  0.00    -0.140 OA 
HETATM    6  C1* UNL     1     -10.127   8.196  69.108  1.00  0.00    -0.202 C  
HETATM    7  H3* UNL     1      -9.249   6.867  65.561  1.00  0.00     0.000 HD 
HETATM    8  C2* UNL     1     -10.507   7.843  67.672  1.00  0.00    -0.303 C  
HETATM    9  C3* UNL     1      -9.352   8.360  66.838  1.00  0.00    -0.174 C  
HETATM   10  O3* UNL     1      -8.672   7.292  66.185  1.00  0.00    -0.145 OA 
BRANCH   6  11
HETATM   11  N   UNL     1     -11.267   8.487  69.972  1.00  0.00    -0.154 N  
HETATM   12  C   UNL     1     -12.613  10.077  71.153  1.00  0.00    -0.381 C  
HETATM   13  C   UNL     1     -11.640   9.787  70.279  1.00  0.00    -0.220 C  
HETATM   14  I   UNL     1     -13.117  11.998  71.639  1.00  0.00     0.126 I  
HETATM   15  C   UNL     1     -13.320   8.940  71.805  1.00  0.00    -0.386 C  
HETATM   16  O   UNL     1     -14.177   9.080  72.670  1.00  0.00    -0.574 OA 
HETATM   17  N   UNL     1     -12.946   7.692  71.388  1.00  0.00    -0.456 N  
HETATM   18  C   UNL     1     -11.909   7.397  70.545  1.00  0.00    -0.157 C  
HETATM   19  H   UNL     1     -13.492   6.905  71.738  1.00  0.00     0.000 HD 
HETATM   20  O   UNL     1     -11.593   6.227  70.344  1.00  0.00    -0.381 OA 
ENDBRANCH   6  11
ENDBRANCH   3   4
TORSDOF 2
ENDMDL
MODEL      143
REMARK 921   NORMALIZED FREE ENERGY PREDICTED BY IDOCK:   -3.42 KCAL/MOL
REMARK 922        TOTAL FREE ENERGY PREDICTED BY IDOCK:   -4.14 KCAL/MOL
REMARK 923 INTER-LIGAND FREE ENERGY PREDICTED BY IDOCK:   -3.84 KCAL/MOL
REMARK 924 INTRA-LIGAND FREE ENERGY PREDICTED BY IDOCK:   -0.29 KCAL/MOL
REMARK 927      BINDING AFFINITY PREDICTED BY RF-SCORE:    0.00 PKD
ROOT
HETATM    1  O5* UNL     1      -6.458   5.423  65.390  1.00  0.00    -0.037 OA 
HETATM    2  H5* UNL     1      -6.244   4.769  66.045  1.00  0.00     0.000 HD 
HETATM    3  C5* UNL     1      -7.202   6.504  65.952  1.00  0.00    -0.074 C  
ENDROOT
BRANCH   3   4
HETATM    4  C4* UNL     1      -7.546   7.556  64.899  1.00  0.00    -0.100 C  
HETATM    5  O4* UNL     1      -8.769   8.243  65.222  1.00  0.00    -0.160 OA 
HETATM    6  C1* UNL     1      -8.723   9.466  64.471  1.00  0.00    -0.203 C  
HETATM    7  H3* UNL     1      -4.977   9.019  63.533  1.00  0.00     0.000 HD 
HETATM    8  C2* UNL     1      -7.265   9.916  64.507  1.00  0.00    -0.137 C  
HETATM    9  C3* UNL     1      -6.482   8.640  64.742  1.00  0.00    -0.065 C  
HETATM   10  O3* UNL     1      -5.639   8.345  63.631  1.00  0.00    -0.064 OA 
BRANCH   6  11
HETATM   11  N   UNL     1      -9.667  10.459  64.977  1.00  0.00    -0.275 N  
HETATM   12  C   UNL     1     -10.966  11.343  66.783  1.00  0.00    -0.291 C  
HETATM   13  C   UNL     1     -10.024  10.513  66.315  1.00  0.00    -0.221 C  
HETATM   14  I   UNL     1     -11.523  11.376  68.750  1.00  0.00    -0.437 I  
HETATM   15  C   UNL     1     -11.640  12.245  65.810  1.00  0.00    -0.388 C  
HETATM   16  O   UNL     1     -12.562  12.997  66.106  1.00  0.00    -0.421 OA 
HETATM   17  N   UNL     1     -11.173  12.185  64.524  1.00  0.00    -0.318 N  
HETATM   18  C   UNL     1     -10.259  11.293  64.037  1.00  0.00    -0.348 C  
HETATM   19  H   UNL     1     -11.543  12.871  63.867  1.00  0.00     0.000 HD 
HETATM   20  O   UNL     1     -10.013  11.258  62.833  1.00  0.00    -0.304 OA 
ENDBRANCH   6  11
ENDBRANCH   3   4
TORSDOF 2
ENDMDL
MODEL      144
REMARK 921   NORMALIZED FREE ENERGY PREDICTED BY IDOCK:   -3.41 KCAL/MOL
REMARK 922        TOTAL FREE ENERGY PREDICTED BY IDOCK:   -4.12 KCAL/MOL
REMARK 923 INTER-LIGAND FREE ENERGY PREDICTED BY IDOCK:   -3.83 KCAL/MOL
REMARK 924 INTRA-LIGAND FREE ENERGY PREDICTED BY IDOCK:   -0.30 KCAL/MOL
REMARK 927      BINDING AFFINITY PREDICTED BY RF-SCORE:    0.00 PKD
ROOT
HETATM    1  O5* UNL     1     -11.449  15.854  68.548  1.00  0.00    -0.367 OA 
HETATM    2  H5* UNL     1     -12.019  16.458  69.008  1.00  0.00     0.000 HD 
HETATM    3  C5* UNL     1     -12.055  14.570  68.400  1.00  0.00    -0.214 C  
ENDROOT
BRANCH   3   4
HETATM    4  C4* UNL     1     -11.138  13.599  67.660  1.00  0.00    -0.273 C  
HETATM    5  O4* UNL     1     -10.151  13.031  68.542  1.00  0.00    -0.234 OA 
HETATM    6  C1* UNL     1      -9.699  11.838  67.882  1.00  0.00    -0.185 C  
HETATM    7  H3* UNL     1     -12.566  11.926  65.258  1.00  0.00     0.000 HD 
HETATM    8  C2* UNL     1     -10.939  11.237  67.225  1.00  0.00    -0.342 C  
HETATM    9  C3* UNL     1     -11.872  12.416  67.032  1.00  0.00    -0.297 C  
HETATM   10  O3* UNL     1     -12.109  12.662  65.648  1.00  0.00    -0.438 OA 
BRANCH   6  11
HETATM   11  N   UNL     1      -9.011  10.931  68.796  1.00  0.00    -0.168 N  
HETATM   12  C   UNL     1      -9.102   9.251  70.500  1.00  0.00    -0.259 C  
HETATM   13  C   UNL     1      -9.700  10.017  69.578  1.00  0.00    -0.233 C  
HETATM   14  I   UNL     1     -10.138   7.945  71.684  1.00  0.00    -0.278 I  
HETATM   15  C   UNL     1      -7.630   9.396  70.671  1.00  0.00    -0.144 C  
HETATM   16  O   UNL     1      -6.984   8.801  71.527  1.00  0.00    -0.081 OA 
HETATM   17  N   UNL     1      -7.015  10.261  69.807  1.00  0.00    -0.111 N  
HETATM   18  C   UNL     1      -7.636  11.088  68.912  1.00  0.00    -0.134 C  
HETATM   19  H   UNL     1      -5.996  10.291  69.833  1.00  0.00     0.000 HD 
HETATM   20  O   UNL     1      -6.980  11.912  68.278  1.00  0.00    -0.067 OA 
ENDBRANCH   6  11
ENDBRANCH   3   4
TORSDOF 2
ENDMDL
MODEL      145
REMARK 921   NORMALIZED FREE ENERGY PREDICTED BY IDOCK:   -3.40 KCAL/MOL
REMARK 922        TOTAL FREE ENERGY PREDICTED BY IDOCK:   -4.11 KCAL/MOL
REMARK 923 INTER-LIGAND FREE ENERGY PREDICTED BY IDOCK:   -3.96 KCAL/MOL
REMARK 924 INTRA-LIGAND FREE ENERGY PREDICTED BY IDOCK:   -0.15 KCAL/MOL
REMARK 927      BINDING AFFINITY PREDICTED BY RF-SCORE:    0.00 PKD
ROOT
HETATM    1  O5* UNL     1      -8.442  12.342  66.073  1.00  0.00    -0.335 OA 
HETATM    2  H5* UNL     1      -7.655  12.842  65.889  1.00  0.00     0.000 HD 
HETATM    3  C5* UNL     1      -9.069  12.775  67.279  1.00  0.00    -0.200 C  
ENDROOT
BRANCH   3   4
HETATM    4  C4* UNL     1     -10.334  11.971  67.574  1.00  0.00    -0.200 C  
HETATM    5  O4* UNL     1     -10.036  10.578  67.781  1.00  0.00    -0.165 OA 
HETATM    6  C1* UNL     1     -11.166  10.053  68.495  1.00  0.00    -0.123 C  
HETATM    7  H3* UNL     1     -12.622  13.579  69.243  1.00  0.00     0.000 HD 
HETATM    8  C2* UNL     1     -11.589  11.156  69.462  1.00  0.00    -0.392 C  
HETATM    9  C3* UNL     1     -11.079  12.433  68.824  1.00  0.00    -0.262 C  
HETATM   10  O3* UNL     1     -12.158  13.292  68.465  1.00  0.00    -0.341 OA 
BRANCH   6  11
HETATM   11  N   UNL     1     -10.866   8.778  69.140  1.00  0.00    -0.121 N  
HETATM   12  C   UNL     1     -10.340   7.534  71.116  1.00  0.00    -0.200 C  
HETATM   13  C   UNL     1     -10.721   8.668  70.513  1.00  0.00    -0.221 C  
HETATM   14  I   UNL     1     -10.077   7.399  73.139  1.00  0.00    -0.414 I  
HETATM   15  C   UNL     1     -10.077   6.347  70.257  1.00  0.00    -0.181 C  
HETATM   16  O   UNL     1      -9.659   5.277  70.685  1.00  0.00    -0.159 OA 
HETATM   17  N   UNL     1     -10.321   6.517  68.921  1.00  0.00    -0.181 N  
HETATM   18  C   UNL     1     -10.645   7.693  68.301  1.00  0.00    -0.124 C  
HETATM   19  H   UNL     1     -10.254   5.688  68.331  1.00  0.00     0.000 HD 
HETATM   20  O   UNL     1     -10.716   7.743  67.075  1.00  0.00    -0.347 OA 
ENDBRANCH   6  11
ENDBRANCH   3   4
TORSDOF 2
ENDMDL
MODEL      146
REMARK 921   NORMALIZED FREE ENERGY PREDICTED BY IDOCK:   -3.38 KCAL/MOL
REMARK 922        TOTAL FREE ENERGY PREDICTED BY IDOCK:   -4.09 KCAL/MOL
REMARK 923 INTER-LIGAND FREE ENERGY PREDICTED BY IDOCK:   -4.55 KCAL/MOL
REMARK 924 INTRA-LIGAND FREE ENERGY PREDICTED BY IDOCK:    0.46 KCAL/MOL
REMARK 927      BINDING AFFINITY PREDICTED BY RF-SCORE:    0.00 PKD
ROOT
HETATM    1  O5* UNL     1     -10.432  10.882  64.480  1.00  0.00    -0.346 OA 
HETATM    2  H5* UNL     1     -10.584  11.210  63.602  1.00  0.00     0.000 HD 
HETATM    3  C5* UNL     1      -9.190  10.186  64.572  1.00  0.00    -0.257 C  
ENDROOT
BRANCH   3   4
HETATM    4  C4* UNL     1      -8.946   9.658  65.984  1.00  0.00    -0.162 C  
HETATM    5  O4* UNL     1      -9.474  10.554  66.980  1.00  0.00    -0.160 OA 
HETATM    6  C1* UNL     1      -9.616   9.757  68.166  1.00  0.00    -0.143 C  
HETATM    7  H3* UNL     1      -9.033   6.415  66.268  1.00  0.00     0.000 HD 
HETATM    8  C2* UNL     1     -10.081   8.385  67.686  1.00  0.00    -0.268 C  
HETATM    9  C3* UNL     1      -9.592   8.301  66.254  1.00  0.00    -0.196 C  
HETATM   10  O3* UNL     1      -8.632   7.259  66.101  1.00  0.00    -0.137 OA 
BRANCH   6  11
HETATM   11  N   UNL     1     -10.505  10.379  69.144  1.00  0.00    -0.212 N  
HETATM   12  C   UNL     1     -12.224  10.176  70.798  1.00  0.00    -0.338 C  
HETATM   13  C   UNL     1     -11.324   9.627  69.971  1.00  0.00    -0.195 C  
HETATM   14  I   UNL     1     -13.465   9.054  71.974  1.00  0.00    -0.581 I  
HETATM   15  C   UNL     1     -12.326  11.661  70.823  1.00  0.00    -0.358 C  
HETATM   16  O   UNL     1     -13.156  12.274  71.485  1.00  0.00    -0.379 OA 
HETATM   17  N   UNL     1     -11.428  12.330  70.036  1.00  0.00    -0.528 N  
HETATM   18  C   UNL     1     -10.556  11.767  69.145  1.00  0.00    -0.069 C  
HETATM   19  H   UNL     1     -11.406  13.346  70.122  1.00  0.00     0.000 HD 
HETATM   20  O   UNL     1      -9.886  12.482  68.403  1.00  0.00    -0.225 OA 
ENDBRANCH   6  11
ENDBRANCH   3   4
TORSDOF 2
ENDMDL
MODEL      147
REMARK 921   NORMALIZED FREE ENERGY PREDICTED BY IDOCK:   -3.37 KCAL/MOL
REMARK 922        TOTAL FREE ENERGY PREDICTED BY IDOCK:   -4.08 KCAL/MOL
REMARK 923 INTER-LIGAND FREE ENERGY PREDICTED BY IDOCK:   -4.39 KCAL/MOL
REMARK 924 INTRA-LIGAND FREE ENERGY PREDICTED BY IDOCK:    0.30 KCAL/MOL
REMARK 927      BINDING AFFINITY PREDICTED BY RF-SCORE:    0.00 PKD
ROOT
HETATM    1  O5* UNL     1     -10.387  17.067  66.582  1.00  0.00    -0.308 OA 
HETATM    2  H5* UNL     1     -10.351  17.793  67.193  1.00  0.00     0.000 HD 
HETATM    3  C5* UNL     1     -10.896  15.885  67.199  1.00  0.00    -0.267 C  
ENDROOT
BRANCH   3   4
HETATM    4  C4* UNL     1     -10.955  14.719  66.216  1.00  0.00    -0.330 C  
HETATM    5  O4* UNL     1      -9.911  13.761  66.473  1.00  0.00    -0.273 OA 
HETATM    6  C1* UNL     1     -10.351  12.547  65.842  1.00  0.00    -0.263 C  
HETATM    7  H3* UNL     1     -13.953  13.885  65.256  1.00  0.00     0.000 HD 
HETATM    8  C2* UNL     1     -11.859  12.490  66.068  1.00  0.00    -0.478 C  
HETATM    9  C3* UNL     1     -12.265  13.937  66.265  1.00  0.00    -0.461 C  
HETATM   10  O3* UNL     1     -13.138  14.371  65.225  1.00  0.00    -0.629 OA 
BRANCH   6  11
HETATM   11  N   UNL     1      -9.629  11.378  66.337  1.00  0.00    -0.200 N  
HETATM   12  C   UNL     1      -8.469   9.329  65.904  1.00  0.00    -0.132 C  
HETATM   13  C   UNL     1      -9.041  10.463  65.478  1.00  0.00    -0.177 C  
HETATM   14  I   UNL     1      -7.651   7.962  64.622  1.00  0.00    -0.126 I  
HETATM   15  C   UNL     1      -8.466   9.062  67.368  1.00  0.00    -0.115 C  
HETATM   16  O   UNL     1      -8.035   8.030  67.870  1.00  0.00    -0.123 OA 
HETATM   17  N   UNL     1      -8.996  10.051  68.152  1.00  0.00    -0.121 N  
HETATM   18  C   UNL     1      -9.637  11.176  67.711  1.00  0.00    -0.172 C  
HETATM   19  H   UNL     1      -8.904   9.939  69.161  1.00  0.00     0.000 HD 
HETATM   20  O   UNL     1     -10.182  11.929  68.515  1.00  0.00    -0.213 OA 
ENDBRANCH   6  11
ENDBRANCH   3   4
TORSDOF 2
ENDMDL
MODEL      148
REMARK 921   NORMALIZED FREE ENERGY PREDICTED BY IDOCK:   -3.36 KCAL/MOL
REMARK 922        TOTAL FREE ENERGY PREDICTED BY IDOCK:   -4.08 KCAL/MOL
REMARK 923 INTER-LIGAND FREE ENERGY PREDICTED BY IDOCK:   -3.62 KCAL/MOL
REMARK 924 INTRA-LIGAND FREE ENERGY PREDICTED BY IDOCK:   -0.45 KCAL/MOL
REMARK 927      BINDING AFFINITY PREDICTED BY RF-SCORE:    0.00 PKD
ROOT
HETATM    1  O5* UNL     1      -9.440   7.668  74.228  1.00  0.00    -0.405 OA 
HETATM    2  H5* UNL     1      -9.644   8.164  75.012  1.00  0.00     0.000 HD 
HETATM    3  C5* UNL     1     -10.520   7.694  73.295  1.00  0.00    -0.355 C  
ENDROOT
BRANCH   3   4
HETATM    4  C4* UNL     1     -10.192   6.896  72.035  1.00  0.00    -0.187 C  
HETATM    5  O4* UNL     1     -10.532   7.630  70.844  1.00  0.00    -0.205 OA 
HETATM    6  C1* UNL     1      -9.765   7.019  69.794  1.00  0.00    -0.168 C  
HETATM    7  H3* UNL     1      -7.569   4.980  72.269  1.00  0.00     0.000 HD 
HETATM    8  C2* UNL     1      -8.419   6.667  70.420  1.00  0.00    -0.135 C  
HETATM    9  C3* UNL     1      -8.714   6.536  71.901  1.00  0.00    -0.130 C  
HETATM   10  O3* UNL     1      -8.488   5.204  72.353  1.00  0.00    -0.119 OA 
BRANCH   6  11
HETATM   11  N   UNL     1      -9.669   7.875  68.614  1.00  0.00    -0.155 N  
HETATM   12  C   UNL     1      -8.787   9.825  67.542  1.00  0.00    -0.125 C  
HETATM   13  C   UNL     1      -8.814   8.965  68.568  1.00  0.00    -0.134 C  
HETATM   14  I   UNL     1      -7.559  11.460  67.510  1.00  0.00    -0.142 I  
HETATM   15  C   UNL     1      -9.716   9.577  66.405  1.00  0.00    -0.232 C  
HETATM   16  O   UNL     1      -9.830  10.330  65.445  1.00  0.00    -0.255 OA 
HETATM   17  N   UNL     1     -10.468   8.437  66.493  1.00  0.00    -0.354 N  
HETATM   18  C   UNL     1     -10.541   7.597  67.570  1.00  0.00    -0.252 C  
HETATM   19  H   UNL     1     -11.028   8.190  65.677  1.00  0.00     0.000 HD 
HETATM   20  O   UNL     1     -11.351   6.672  67.576  1.00  0.00    -0.271 OA 
ENDBRANCH   6  11
ENDBRANCH   3   4
TORSDOF 2
ENDMDL
MODEL      149
REMARK 921   NORMALIZED FREE ENERGY PREDICTED BY IDOCK:   -3.36 KCAL/MOL
REMARK 922        TOTAL FREE ENERGY PREDICTED BY IDOCK:   -4.07 KCAL/MOL
REMARK 923 INTER-LIGAND FREE ENERGY PREDICTED BY IDOCK:   -3.71 KCAL/MOL
REMARK 924 INTRA-LIGAND FREE ENERGY PREDICTED BY IDOCK:   -0.36 KCAL/MOL
REMARK 927      BINDING AFFINITY PREDICTED BY RF-SCORE:    0.00 PKD
ROOT
HETATM    1  O5* UNL     1     -10.082   6.643  67.056  1.00  0.00    -0.156 OA 
HETATM    2  H5* UNL     1     -10.383   5.872  66.589  1.00  0.00     0.000 HD 
HETATM    3  C5* UNL     1      -9.015   7.291  66.364  1.00  0.00    -0.158 C  
ENDROOT
BRANCH   3   4
HETATM    4  C4* UNL     1      -8.531   8.530  67.115  1.00  0.00    -0.118 C  
HETATM    5  O4* UNL     1      -8.717   9.725  66.333  1.00  0.00    -0.129 OA 
HETATM    6  C1* UNL     1      -8.687  10.803  67.281  1.00  0.00    -0.130 C  
HETATM    7  H3* UNL     1      -8.936   8.422  70.344  1.00  0.00     0.000 HD 
HETATM    8  C2* UNL     1      -9.406  10.279  68.521  1.00  0.00    -0.155 C  
HETATM    9  C3* UNL     1      -9.257   8.773  68.435  1.00  0.00    -0.137 C  
HETATM   10  O3* UNL     1      -8.485   8.271  69.522  1.00  0.00    -0.122 OA 
BRANCH   6  11
HETATM   11  N   UNL     1      -9.258  12.032  66.736  1.00  0.00    -0.196 N  
HETATM   12  C   UNL     1     -10.743  13.118  65.203  1.00  0.00    -0.315 C  
HETATM   13  C   UNL     1     -10.278  12.011  65.797  1.00  0.00    -0.242 C  
HETATM   14  I   UNL     1     -12.210  13.069  63.781  1.00  0.00    -0.388 I  
HETATM   15  C   UNL     1     -10.132  14.420  65.590  1.00  0.00    -0.353 C  
HETATM   16  O   UNL     1     -10.425  15.489  65.068  1.00  0.00    -0.404 OA 
HETATM   17  N   UNL     1      -9.188  14.361  66.580  1.00  0.00    -0.372 N  
HETATM   18  C   UNL     1      -8.670  13.224  67.136  1.00  0.00    -0.212 C  
HETATM   19  H   UNL     1      -8.839  15.250  66.936  1.00  0.00     0.000 HD 
HETATM   20  O   UNL     1      -7.735  13.299  67.930  1.00  0.00    -0.122 OA 
ENDBRANCH   6  11
ENDBRANCH   3   4
TORSDOF 2
ENDMDL
MODEL      150
REMARK 921   NORMALIZED FREE ENERGY PREDICTED BY IDOCK:   -3.35 KCAL/MOL
REMARK 922        TOTAL FREE ENERGY PREDICTED BY IDOCK:   -4.06 KCAL/MOL
REMARK 923 INTER-LIGAND FREE ENERGY PREDICTED BY IDOCK:   -4.37 KCAL/MOL
REMARK 924 INTRA-LIGAND FREE ENERGY PREDICTED BY IDOCK:    0.30 KCAL/MOL
REMARK 927      BINDING AFFINITY PREDICTED BY RF-SCORE:    0.00 PKD
ROOT
HETATM    1  O5* UNL     1     -13.008  13.656  71.000  1.00  0.00    -0.297 OA 
HETATM    2  H5* UNL     1     -13.170  13.036  71.701  1.00  0.00     0.000 HD 
HETATM    3  C5* UNL     1     -12.111  13.125  70.025  1.00  0.00    -0.305 C  
ENDROOT
BRANCH   3   4
HETATM    4  C4* UNL     1     -11.851  14.122  68.899  1.00  0.00    -0.347 C  
HETATM    5  O4* UNL     1     -11.004  15.201  69.337  1.00  0.00    -0.239 OA 
HETATM    6  C1* UNL     1     -10.462  15.767  68.133  1.00  0.00    -0.263 C  
HETATM    7  H3* UNL     1     -11.688  12.815  65.921  1.00  0.00     0.000 HD 
HETATM    8  C2* UNL     1     -10.201  14.584  67.205  1.00  0.00    -0.260 C  
HETATM    9  C3* UNL     1     -11.159  13.511  67.683  1.00  0.00    -0.269 C  
HETATM   10  O3* UNL     1     -12.118  13.195  66.677  1.00  0.00    -0.391 OA 
BRANCH   6  11
HETATM   11  N   UNL     1      -9.285  16.591  68.394  1.00  0.00    -0.215 N  
HETATM   12  C   UNL     1      -8.018  18.578  67.970  1.00  0.00    -0.276 C  
HETATM   13  C   UNL     1      -9.134  17.850  67.833  1.00  0.00    -0.260 C  
HETATM   14  I   UNL     1      -7.787  20.411  67.094  1.00  0.00    -0.263 I  
HETATM   15  C   UNL     1      -6.906  17.997  68.772  1.00  0.00    -0.259 C  
HETATM   16  O   UNL     1      -5.814  18.537  68.911  1.00  0.00    -0.200 OA 
HETATM   17  N   UNL     1      -7.166  16.787  69.356  1.00  0.00    -0.181 N  
HETATM   18  C   UNL     1      -8.280  16.017  69.161  1.00  0.00    -0.241 C  
HETATM   19  H   UNL     1      -6.462  16.424  69.998  1.00  0.00     0.000 HD 
HETATM   20  O   UNL     1      -8.341  14.889  69.645  1.00  0.00    -0.100 OA 
ENDBRANCH   6  11
ENDBRANCH   3   4
TORSDOF 2
ENDMDL
MODEL      151
REMARK 921   NORMALIZED FREE ENERGY PREDICTED BY IDOCK:   -3.35 KCAL/MOL
REMARK 922        TOTAL FREE ENERGY PREDICTED BY IDOCK:   -4.06 KCAL/MOL
REMARK 923 INTER-LIGAND FREE ENERGY PREDICTED BY IDOCK:   -4.34 KCAL/MOL
REMARK 924 INTRA-LIGAND FREE ENERGY PREDICTED BY IDOCK:    0.29 KCAL/MOL
REMARK 927      BINDING AFFINITY PREDICTED BY RF-SCORE:    0.00 PKD
ROOT
HETATM    1  O5* UNL     1     -11.233   6.493  66.817  1.00  0.00    -0.661 OA 
HETATM    2  H5* UNL     1     -11.523   5.613  66.608  1.00  0.00     0.000 HD 
HETATM    3  C5* UNL     1      -9.836   6.530  67.107  1.00  0.00    -0.148 C  
ENDROOT
BRANCH   3   4
HETATM    4  C4* UNL     1      -9.369   7.944  67.443  1.00  0.00    -0.141 C  
HETATM    5  O4* UNL     1     -10.475   8.789  67.812  1.00  0.00    -0.235 OA 
HETATM    6  C1* UNL     1      -9.888   9.880  68.539  1.00  0.00    -0.156 C  
HETATM    7  H3* UNL     1      -6.433   8.123  68.841  1.00  0.00     0.000 HD 
HETATM    8  C2* UNL     1      -8.760   9.265  69.363  1.00  0.00    -0.148 C  
HETATM    9  C3* UNL     1      -8.383   8.007  68.607  1.00  0.00    -0.127 C  
HETATM   10  O3* UNL     1      -7.047   8.084  68.117  1.00  0.00    -0.084 OA 
BRANCH   6  11
HETATM   11  N   UNL     1     -10.876  10.608  69.331  1.00  0.00    -0.230 N  
HETATM   12  C   UNL     1     -11.845  12.685  70.024  1.00  0.00    -0.285 C  
HETATM   13  C   UNL     1     -11.023  11.983  69.233  1.00  0.00    -0.131 C  
HETATM   14  I   UNL     1     -12.014  14.719  69.906  1.00  0.00    -0.397 I  
HETATM   15  C   UNL     1     -12.634  11.936  71.041  1.00  0.00    -0.283 C  
HETATM   16  O   UNL     1     -13.365  12.474  71.865  1.00  0.00    -0.467 OA 
HETATM   17  N   UNL     1     -12.490  10.575  71.019  1.00  0.00    -0.362 N  
HETATM   18  C   UNL     1     -11.603   9.868  70.255  1.00  0.00    -0.250 C  
HETATM   19  H   UNL     1     -13.103  10.036  71.630  1.00  0.00     0.000 HD 
HETATM   20  O   UNL     1     -11.480   8.656  70.416  1.00  0.00    -0.239 OA 
ENDBRANCH   6  11
ENDBRANCH   3   4
TORSDOF 2
ENDMDL
MODEL      152
REMARK 921   NORMALIZED FREE ENERGY PREDICTED BY IDOCK:   -3.32 KCAL/MOL
REMARK 922        TOTAL FREE ENERGY PREDICTED BY IDOCK:   -4.03 KCAL/MOL
REMARK 923 INTER-LIGAND FREE ENERGY PREDICTED BY IDOCK:   -3.70 KCAL/MOL
REMARK 924 INTRA-LIGAND FREE ENERGY PREDICTED BY IDOCK:   -0.33 KCAL/MOL
REMARK 927      BINDING AFFINITY PREDICTED BY RF-SCORE:    0.00 PKD
ROOT
HETATM    1  O5* UNL     1      -5.316  14.075  68.949  1.00  0.00    -0.076 OA 
HETATM    2  H5* UNL     1      -4.444  13.757  69.151  1.00  0.00     0.000 HD 
HETATM    3  C5* UNL     1      -6.301  13.059  69.129  1.00  0.00    -0.105 C  
ENDROOT
BRANCH   3   4
HETATM    4  C4* UNL     1      -7.702  13.571  68.805  1.00  0.00    -0.044 C  
HETATM    5  O4* UNL     1      -7.785  15.002  68.948  1.00  0.00    -0.130 OA 
HETATM    6  C1* UNL     1      -8.937  15.390  68.182  1.00  0.00    -0.176 C  
HETATM    7  H3* UNL     1      -9.265  11.911  66.480  1.00  0.00     0.000 HD 
HETATM    8  C2* UNL     1      -8.933  14.491  66.949  1.00  0.00    -0.267 C  
HETATM    9  C3* UNL     1      -8.156  13.263  67.380  1.00  0.00    -0.175 C  
HETATM   10  O3* UNL     1      -8.983  12.102  67.366  1.00  0.00    -0.167 OA 
BRANCH   6  11
HETATM   11  N   UNL     1      -8.941  16.818  67.879  1.00  0.00    -0.216 N  
HETATM   12  C   UNL     1      -7.963  18.697  66.762  1.00  0.00    -0.255 C  
HETATM   13  C   UNL     1      -8.051  17.377  66.976  1.00  0.00    -0.216 C  
HETATM   14  I   UNL     1      -6.609  19.513  65.466  1.00  0.00    -0.281 I  
HETATM   15  C   UNL     1      -8.877  19.585  67.532  1.00  0.00    -0.307 C  
HETATM   16  O   UNL     1      -8.843  20.809  67.473  1.00  0.00    -0.263 OA 
HETATM   17  N   UNL     1      -9.778  18.949  68.343  1.00  0.00    -0.356 N  
HETATM   18  C   UNL     1      -9.822  17.608  68.607  1.00  0.00    -0.347 C  
HETATM   19  H   UNL     1     -10.484  19.531  68.792  1.00  0.00     0.000 HD 
HETATM   20  O   UNL     1     -10.600  17.173  69.453  1.00  0.00    -0.321 OA 
ENDBRANCH   6  11
ENDBRANCH   3   4
TORSDOF 2
ENDMDL
MODEL      153
REMARK 921   NORMALIZED FREE ENERGY PREDICTED BY IDOCK:   -3.28 KCAL/MOL
REMARK 922        TOTAL FREE ENERGY PREDICTED BY IDOCK:   -3.99 KCAL/MOL
REMARK 923 INTER-LIGAND FREE ENERGY PREDICTED BY IDOCK:   -4.26 KCAL/MOL
REMARK 924 INTRA-LIGAND FREE ENERGY PREDICTED BY IDOCK:    0.27 KCAL/MOL
REMARK 927      BINDING AFFINITY PREDICTED BY RF-SCORE:    0.00 PKD
ROOT
HETATM    1  O5* UNL     1     -12.109  13.383  66.977  1.00  0.00    -0.381 OA 
HETATM    2  H5* UNL     1     -12.714  14.066  66.715  1.00  0.00     0.000 HD 
HETATM    3  C5* UNL     1     -11.273  12.978  65.894  1.00  0.00    -0.289 C  
ENDROOT
BRANCH   3   4
HETATM    4  C4* UNL     1     -10.300  11.878  66.316  1.00  0.00    -0.224 C  
HETATM    5  O4* UNL     1     -10.260  11.733  67.748  1.00  0.00    -0.185 OA 
HETATM    6  C1* UNL     1      -9.723  10.421  67.978  1.00  0.00    -0.150 C  
HETATM    7  H3* UNL     1     -10.094   9.365  64.255  1.00  0.00     0.000 HD 
HETATM    8  C2* UNL     1     -10.316   9.537  66.884  1.00  0.00    -0.307 C  
HETATM    9  C3* UNL     1     -10.652  10.500  65.762  1.00  0.00    -0.066 C  
HETATM   10  O3* UNL     1      -9.875  10.223  64.599  1.00  0.00    -0.313 OA 
BRANCH   6  11
HETATM   11  N   UNL     1      -9.987   9.948  69.334  1.00  0.00    -0.199 N  
HETATM   12  C   UNL     1      -9.296   8.709  71.262  1.00  0.00    -0.224 C  
HETATM   13  C   UNL     1      -9.040   9.244  70.061  1.00  0.00    -0.210 C  
HETATM   14  I   UNL     1      -7.907   7.627  72.302  1.00  0.00    -0.159 I  
HETATM   15  C   UNL     1     -10.660   8.897  71.828  1.00  0.00    -0.362 C  
HETATM   16  O   UNL     1     -11.032   8.397  72.884  1.00  0.00    -0.248 OA 
HETATM   17  N   UNL     1     -11.509   9.670  71.084  1.00  0.00    -0.353 N  
HETATM   18  C   UNL     1     -11.267  10.160  69.830  1.00  0.00    -0.287 C  
HETATM   19  H   UNL     1     -12.408   9.903  71.504  1.00  0.00     0.000 HD 
HETATM   20  O   UNL     1     -12.159  10.737  69.212  1.00  0.00    -0.304 OA 
ENDBRANCH   6  11
ENDBRANCH   3   4
TORSDOF 2
ENDMDL
MODEL      154
REMARK 921   NORMALIZED FREE ENERGY PREDICTED BY IDOCK:   -3.26 KCAL/MOL
REMARK 922        TOTAL FREE ENERGY PREDICTED BY IDOCK:   -3.96 KCAL/MOL
REMARK 923 INTER-LIGAND FREE ENERGY PREDICTED BY IDOCK:   -4.49 KCAL/MOL
REMARK 924 INTRA-LIGAND FREE ENERGY PREDICTED BY IDOCK:    0.53 KCAL/MOL
REMARK 927      BINDING AFFINITY PREDICTED BY RF-SCORE:    0.00 PKD
ROOT
HETATM    1  O5* UNL     1     -11.628   6.297  69.666  1.00  0.00    -0.501 OA 
HETATM    2  H5* UNL     1     -11.917   5.607  70.251  1.00  0.00     0.000 HD 
HETATM    3  C5* UNL     1     -10.638   7.123  70.277  1.00  0.00    -0.227 C  
ENDROOT
BRANCH   3   4
HETATM    4  C4* UNL     1     -10.173   8.232  69.335  1.00  0.00    -0.204 C  
HETATM    5  O4* UNL     1     -11.081   9.349  69.349  1.00  0.00    -0.189 OA 
HETATM    6  C1* UNL     1     -10.322  10.457  68.839  1.00  0.00    -0.209 C  
HETATM    7  H3* UNL     1      -6.942   8.553  69.085  1.00  0.00     0.000 HD 
HETATM    8  C2* UNL     1      -8.914  10.285  69.402  1.00  0.00    -0.190 C  
HETATM    9  C3* UNL     1      -8.800   8.800  69.683  1.00  0.00    -0.141 C  
HETATM   10  O3* UNL     1      -7.796   8.199  68.868  1.00  0.00    -0.108 OA 
BRANCH   6  11
HETATM   11  N   UNL     1     -10.939  11.741  69.159  1.00  0.00    -0.229 N  
HETATM   12  C   UNL     1     -11.151  14.091  68.753  1.00  0.00    -0.264 C  
HETATM   13  C   UNL     1     -10.682  12.882  68.415  1.00  0.00    -0.255 C  
HETATM   14  I   UNL     1     -10.721  15.776  67.678  1.00  0.00    -0.271 I  
HETATM   15  C   UNL     1     -11.991  14.191  69.978  1.00  0.00    -0.340 C  
HETATM   16  O   UNL     1     -12.418  15.250  70.425  1.00  0.00    -0.349 OA 
HETATM   17  N   UNL     1     -12.262  13.006  70.609  1.00  0.00    -0.448 N  
HETATM   18  C   UNL     1     -11.730  11.785  70.300  1.00  0.00    -0.228 C  
HETATM   19  H   UNL     1     -12.924  13.038  71.383  1.00  0.00     0.000 HD 
HETATM   20  O   UNL     1     -11.954  10.816  71.021  1.00  0.00    -0.334 OA 
ENDBRANCH   6  11
ENDBRANCH   3   4
TORSDOF 2
ENDMDL
MODEL      155
REMARK 921   NORMALIZED FREE ENERGY PREDICTED BY IDOCK:   -3.24 KCAL/MOL
REMARK 922        TOTAL FREE ENERGY PREDICTED BY IDOCK:   -3.94 KCAL/MOL
REMARK 923 INTER-LIGAND FREE ENERGY PREDICTED BY IDOCK:   -3.61 KCAL/MOL
REMARK 924 INTRA-LIGAND FREE ENERGY PREDICTED BY IDOCK:   -0.33 KCAL/MOL
REMARK 927      BINDING AFFINITY PREDICTED BY RF-SCORE:    0.00 PKD
ROOT
HETATM    1  O5* UNL     1      -8.444   8.070  72.474  1.00  0.00    -0.131 OA 
HETATM    2  H5* UNL     1      -7.853   8.124  73.215  1.00  0.00     0.000 HD 
HETATM    3  C5* UNL     1      -9.809   8.069  72.889  1.00  0.00    -0.287 C  
ENDROOT
BRANCH   3   4
HETATM    4  C4* UNL     1     -10.759   7.981  71.696  1.00  0.00    -0.232 C  
HETATM    5  O4* UNL     1     -10.129   8.446  70.488  1.00  0.00    -0.186 OA 
HETATM    6  C1* UNL     1     -10.906   7.882  69.419  1.00  0.00    -0.106 C  
HETATM    7  H3* UNL     1     -12.841   5.479  71.783  1.00  0.00     0.000 HD 
HETATM    8  C2* UNL     1     -11.296   6.483  69.887  1.00  0.00    -0.469 C  
HETATM    9  C3* UNL     1     -11.246   6.565  71.400  1.00  0.00    -0.283 C  
HETATM   10  O3* UNL     1     -12.538   6.360  71.967  1.00  0.00    -0.310 OA 
BRANCH   6  11
HETATM   11  N   UNL     1     -10.190   7.907  68.146  1.00  0.00    -0.199 N  
HETATM   12  C   UNL     1      -8.593   6.929  66.654  1.00  0.00    -0.124 C  
HETATM   13  C   UNL     1      -9.342   6.879  67.763  1.00  0.00    -0.120 C  
HETATM   14  I   UNL     1      -7.306   5.430  66.128  1.00  0.00    -0.084 I  
HETATM   15  C   UNL     1      -8.697   8.146  65.802  1.00  0.00    -0.154 C  
HETATM   16  O   UNL     1      -8.013   8.336  64.803  1.00  0.00    -0.130 OA 
HETATM   17  N   UNL     1      -9.614   9.077  66.209  1.00  0.00    -0.239 N  
HETATM   18  C   UNL     1     -10.329   9.053  67.375  1.00  0.00    -0.268 C  
HETATM   19  H   UNL     1      -9.781   9.864  65.582  1.00  0.00     0.000 HD 
HETATM   20  O   UNL     1     -11.030  10.013  67.686  1.00  0.00    -0.290 OA 
ENDBRANCH   6  11
ENDBRANCH   3   4
TORSDOF 2
ENDMDL
MODEL      156
REMARK 921   NORMALIZED FREE ENERGY PREDICTED BY IDOCK:   -3.24 KCAL/MOL
REMARK 922        TOTAL FREE ENERGY PREDICTED BY IDOCK:   -3.94 KCAL/MOL
REMARK 923 INTER-LIGAND FREE ENERGY PREDICTED BY IDOCK:   -3.65 KCAL/MOL
REMARK 924 INTRA-LIGAND FREE ENERGY PREDICTED BY IDOCK:   -0.29 KCAL/MOL
REMARK 927      BINDING AFFINITY PREDICTED BY RF-SCORE:    0.00 PKD
ROOT
HETATM    1  O5* UNL     1     -12.249   8.449  72.721  1.00  0.00    -0.539 OA 
HETATM    2  H5* UNL     1     -12.548   9.320  72.954  1.00  0.00     0.000 HD 
HETATM    3  C5* UNL     1     -12.692   8.073  71.418  1.00  0.00    -0.280 C  
ENDROOT
BRANCH   3   4
HETATM    4  C4* UNL     1     -12.210   6.672  71.044  1.00  0.00    -0.286 C  
HETATM    5  O4* UNL     1     -11.567   6.664  69.756  1.00  0.00    -0.351 OA 
HETATM    6  C1* UNL     1     -10.769   5.469  69.742  1.00  0.00    -0.285 C  
HETATM    7  H3* UNL     1     -11.217   4.849  73.553  1.00  0.00     0.000 HD 
HETATM    8  C2* UNL     1     -10.212   5.331  71.156  1.00  0.00    -0.294 C  
HETATM    9  C3* UNL     1     -11.197   6.088  72.025  1.00  0.00    -0.288 C  
HETATM   10  O3* UNL     1     -11.848   5.213  72.943  1.00  0.00    -0.256 OA 
BRANCH   6  11
HETATM   11  N   UNL     1      -9.747   5.502  68.699  1.00  0.00    -0.134 N  
HETATM   12  C   UNL     1      -8.547   6.714  67.019  1.00  0.00    -0.113 C  
HETATM   13  C   UNL     1      -9.401   6.677  68.050  1.00  0.00    -0.113 C  
HETATM   14  I   UNL     1      -8.087   8.446  66.034  1.00  0.00    -0.128 I  
HETATM   15  C   UNL     1      -7.945   5.428  66.572  1.00  0.00    -0.105 C  
HETATM   16  O   UNL     1      -7.205   5.326  65.600  1.00  0.00    -0.066 OA 
HETATM   17  N   UNL     1      -8.276   4.328  67.316  1.00  0.00    -0.100 N  
HETATM   18  C   UNL     1      -9.198   4.282  68.325  1.00  0.00    -0.142 C  
HETATM   19  H   UNL     1      -7.790   3.459  67.096  1.00  0.00     0.000 HD 
HETATM   20  O   UNL     1      -9.500   3.206  68.835  1.00  0.00    -0.168 OA 
ENDBRANCH   6  11
ENDBRANCH   3   4
TORSDOF 2
ENDMDL
MODEL      157
REMARK 921   NORMALIZED FREE ENERGY PREDICTED BY IDOCK:   -3.24 KCAL/MOL
REMARK 922        TOTAL FREE ENERGY PREDICTED BY IDOCK:   -3.94 KCAL/MOL
REMARK 923 INTER-LIGAND FREE ENERGY PREDICTED BY IDOCK:   -4.22 KCAL/MOL
REMARK 924 INTRA-LIGAND FREE ENERGY PREDICTED BY IDOCK:    0.29 KCAL/MOL
REMARK 927      BINDING AFFINITY PREDICTED BY RF-SCORE:    0.00 PKD
ROOT
HETATM    1  O5* UNL     1     -11.131   7.331  66.811  1.00  0.00    -0.539 OA 
HETATM    2  H5* UNL     1     -11.691   6.650  66.460  1.00  0.00     0.000 HD 
HETATM    3  C5* UNL     1     -10.769   7.067  68.166  1.00  0.00    -0.188 C  
ENDROOT
BRANCH   3   4
HETATM    4  C4* UNL     1      -9.868   8.164  68.730  1.00  0.00    -0.176 C  
HETATM    5  O4* UNL     1      -9.880   9.337  67.894  1.00  0.00    -0.155 OA 
HETATM    6  C1* UNL     1      -9.419  10.404  68.737  1.00  0.00    -0.175 C  
HETATM    7  H3* UNL     1      -9.726   8.285  71.981  1.00  0.00     0.000 HD 
HETATM    8  C2* UNL     1     -10.021  10.131  70.112  1.00  0.00    -0.154 C  
HETATM    9  C3* UNL     1     -10.272   8.636  70.124  1.00  0.00    -0.192 C  
HETATM   10  O3* UNL     1      -9.475   7.991  71.114  1.00  0.00    -0.149 OA 
BRANCH   6  11
HETATM   11  N   UNL     1      -9.749  11.718  68.191  1.00  0.00    -0.186 N  
HETATM   12  C   UNL     1      -9.148  14.001  67.793  1.00  0.00    -0.192 C  
HETATM   13  C   UNL     1      -8.835  12.760  68.188  1.00  0.00    -0.194 C  
HETATM   14  I   UNL     1      -7.806  15.542  67.843  1.00  0.00    -0.188 I  
HETATM   15  C   UNL     1     -10.542  14.250  67.331  1.00  0.00    -0.276 C  
HETATM   16  O   UNL     1     -10.964  15.355  67.012  1.00  0.00    -0.321 OA 
HETATM   17  N   UNL     1     -11.358  13.151  67.291  1.00  0.00    -0.291 N  
HETATM   18  C   UNL     1     -11.055  11.901  67.756  1.00  0.00    -0.239 C  
HETATM   19  H   UNL     1     -12.280  13.277  66.874  1.00  0.00     0.000 HD 
HETATM   20  O   UNL     1     -11.918  11.027  67.778  1.00  0.00    -0.609 OA 
ENDBRANCH   6  11
ENDBRANCH   3   4
TORSDOF 2
ENDMDL
MODEL      158
REMARK 921   NORMALIZED FREE ENERGY PREDICTED BY IDOCK:   -3.19 KCAL/MOL
REMARK 922        TOTAL FREE ENERGY PREDICTED BY IDOCK:   -3.89 KCAL/MOL
REMARK 923 INTER-LIGAND FREE ENERGY PREDICTED BY IDOCK:   -3.42 KCAL/MOL
REMARK 924 INTRA-LIGAND FREE ENERGY PREDICTED BY IDOCK:   -0.47 KCAL/MOL
REMARK 927      BINDING AFFINITY PREDICTED BY RF-SCORE:    0.00 PKD
ROOT
HETATM    1  O5* UNL     1      -7.547   8.977  65.287  1.00  0.00    -0.094 OA 
HETATM    2  H5* UNL     1      -7.249   8.338  64.651  1.00  0.00     0.000 HD 
HETATM    3  C5* UNL     1      -8.795   8.598  65.867  1.00  0.00    -0.184 C  
ENDROOT
BRANCH   3   4
HETATM    4  C4* UNL     1      -9.274   9.626  66.890  1.00  0.00    -0.143 C  
HETATM    5  O4* UNL     1      -9.903   8.992  68.019  1.00  0.00    -0.155 OA 
HETATM    6  C1* UNL     1      -9.864   9.970  69.070  1.00  0.00    -0.199 C  
HETATM    7  H3* UNL     1      -7.408  12.283  67.140  1.00  0.00     0.000 HD 
HETATM    8  C2* UNL     1      -8.521  10.679  68.922  1.00  0.00    -0.154 C  
HETATM    9  C3* UNL     1      -8.155  10.493  67.463  1.00  0.00    -0.107 C  
HETATM   10  O3* UNL     1      -8.104  11.745  66.783  1.00  0.00    -0.166 OA 
BRANCH   6  11
HETATM   11  N   UNL     1     -10.082   9.373  70.385  1.00  0.00    -0.236 N  
HETATM   12  C   UNL     1      -9.265   8.087  72.232  1.00  0.00    -0.182 C  
HETATM   13  C   UNL     1      -9.064   8.734  71.076  1.00  0.00    -0.218 C  
HETATM   14  I   UNL     1      -7.767   7.103  73.215  1.00  0.00    -0.116 I  
HETATM   15  C   UNL     1     -10.647   8.074  72.787  1.00  0.00    -0.351 C  
HETATM   16  O   UNL     1     -10.966   7.459  73.799  1.00  0.00    -0.276 OA 
HETATM   17  N   UNL     1     -11.575   8.795  72.085  1.00  0.00    -0.372 N  
HETATM   18  C   UNL     1     -11.382   9.399  70.874  1.00  0.00    -0.319 C  
HETATM   19  H   UNL     1     -12.498   8.891  72.506  1.00  0.00     0.000 HD 
HETATM   20  O   UNL     1     -12.330   9.911  70.283  1.00  0.00    -0.148 OA 
ENDBRANCH   6  11
ENDBRANCH   3   4
TORSDOF 2
ENDMDL
MODEL      159
REMARK 921   NORMALIZED FREE ENERGY PREDICTED BY IDOCK:   -3.19 KCAL/MOL
REMARK 922        TOTAL FREE ENERGY PREDICTED BY IDOCK:   -3.88 KCAL/MOL
REMARK 923 INTER-LIGAND FREE ENERGY PREDICTED BY IDOCK:   -3.57 KCAL/MOL
REMARK 924 INTRA-LIGAND FREE ENERGY PREDICTED BY IDOCK:   -0.31 KCAL/MOL
REMARK 927      BINDING AFFINITY PREDICTED BY RF-SCORE:    0.00 PKD
ROOT
HETATM    1  O5* UNL     1     -12.432   8.772  70.780  1.00  0.00    -0.495 OA 
HETATM    2  H5* UNL     1     -12.767   8.264  71.509  1.00  0.00     0.000 HD 
HETATM    3  C5* UNL     1     -11.173   9.367  71.090  1.00  0.00    -0.357 C  
ENDROOT
BRANCH   3   4
HETATM    4  C4* UNL     1     -10.634  10.185  69.918  1.00  0.00    -0.285 C  
HETATM    5  O4* UNL     1      -9.748   9.403  69.095  1.00  0.00    -0.157 OA 
HETATM    6  C1* UNL     1      -9.705  10.087  67.833  1.00  0.00    -0.146 C  
HETATM    7  H3* UNL     1     -12.704  12.395  68.721  1.00  0.00     0.000 HD 
HETATM    8  C2* UNL     1     -11.123  10.600  67.596  1.00  0.00    -0.385 C  
HETATM    9  C3* UNL     1     -11.720  10.712  68.984  1.00  0.00    -0.234 C  
HETATM   10  O3* UNL     1     -12.029  12.067  69.302  1.00  0.00    -0.302 OA 
BRANCH   6  11
HETATM   11  N   UNL     1      -9.192   9.236  66.763  1.00  0.00    -0.142 N  
HETATM   12  C   UNL     1      -8.762   7.050  65.887  1.00  0.00    -0.126 C  
HETATM   13  C   UNL     1      -9.318   7.856  66.801  1.00  0.00    -0.184 C  
HETATM   14  I   UNL     1      -8.909   5.013  65.984  1.00  0.00    -0.143 I  
HETATM   15  C   UNL     1      -7.988   7.683  64.784  1.00  0.00    -0.137 C  
HETATM   16  O   UNL     1      -7.379   7.048  63.930  1.00  0.00    -0.070 OA 
HETATM   17  N   UNL     1      -7.980   9.052  64.775  1.00  0.00    -0.121 N  
HETATM   18  C   UNL     1      -8.492   9.870  65.744  1.00  0.00    -0.135 C  
HETATM   19  H   UNL     1      -7.551   9.505  63.969  1.00  0.00     0.000 HD 
HETATM   20  O   UNL     1      -8.311  11.084  65.684  1.00  0.00    -0.149 OA 
ENDBRANCH   6  11
ENDBRANCH   3   4
TORSDOF 2
ENDMDL
MODEL      160
REMARK 921   NORMALIZED FREE ENERGY PREDICTED BY IDOCK:   -3.19 KCAL/MOL
REMARK 922        TOTAL FREE ENERGY PREDICTED BY IDOCK:   -3.88 KCAL/MOL
REMARK 923 INTER-LIGAND FREE ENERGY PREDICTED BY IDOCK:   -3.47 KCAL/MOL
REMARK 924 INTRA-LIGAND FREE ENERGY PREDICTED BY IDOCK:   -0.41 KCAL/MOL
REMARK 927      BINDING AFFINITY PREDICTED BY RF-SCORE:    0.00 PKD
ROOT
HETATM    1  O5* UNL     1      -9.947   3.562  67.357  1.00  0.00    -0.237 OA 
HETATM    2  H5* UNL     1     -10.085   3.028  66.584  1.00  0.00     0.000 HD 
HETATM    3  C5* UNL     1      -9.532   4.884  67.014  1.00  0.00    -0.148 C  
ENDROOT
BRANCH   3   4
HETATM    4  C4* UNL     1      -9.311   5.743  68.257  1.00  0.00    -0.117 C  
HETATM    5  O4* UNL     1      -8.837   7.058  67.910  1.00  0.00    -0.125 OA 
HETATM    6  C1* UNL     1      -9.127   7.876  69.055  1.00  0.00    -0.144 C  
HETATM    7  H3* UNL     1     -11.384   5.174  70.704  1.00  0.00     0.000 HD 
HETATM    8  C2* UNL     1     -10.475   7.387  69.579  1.00  0.00    -0.236 C  
HETATM    9  C3* UNL     1     -10.572   5.955  69.091  1.00  0.00    -0.299 C  
HETATM   10  O3* UNL     1     -10.599   5.042  70.185  1.00  0.00    -0.236 OA 
BRANCH   6  11
HETATM   11  N   UNL     1      -9.093   9.301  68.736  1.00  0.00    -0.135 N  
HETATM   12  C   UNL     1      -9.504  11.084  67.192  1.00  0.00    -0.164 C  
HETATM   13  C   UNL     1      -9.620   9.799  67.555  1.00  0.00    -0.150 C  
HETATM   14  I   UNL     1     -10.239  11.796  65.422  1.00  0.00    -0.336 I  
HETATM   15  C   UNL     1      -8.783  12.002  68.116  1.00  0.00    -0.177 C  
HETATM   16  O   UNL     1      -8.555  13.180  67.861  1.00  0.00    -0.163 OA 
HETATM   17  N   UNL     1      -8.364  11.448  69.295  1.00  0.00    -0.369 N  
HETATM   18  C   UNL     1      -8.426  10.124  69.634  1.00  0.00    -0.157 C  
HETATM   19  H   UNL     1      -7.968  12.083  69.987  1.00  0.00     0.000 HD 
HETATM   20  O   UNL     1      -7.901   9.730  70.672  1.00  0.00    -0.277 OA 
ENDBRANCH   6  11
ENDBRANCH   3   4
TORSDOF 2
ENDMDL
MODEL      161
REMARK 921   NORMALIZED FREE ENERGY PREDICTED BY IDOCK:   -3.18 KCAL/MOL
REMARK 922        TOTAL FREE ENERGY PREDICTED BY IDOCK:   -3.87 KCAL/MOL
REMARK 923 INTER-LIGAND FREE ENERGY PREDICTED BY IDOCK:   -3.59 KCAL/MOL
REMARK 924 INTRA-LIGAND FREE ENERGY PREDICTED BY IDOCK:   -0.28 KCAL/MOL
REMARK 927      BINDING AFFINITY PREDICTED BY RF-SCORE:    0.00 PKD
ROOT
HETATM    1  O5* UNL     1     -12.222  15.939  63.781  1.00  0.00    -1.213 OA 
HETATM    2  H5* UNL     1     -12.573  16.784  63.525  1.00  0.00     0.000 HD 
HETATM    3  C5* UNL     1     -11.297  16.061  64.861  1.00  0.00    -0.229 C  
ENDROOT
BRANCH   3   4
HETATM    4  C4* UNL     1     -10.733  14.702  65.272  1.00  0.00    -0.381 C  
HETATM    5  O4* UNL     1      -9.458  14.839  65.928  1.00  0.00    -0.298 OA 
HETATM    6  C1* UNL     1      -9.281  13.617  66.662  1.00  0.00    -0.212 C  
HETATM    7  H3* UNL     1     -12.966  12.496  66.141  1.00  0.00     0.000 HD 
HETATM    8  C2* UNL     1     -10.663  13.253  67.196  1.00  0.00    -0.264 C  
HETATM    9  C3* UNL     1     -11.626  13.933  66.243  1.00  0.00    -0.365 C  
HETATM   10  O3* UNL     1     -12.410  12.975  65.537  1.00  0.00    -0.447 OA 
BRANCH   6  11
HETATM   11  N   UNL     1      -8.256  13.740  67.696  1.00  0.00    -0.163 N  
HETATM   12  C   UNL     1      -6.962  15.113  69.170  1.00  0.00    -0.147 C  
HETATM   13  C   UNL     1      -7.968  14.954  68.299  1.00  0.00    -0.130 C  
HETATM   14  I   UNL     1      -6.512  16.921  70.012  1.00  0.00     0.792 I  
HETATM   15  C   UNL     1      -6.135  13.919  69.498  1.00  0.00    -0.110 C  
HETATM   16  O   UNL     1      -5.149  13.955  70.225  1.00  0.00    -0.090 OA 
HETATM   17  N   UNL     1      -6.535  12.744  68.921  1.00  0.00    -0.085 N  
HETATM   18  C   UNL     1      -7.521  12.598  67.984  1.00  0.00    -0.120 C  
HETATM   19  H   UNL     1      -6.053  11.897  69.219  1.00  0.00     0.000 HD 
HETATM   20  O   UNL     1      -7.703  11.507  67.447  1.00  0.00    -0.127 OA 
ENDBRANCH   6  11
ENDBRANCH   3   4
TORSDOF 2
ENDMDL
MODEL      162
REMARK 921   NORMALIZED FREE ENERGY PREDICTED BY IDOCK:   -3.18 KCAL/MOL
REMARK 922        TOTAL FREE ENERGY PREDICTED BY IDOCK:   -3.87 KCAL/MOL
REMARK 923 INTER-LIGAND FREE ENERGY PREDICTED BY IDOCK:   -3.69 KCAL/MOL
REMARK 924 INTRA-LIGAND FREE ENERGY PREDICTED BY IDOCK:   -0.18 KCAL/MOL
REMARK 927      BINDING AFFINITY PREDICTED BY RF-SCORE:    0.00 PKD
ROOT
HETATM    1  O5* UNL     1      -9.803   3.320  65.971  1.00  0.00    -0.405 OA 
HETATM    2  H5* UNL     1     -10.320   2.745  65.420  1.00  0.00     0.000 HD 
HETATM    3  C5* UNL     1     -10.196   4.684  65.822  1.00  0.00    -0.258 C  
ENDROOT
BRANCH   3   4
HETATM    4  C4* UNL     1      -9.364   5.608  66.708  1.00  0.00    -0.134 C  
HETATM    5  O4* UNL     1      -9.814   6.973  66.614  1.00  0.00    -0.185 OA 
HETATM    6  C1* UNL     1      -9.309   7.617  67.795  1.00  0.00    -0.142 C  
HETATM    7  H3* UNL     1      -8.300   4.261  69.476  1.00  0.00     0.000 HD 
HETATM    8  C2* UNL     1      -9.430   6.583  68.911  1.00  0.00    -0.129 C  
HETATM    9  C3* UNL     1      -9.415   5.249  68.191  1.00  0.00    -0.123 C  
HETATM   10  O3* UNL     1      -8.268   4.484  68.553  1.00  0.00    -0.082 OA 
BRANCH   6  11
HETATM   11  N   UNL     1      -9.997   8.875  68.071  1.00  0.00    -0.169 N  
HETATM   12  C   UNL     1     -11.474  10.165  69.444  1.00  0.00    -0.142 C  
HETATM   13  C   UNL     1     -10.748   9.062  69.221  1.00  0.00    -0.174 C  
HETATM   14  I   UNL     1     -12.621  10.406  71.120  1.00  0.00    -0.576 I  
HETATM   15  C   UNL     1     -11.452  11.231  68.405  1.00  0.00    -0.307 C  
HETATM   16  O   UNL     1     -12.128  12.252  68.465  1.00  0.00    -0.279 OA 
HETATM   17  N   UNL     1     -10.624  11.003  67.339  1.00  0.00    -0.222 N  
HETATM   18  C   UNL     1      -9.936   9.849  67.082  1.00  0.00    -0.200 C  
HETATM   19  H   UNL     1     -10.509  11.766  66.673  1.00  0.00     0.000 HD 
HETATM   20  O   UNL     1      -9.323   9.720  66.025  1.00  0.00    -0.168 OA 
ENDBRANCH   6  11
ENDBRANCH   3   4
TORSDOF 2
ENDMDL
MODEL      163
REMARK 921   NORMALIZED FREE ENERGY PREDICTED BY IDOCK:   -3.16 KCAL/MOL
REMARK 922        TOTAL FREE ENERGY PREDICTED BY IDOCK:   -3.85 KCAL/MOL
REMARK 923 INTER-LIGAND FREE ENERGY PREDICTED BY IDOCK:   -4.10 KCAL/MOL
REMARK 924 INTRA-LIGAND FREE ENERGY PREDICTED BY IDOCK:    0.25 KCAL/MOL
REMARK 927      BINDING AFFINITY PREDICTED BY RF-SCORE:    0.00 PKD
ROOT
HETATM    1  O5* UNL     1     -12.721   8.805  70.782  1.00  0.00    -0.493 OA 
HETATM    2  H5* UNL     1     -13.128   8.226  71.414  1.00  0.00     0.000 HD 
HETATM    3  C5* UNL     1     -11.442   9.255  71.229  1.00  0.00    -0.347 C  
ENDROOT
BRANCH   3   4
HETATM    4  C4* UNL     1     -10.787  10.186  70.212  1.00  0.00    -0.310 C  
HETATM    5  O4* UNL     1      -9.854   9.478  69.375  1.00  0.00    -0.170 OA 
HETATM    6  C1* UNL     1      -9.689  10.306  68.212  1.00  0.00    -0.142 C  
HETATM    7  H3* UNL     1     -12.694  12.594  69.130  1.00  0.00     0.000 HD 
HETATM    8  C2* UNL     1     -11.068  10.892  67.926  1.00  0.00    -0.362 C  
HETATM    9  C3* UNL     1     -11.778  10.859  69.265  1.00  0.00    -0.324 C  
HETATM   10  O3* UNL     1     -12.078  12.176  69.719  1.00  0.00    -0.290 OA 
BRANCH   6  11
HETATM   11  N   UNL     1      -9.109   9.571  67.091  1.00  0.00    -0.133 N  
HETATM   12  C   UNL     1      -7.491   9.422  65.333  1.00  0.00    -0.099 C  
HETATM   13  C   UNL     1      -7.977  10.019  66.429  1.00  0.00    -0.116 C  
HETATM   14  I   UNL     1      -5.852  10.124  64.333  1.00  0.00    -0.094 I  
HETATM   15  C   UNL     1      -8.206   8.218  64.826  1.00  0.00    -0.144 C  
HETATM   16  O   UNL     1      -7.897   7.629  63.796  1.00  0.00    -0.122 OA 
HETATM   17  N   UNL     1      -9.265   7.795  65.582  1.00  0.00    -0.397 N  
HETATM   18  C   UNL     1      -9.798   8.444  66.662  1.00  0.00    -0.273 C  
HETATM   19  H   UNL     1      -9.699   6.912  65.315  1.00  0.00     0.000 HD 
HETATM   20  O   UNL     1     -10.831   8.027  67.182  1.00  0.00    -0.278 OA 
ENDBRANCH   6  11
ENDBRANCH   3   4
TORSDOF 2
ENDMDL
MODEL      164
REMARK 921   NORMALIZED FREE ENERGY PREDICTED BY IDOCK:   -3.16 KCAL/MOL
REMARK 922        TOTAL FREE ENERGY PREDICTED BY IDOCK:   -3.85 KCAL/MOL
REMARK 923 INTER-LIGAND FREE ENERGY PREDICTED BY IDOCK:   -3.54 KCAL/MOL
REMARK 924 INTRA-LIGAND FREE ENERGY PREDICTED BY IDOCK:   -0.31 KCAL/MOL
REMARK 927      BINDING AFFINITY PREDICTED BY RF-SCORE:    0.00 PKD
ROOT
HETATM    1  O5* UNL     1     -12.164  16.534  70.735  1.00  0.00    -0.283 OA 
HETATM    2  H5* UNL     1     -12.909  16.356  71.296  1.00  0.00     0.000 HD 
HETATM    3  C5* UNL     1     -11.787  15.382  69.981  1.00  0.00    -0.343 C  
ENDROOT
BRANCH   3   4
HETATM    4  C4* UNL     1     -10.588  15.669  69.080  1.00  0.00    -0.234 C  
HETATM    5  O4* UNL     1      -9.664  14.565  69.068  1.00  0.00    -0.200 OA 
HETATM    6  C1* UNL     1      -8.883  14.742  67.875  1.00  0.00    -0.167 C  
HETATM    7  H3* UNL     1     -11.249  17.480  66.455  1.00  0.00     0.000 HD 
HETATM    8  C2* UNL     1      -9.856  15.263  66.821  1.00  0.00    -0.246 C  
HETATM    9  C3* UNL     1     -10.961  15.922  67.621  1.00  0.00    -0.298 C  
HETATM   10  O3* UNL     1     -11.017  17.323  67.362  1.00  0.00    -0.216 OA 
BRANCH   6  11
HETATM   11  N   UNL     1      -8.185  13.519  67.488  1.00  0.00    -0.172 N  
HETATM   12  C   UNL     1      -8.236  11.175  67.001  1.00  0.00    -0.146 C  
HETATM   13  C   UNL     1      -8.862  12.333  67.250  1.00  0.00    -0.190 C  
HETATM   14  I   UNL     1      -9.245   9.422  66.704  1.00  0.00    -0.247 I  
HETATM   15  C   UNL     1      -6.747  11.185  66.972  1.00  0.00    -0.115 C  
HETATM   16  O   UNL     1      -6.064  10.178  66.823  1.00  0.00    -0.057 OA 
HETATM   17  N   UNL     1      -6.159  12.410  67.138  1.00  0.00    -0.219 N  
HETATM   18  C   UNL     1      -6.797  13.577  67.457  1.00  0.00    -0.143 C  
HETATM   19  H   UNL     1      -5.149  12.457  67.011  1.00  0.00     0.000 HD 
HETATM   20  O   UNL     1      -6.144  14.588  67.703  1.00  0.00    -0.267 OA 
ENDBRANCH   6  11
ENDBRANCH   3   4
TORSDOF 2
ENDMDL
MODEL      165
REMARK 921   NORMALIZED FREE ENERGY PREDICTED BY IDOCK:   -3.14 KCAL/MOL
REMARK 922        TOTAL FREE ENERGY PREDICTED BY IDOCK:   -3.82 KCAL/MOL
REMARK 923 INTER-LIGAND FREE ENERGY PREDICTED BY IDOCK:   -3.51 KCAL/MOL
REMARK 924 INTRA-LIGAND FREE ENERGY PREDICTED BY IDOCK:   -0.32 KCAL/MOL
REMARK 927      BINDING AFFINITY PREDICTED BY RF-SCORE:    0.00 PKD
ROOT
HETATM    1  O5* UNL     1      -9.782   1.885  64.965  1.00  0.00    -0.334 OA 
HETATM    2  H5* UNL     1      -9.834   0.963  64.746  1.00  0.00     0.000 HD 
HETATM    3  C5* UNL     1      -8.467   2.401  64.757  1.00  0.00    -0.091 C  
ENDROOT
BRANCH   3   4
HETATM    4  C4* UNL     1      -8.384   3.884  65.109  1.00  0.00    -0.101 C  
HETATM    5  O4* UNL     1      -9.420   4.265  66.034  1.00  0.00    -0.150 OA 
HETATM    6  C1* UNL     1      -8.960   5.486  66.633  1.00  0.00    -0.118 C  
HETATM    7  H3* UNL     1      -5.365   5.103  65.203  1.00  0.00     0.000 HD 
HETATM    8  C2* UNL     1      -7.453   5.315  66.810  1.00  0.00    -0.087 C  
HETATM    9  C3* UNL     1      -7.065   4.288  65.765  1.00  0.00    -0.067 C  
HETATM   10  O3* UNL     1      -6.186   4.852  64.795  1.00  0.00    -0.031 OA 
BRANCH   6  11
HETATM   11  N   UNL     1      -9.674   5.796  67.869  1.00  0.00    -0.116 N  
HETATM   12  C   UNL     1     -10.135   5.310  70.167  1.00  0.00    -0.263 C  
HETATM   13  C   UNL     1      -9.420   5.119  69.051  1.00  0.00    -0.133 C  
HETATM   14  I   UNL     1      -9.785   4.265  71.890  1.00  0.00    -0.239 I  
HETATM   15  C   UNL     1     -11.241   6.306  70.119  1.00  0.00    -0.403 C  
HETATM   16  O   UNL     1     -12.005   6.518  71.054  1.00  0.00    -0.361 OA 
HETATM   17  N   UNL     1     -11.373   6.988  68.939  1.00  0.00    -0.497 N  
HETATM   18  C   UNL     1     -10.685   6.744  67.783  1.00  0.00    -0.268 C  
HETATM   19  H   UNL     1     -12.050   7.750  68.921  1.00  0.00     0.000 HD 
HETATM   20  O   UNL     1     -10.984   7.342  66.752  1.00  0.00    -0.249 OA 
ENDBRANCH   6  11
ENDBRANCH   3   4
TORSDOF 2
ENDMDL
MODEL      166
REMARK 921   NORMALIZED FREE ENERGY PREDICTED BY IDOCK:   -3.13 KCAL/MOL
REMARK 922        TOTAL FREE ENERGY PREDICTED BY IDOCK:   -3.82 KCAL/MOL
REMARK 923 INTER-LIGAND FREE ENERGY PREDICTED BY IDOCK:   -3.78 KCAL/MOL
REMARK 924 INTRA-LIGAND FREE ENERGY PREDICTED BY IDOCK:   -0.04 KCAL/MOL
REMARK 927      BINDING AFFINITY PREDICTED BY RF-SCORE:    0.00 PKD
ROOT
HETATM    1  O5* UNL     1     -10.994   9.776  69.062  1.00  0.00    -0.290 OA 
HETATM    2  H5* UNL     1     -11.746   9.447  69.540  1.00  0.00     0.000 HD 
HETATM    3  C5* UNL     1     -11.386  10.471  67.879  1.00  0.00    -0.222 C  
ENDROOT
BRANCH   3   4
HETATM    4  C4* UNL     1     -10.175  10.999  67.111  1.00  0.00    -0.206 C  
HETATM    5  O4* UNL     1     -10.350  12.378  66.738  1.00  0.00    -0.220 OA 
HETATM    6  C1* UNL     1      -9.025  12.868  66.478  1.00  0.00    -0.078 C  
HETATM    7  H3* UNL     1      -7.315   9.740  68.029  1.00  0.00     0.000 HD 
HETATM    8  C2* UNL     1      -8.129  12.203  67.520  1.00  0.00    -0.163 C  
HETATM    9  C3* UNL     1      -8.871  10.938  67.902  1.00  0.00    -0.134 C  
HETATM   10  O3* UNL     1      -8.127   9.778  67.537  1.00  0.00    -0.112 OA 
BRANCH   6  11
HETATM   11  N   UNL     1      -8.966  14.327  66.485  1.00  0.00    -0.186 N  
HETATM   12  C   UNL     1      -8.082  16.356  67.398  1.00  0.00    -0.153 C  
HETATM   13  C   UNL     1      -8.080  15.020  67.295  1.00  0.00    -0.210 C  
HETATM   14  I   UNL     1      -6.805  17.364  68.637  1.00  0.00    -0.242 I  
HETATM   15  C   UNL     1      -9.080  17.112  66.593  1.00  0.00    -0.258 C  
HETATM   16  O   UNL     1      -9.223  18.328  66.656  1.00  0.00    -0.280 OA 
HETATM   17  N   UNL     1      -9.864  16.358  65.761  1.00  0.00    -0.306 N  
HETATM   18  C   UNL     1      -9.904  14.992  65.706  1.00  0.00    -0.353 C  
HETATM   19  H   UNL     1     -10.476  16.864  65.121  1.00  0.00     0.000 HD 
HETATM   20  O   UNL     1     -10.742  14.429  65.005  1.00  0.00    -0.372 OA 
ENDBRANCH   6  11
ENDBRANCH   3   4
TORSDOF 2
ENDMDL
MODEL      167
REMARK 921   NORMALIZED FREE ENERGY PREDICTED BY IDOCK:   -3.13 KCAL/MOL
REMARK 922        TOTAL FREE ENERGY PREDICTED BY IDOCK:   -3.81 KCAL/MOL
REMARK 923 INTER-LIGAND FREE ENERGY PREDICTED BY IDOCK:   -3.47 KCAL/MOL
REMARK 924 INTRA-LIGAND FREE ENERGY PREDICTED BY IDOCK:   -0.35 KCAL/MOL
REMARK 927      BINDING AFFINITY PREDICTED BY RF-SCORE:    0.00 PKD
ROOT
HETATM    1  O5* UNL     1      -8.823  12.365  68.655  1.00  0.00    -0.353 OA 
HETATM    2  H5* UNL     1      -8.562  13.229  68.948  1.00  0.00     0.000 HD 
HETATM    3  C5* UNL     1      -7.740  11.438  68.723  1.00  0.00    -0.135 C  
ENDROOT
BRANCH   3   4
HETATM    4  C4* UNL     1      -8.161  10.048  68.251  1.00  0.00    -0.104 C  
HETATM    5  O4* UNL     1      -8.656   9.250  69.343  1.00  0.00    -0.129 OA 
HETATM    6  C1* UNL     1      -9.434   8.211  68.727  1.00  0.00    -0.148 C  
HETATM    7  H3* UNL     1      -9.406   9.938  65.244  1.00  0.00     0.000 HD 
HETATM    8  C2* UNL     1     -10.144   8.873  67.549  1.00  0.00    -0.285 C  
HETATM    9  C3* UNL     1      -9.270  10.063  67.203  1.00  0.00    -0.141 C  
HETATM   10  O3* UNL     1      -8.716   9.929  65.897  1.00  0.00    -0.133 OA 
BRANCH   6  11
HETATM   11  N   UNL     1     -10.333   7.560  69.676  1.00  0.00    -0.220 N  
HETATM   12  C   UNL     1     -12.157   7.696  71.221  1.00  0.00    -0.314 C  
HETATM   13  C   UNL     1     -11.387   8.239  70.269  1.00  0.00    -0.129 C  
HETATM   14  I   UNL     1     -13.674   8.725  72.126  1.00  0.00    -0.480 I  
HETATM   15  C   UNL     1     -11.860   6.298  71.639  1.00  0.00    -0.256 C  
HETATM   16  O   UNL     1     -12.450   5.721  72.545  1.00  0.00    -0.091 OA 
HETATM   17  N   UNL     1     -10.856   5.674  70.949  1.00  0.00    -0.253 N  
HETATM   18  C   UNL     1     -10.030   6.251  70.025  1.00  0.00    -0.171 C  
HETATM   19  H   UNL     1     -10.711   4.683  71.143  1.00  0.00     0.000 HD 
HETATM   20  O   UNL     1      -9.083   5.617  69.565  1.00  0.00    -0.123 OA 
ENDBRANCH   6  11
ENDBRANCH   3   4
TORSDOF 2
ENDMDL
MODEL      168
REMARK 921   NORMALIZED FREE ENERGY PREDICTED BY IDOCK:   -3.12 KCAL/MOL
REMARK 922        TOTAL FREE ENERGY PREDICTED BY IDOCK:   -3.81 KCAL/MOL
REMARK 923 INTER-LIGAND FREE ENERGY PREDICTED BY IDOCK:   -3.51 KCAL/MOL
REMARK 924 INTRA-LIGAND FREE ENERGY PREDICTED BY IDOCK:   -0.30 KCAL/MOL
REMARK 927      BINDING AFFINITY PREDICTED BY RF-SCORE:    0.00 PKD
ROOT
HETATM    1  O5* UNL     1     -11.371   9.650  68.833  1.00  0.00    -0.458 OA 
HETATM    2  H5* UNL     1     -12.290   9.455  68.968  1.00  0.00     0.000 HD 
HETATM    3  C5* UNL     1     -11.184  10.599  67.784  1.00  0.00    -0.313 C  
ENDROOT
BRANCH   3   4
HETATM    4  C4* UNL     1      -9.705  10.914  67.567  1.00  0.00    -0.167 C  
HETATM    5  O4* UNL     1      -9.495  12.318  67.329  1.00  0.00    -0.179 OA 
HETATM    6  C1* UNL     1      -8.107  12.545  67.619  1.00  0.00    -0.171 C  
HETATM    7  H3* UNL     1      -7.645   9.060  69.278  1.00  0.00     0.000 HD 
HETATM    8  C2* UNL     1      -7.788  11.660  68.820  1.00  0.00    -0.096 C  
HETATM    9  C3* UNL     1      -8.818  10.551  68.755  1.00  0.00    -0.158 C  
HETATM   10  O3* UNL     1      -8.197   9.286  68.539  1.00  0.00    -0.111 OA 
BRANCH   6  11
HETATM   11  N   UNL     1      -7.812  13.961  67.826  1.00  0.00    -0.152 N  
HETATM   12  C   UNL     1      -8.578  16.212  68.101  1.00  0.00    -0.177 C  
HETATM   13  C   UNL     1      -8.817  14.897  68.017  1.00  0.00    -0.167 C  
HETATM   14  I   UNL     1     -10.073  17.588  68.329  1.00  0.00    -0.395 I  
HETATM   15  C   UNL     1      -7.165  16.668  67.992  1.00  0.00    -0.155 C  
HETATM   16  O   UNL     1      -6.830  17.848  67.985  1.00  0.00    -0.190 OA 
HETATM   17  N   UNL     1      -6.228  15.676  67.884  1.00  0.00    -0.134 N  
HETATM   18  C   UNL     1      -6.480  14.340  67.733  1.00  0.00    -0.166 C  
HETATM   19  H   UNL     1      -5.250  15.960  67.920  1.00  0.00     0.000 HD 
HETATM   20  O   UNL     1      -5.554  13.560  67.520  1.00  0.00    -0.320 OA 
ENDBRANCH   6  11
ENDBRANCH   3   4
TORSDOF 2
ENDMDL
MODEL      169
REMARK 921   NORMALIZED FREE ENERGY PREDICTED BY IDOCK:   -3.10 KCAL/MOL
REMARK 922        TOTAL FREE ENERGY PREDICTED BY IDOCK:   -3.79 KCAL/MOL
REMARK 923 INTER-LIGAND FREE ENERGY PREDICTED BY IDOCK:   -3.36 KCAL/MOL
REMARK 924 INTRA-LIGAND FREE ENERGY PREDICTED BY IDOCK:   -0.43 KCAL/MOL
REMARK 927      BINDING AFFINITY PREDICTED BY RF-SCORE:    0.00 PKD
ROOT
HETATM    1  O5* UNL     1     -10.696   3.378  64.952  1.00  0.00    -0.402 OA 
HETATM    2  H5* UNL     1     -11.346   3.394  64.260  1.00  0.00     0.000 HD 
HETATM    3  C5* UNL     1     -10.532   4.664  65.549  1.00  0.00    -0.189 C  
ENDROOT
BRANCH   3   4
HETATM    4  C4* UNL     1      -9.486   4.637  66.661  1.00  0.00    -0.166 C  
HETATM    5  O4* UNL     1      -9.799   5.584  67.700  1.00  0.00    -0.129 OA 
HETATM    6  C1* UNL     1      -9.061   5.138  68.849  1.00  0.00    -0.107 C  
HETATM    7  H3* UNL     1      -8.173   1.713  67.239  1.00  0.00     0.000 HD 
HETATM    8  C2* UNL     1      -9.124   3.614  68.812  1.00  0.00    -0.200 C  
HETATM    9  C3* UNL     1      -9.355   3.282  67.352  1.00  0.00    -0.201 C  
HETATM   10  O3* UNL     1      -8.254   2.556  66.810  1.00  0.00    -0.080 OA 
BRANCH   6  11
HETATM   11  N   UNL     1      -9.564   5.725  70.088  1.00  0.00    -0.161 N  
HETATM   12  C   UNL     1     -11.341   6.769  71.308  1.00  0.00    -0.289 C  
HETATM   13  C   UNL     1     -10.883   6.131  70.223  1.00  0.00    -0.319 C  
HETATM   14  I   UNL     1     -13.275   7.409  71.473  1.00  0.00    -0.182 I  
HETATM   15  C   UNL     1     -10.377   7.037  72.412  1.00  0.00    -0.203 C  
HETATM   16  O   UNL     1     -10.661   7.671  73.422  1.00  0.00    -0.379 OA 
HETATM   17  N   UNL     1      -9.117   6.534  72.233  1.00  0.00    -0.139 N  
HETATM   18  C   UNL     1      -8.636   5.941  71.098  1.00  0.00    -0.129 C  
HETATM   19  H   UNL     1      -8.475   6.609  73.021  1.00  0.00     0.000 HD 
HETATM   20  O   UNL     1      -7.446   5.644  71.016  1.00  0.00    -0.084 OA 
ENDBRANCH   6  11
ENDBRANCH   3   4
TORSDOF 2
ENDMDL
MODEL      170
REMARK 921   NORMALIZED FREE ENERGY PREDICTED BY IDOCK:   -3.10 KCAL/MOL
REMARK 922        TOTAL FREE ENERGY PREDICTED BY IDOCK:   -3.78 KCAL/MOL
REMARK 923 INTER-LIGAND FREE ENERGY PREDICTED BY IDOCK:   -3.99 KCAL/MOL
REMARK 924 INTRA-LIGAND FREE ENERGY PREDICTED BY IDOCK:    0.21 KCAL/MOL
REMARK 927      BINDING AFFINITY PREDICTED BY RF-SCORE:    0.00 PKD
ROOT
HETATM    1  O5* UNL     1      -9.576   4.829  74.236  1.00  0.00    -0.121 OA 
HETATM    2  H5* UNL     1      -9.058   4.719  75.024  1.00  0.00     0.000 HD 
HETATM    3  C5* UNL     1      -8.911   5.655  73.281  1.00  0.00    -0.121 C  
ENDROOT
BRANCH   3   4
HETATM    4  C4* UNL     1      -9.744   5.831  72.014  1.00  0.00    -0.154 C  
HETATM    5  O4* UNL     1     -10.561   7.015  72.082  1.00  0.00    -0.208 OA 
HETATM    6  C1* UNL     1     -10.898   7.318  70.719  1.00  0.00    -0.241 C  
HETATM    7  H3* UNL     1      -8.313   4.798  69.277  1.00  0.00     0.000 HD 
HETATM    8  C2* UNL     1      -9.649   6.991  69.905  1.00  0.00    -0.159 C  
HETATM    9  C3* UNL     1      -8.910   5.967  70.742  1.00  0.00    -0.138 C  
HETATM   10  O3* UNL     1      -8.832   4.714  70.068  1.00  0.00    -0.083 OA 
BRANCH   6  11
HETATM   11  N   UNL     1     -11.370   8.691  70.561  1.00  0.00    -0.248 N  
HETATM   12  C   UNL     1     -11.198  10.826  69.492  1.00  0.00    -0.281 C  
HETATM   13  C   UNL     1     -10.859   9.533  69.586  1.00  0.00    -0.235 C  
HETATM   14  I   UNL     1     -10.397  12.072  68.082  1.00  0.00    -0.242 I  
HETATM   15  C   UNL     1     -12.175  11.360  70.480  1.00  0.00    -0.386 C  
HETATM   16  O   UNL     1     -12.508  12.539  70.537  1.00  0.00    -0.277 OA 
HETATM   17  N   UNL     1     -12.690  10.445  71.358  1.00  0.00    -0.407 N  
HETATM   18  C   UNL     1     -12.295   9.143  71.494  1.00  0.00    -0.347 C  
HETATM   19  H   UNL     1     -13.441  10.765  71.969  1.00  0.00     0.000 HD 
HETATM   20  O   UNL     1     -12.747   8.455  72.406  1.00  0.00    -0.344 OA 
ENDBRANCH   6  11
ENDBRANCH   3   4
TORSDOF 2
ENDMDL
MODEL      171
REMARK 921   NORMALIZED FREE ENERGY PREDICTED BY IDOCK:   -3.09 KCAL/MOL
REMARK 922        TOTAL FREE ENERGY PREDICTED BY IDOCK:   -3.77 KCAL/MOL
REMARK 923 INTER-LIGAND FREE ENERGY PREDICTED BY IDOCK:   -3.42 KCAL/MOL
REMARK 924 INTRA-LIGAND FREE ENERGY PREDICTED BY IDOCK:   -0.35 KCAL/MOL
REMARK 927      BINDING AFFINITY PREDICTED BY RF-SCORE:    0.00 PKD
ROOT
HETATM    1  O5* UNL     1      -6.938   8.761  67.658  1.00  0.00    -0.073 OA 
HETATM    2  H5* UNL     1      -6.716   8.642  66.742  1.00  0.00     0.000 HD 
HETATM    3  C5* UNL     1      -7.873   9.825  67.836  1.00  0.00    -0.090 C  
ENDROOT
BRANCH   3   4
HETATM    4  C4* UNL     1      -8.231  10.017  69.308  1.00  0.00    -0.147 C  
HETATM    5  O4* UNL     1      -9.271   9.110  69.719  1.00  0.00    -0.153 OA 
HETATM    6  C1* UNL     1      -9.173   9.051  71.151  1.00  0.00    -0.256 C  
HETATM    7  H3* UNL     1      -5.739  10.870  71.224  1.00  0.00     0.000 HD 
HETATM    8  C2* UNL     1      -7.680   9.091  71.464  1.00  0.00    -0.034 C  
HETATM    9  C3* UNL     1      -7.062   9.778  70.262  1.00  0.00    -0.143 C  
HETATM   10  O3* UNL     1      -6.466  11.019  70.631  1.00  0.00    -0.327 OA 
BRANCH   6  11
HETATM   11  N   UNL     1      -9.866   7.889  71.702  1.00  0.00    -0.162 N  
HETATM   12  C   UNL     1      -9.997   5.519  72.020  1.00  0.00    -0.181 C  
HETATM   13  C   UNL     1      -9.333   6.612  71.620  1.00  0.00    -0.149 C  
HETATM   14  I   UNL     1      -9.222   3.636  71.844  1.00  0.00    -0.214 I  
HETATM   15  C   UNL     1     -11.362   5.707  72.585  1.00  0.00    -0.305 C  
HETATM   16  O   UNL     1     -12.091   4.780  72.920  1.00  0.00    -0.049 OA 
HETATM   17  N   UNL     1     -11.781   7.004  72.704  1.00  0.00    -0.490 N  
HETATM   18  C   UNL     1     -11.129   8.111  72.235  1.00  0.00    -0.344 C  
HETATM   19  H   UNL     1     -12.665   7.160  73.189  1.00  0.00     0.000 HD 
HETATM   20  O   UNL     1     -11.669   9.214  72.292  1.00  0.00    -0.304 OA 
ENDBRANCH   6  11
ENDBRANCH   3   4
TORSDOF 2
ENDMDL
MODEL      172
REMARK 921   NORMALIZED FREE ENERGY PREDICTED BY IDOCK:   -3.08 KCAL/MOL
REMARK 922        TOTAL FREE ENERGY PREDICTED BY IDOCK:   -3.76 KCAL/MOL
REMARK 923 INTER-LIGAND FREE ENERGY PREDICTED BY IDOCK:   -3.92 KCAL/MOL
REMARK 924 INTRA-LIGAND FREE ENERGY PREDICTED BY IDOCK:    0.16 KCAL/MOL
REMARK 927      BINDING AFFINITY PREDICTED BY RF-SCORE:    0.00 PKD
ROOT
HETATM    1  O5* UNL     1     -10.105   5.515  69.020  1.00  0.00    -0.170 OA 
HETATM    2  H5* UNL     1     -10.543   4.904  69.600  1.00  0.00     0.000 HD 
HETATM    3  C5* UNL     1     -11.033   6.400  68.393  1.00  0.00    -0.309 C  
ENDROOT
BRANCH   3   4
HETATM    4  C4* UNL     1     -10.329   7.383  67.461  1.00  0.00    -0.251 C  
HETATM    5  O4* UNL     1     -10.937   8.687  67.514  1.00  0.00    -0.111 OA 
HETATM    6  C1* UNL     1      -9.941   9.588  67.005  1.00  0.00    -0.213 C  
HETATM    7  H3* UNL     1      -7.121   6.916  67.145  1.00  0.00     0.000 HD 
HETATM    8  C2* UNL     1      -8.608   9.068  67.534  1.00  0.00    -0.120 C  
HETATM    9  C3* UNL     1      -8.852   7.594  67.788  1.00  0.00    -0.125 C  
HETATM   10  O3* UNL     1      -8.039   6.785  66.941  1.00  0.00    -0.107 OA 
BRANCH   6  11
HETATM   11  N   UNL     1     -10.222  10.977  67.360  1.00  0.00    -0.189 N  
HETATM   12  C   UNL     1     -10.541  13.255  66.699  1.00  0.00    -0.281 C  
HETATM   13  C   UNL     1     -10.390  11.959  66.397  1.00  0.00    -0.219 C  
HETATM   14  I   UNL     1     -10.733  14.702  65.267  1.00  0.00    -0.473 I  
HETATM   15  C   UNL     1     -10.536  13.636  68.138  1.00  0.00    -0.247 C  
HETATM   16  O   UNL     1     -10.597  14.795  68.534  1.00  0.00    -0.236 OA 
HETATM   17  N   UNL     1     -10.446  12.598  69.026  1.00  0.00    -0.437 N  
HETATM   18  C   UNL     1     -10.226  11.285  68.714  1.00  0.00    -0.202 C  
HETATM   19  H   UNL     1     -10.552  12.827  70.014  1.00  0.00     0.000 HD 
HETATM   20  O   UNL     1     -10.038  10.463  69.609  1.00  0.00    -0.231 OA 
ENDBRANCH   6  11
ENDBRANCH   3   4
TORSDOF 2
ENDMDL
MODEL      173
REMARK 921   NORMALIZED FREE ENERGY PREDICTED BY IDOCK:   -3.08 KCAL/MOL
REMARK 922        TOTAL FREE ENERGY PREDICTED BY IDOCK:   -3.76 KCAL/MOL
REMARK 923 INTER-LIGAND FREE ENERGY PREDICTED BY IDOCK:   -3.57 KCAL/MOL
REMARK 924 INTRA-LIGAND FREE ENERGY PREDICTED BY IDOCK:   -0.19 KCAL/MOL
REMARK 927      BINDING AFFINITY PREDICTED BY RF-SCORE:    0.00 PKD
ROOT
HETATM    1  O5* UNL     1     -11.405   9.572  67.988  1.00  0.00    -0.514 OA 
HETATM    2  H5* UNL     1     -11.438  10.334  67.423  1.00  0.00     0.000 HD 
HETATM    3  C5* UNL     1     -10.727   9.856  69.212  1.00  0.00    -0.224 C  
ENDROOT
BRANCH   3   4
HETATM    4  C4* UNL     1     -10.674   8.630  70.121  1.00  0.00    -0.234 C  
HETATM    5  O4* UNL     1     -10.756   7.409  69.363  1.00  0.00    -0.234 OA 
HETATM    6  C1* UNL     1     -10.226   6.392  70.229  1.00  0.00    -0.195 C  
HETATM    7  H3* UNL     1      -8.814   8.970  72.773  1.00  0.00     0.000 HD 
HETATM    8  C2* UNL     1      -9.068   7.049  70.974  1.00  0.00    -0.151 C  
HETATM    9  C3* UNL     1      -9.392   8.530  70.945  1.00  0.00    -0.174 C  
HETATM   10  O3* UNL     1      -9.611   9.033  72.260  1.00  0.00    -0.287 OA 
BRANCH   6  11
HETATM   11  N   UNL     1      -9.856   5.184  69.498  1.00  0.00    -0.188 N  
HETATM   12  C   UNL     1      -9.442   4.072  67.418  1.00  0.00    -0.192 C  
HETATM   13  C   UNL     1      -9.675   5.187  68.123  1.00  0.00    -0.144 C  
HETATM   14  I   UNL     1      -9.231   4.082  65.384  1.00  0.00    -0.184 I  
HETATM   15  C   UNL     1      -9.367   2.785  68.162  1.00  0.00    -0.203 C  
HETATM   16  O   UNL     1      -9.227   1.694  67.620  1.00  0.00    -0.137 OA 
HETATM   17  N   UNL     1      -9.477   2.880  69.523  1.00  0.00    -0.131 N  
HETATM   18  C   UNL     1      -9.780   4.008  70.233  1.00  0.00    -0.193 C  
HETATM   19  H   UNL     1      -9.317   2.027  70.059  1.00  0.00     0.000 HD 
HETATM   20  O   UNL     1      -9.975   3.940  71.445  1.00  0.00    -0.183 OA 
ENDBRANCH   6  11
ENDBRANCH   3   4
TORSDOF 2
ENDMDL
MODEL      174
REMARK 921   NORMALIZED FREE ENERGY PREDICTED BY IDOCK:   -3.07 KCAL/MOL
REMARK 922        TOTAL FREE ENERGY PREDICTED BY IDOCK:   -3.75 KCAL/MOL
REMARK 923 INTER-LIGAND FREE ENERGY PREDICTED BY IDOCK:   -3.43 KCAL/MOL
REMARK 924 INTRA-LIGAND FREE ENERGY PREDICTED BY IDOCK:   -0.32 KCAL/MOL
REMARK 927      BINDING AFFINITY PREDICTED BY RF-SCORE:    0.00 PKD
ROOT
HETATM    1  O5* UNL     1      -8.819   7.540  73.301  1.00  0.00    -0.140 OA 
HETATM    2  H5* UNL     1      -8.277   7.281  74.036  1.00  0.00     0.000 HD 
HETATM    3  C5* UNL     1     -10.200   7.587  73.657  1.00  0.00    -0.277 C  
ENDROOT
BRANCH   3   4
HETATM    4  C4* UNL     1     -11.071   8.004  72.473  1.00  0.00    -0.375 C  
HETATM    5  O4* UNL     1     -10.324   8.782  71.519  1.00  0.00    -0.247 OA 
HETATM    6  C1* UNL     1     -11.071   8.694  70.295  1.00  0.00    -0.217 C  
HETATM    7  H3* UNL     1     -13.356   5.845  71.626  1.00  0.00     0.000 HD 
HETATM    8  C2* UNL     1     -11.607   7.266  70.243  1.00  0.00    -0.208 C  
HETATM    9  C3* UNL     1     -11.654   6.828  71.694  1.00  0.00    -0.295 C  
HETATM   10  O3* UNL     1     -12.993   6.576  72.110  1.00  0.00    -0.187 OA 
BRANCH   6  11
HETATM   11  N   UNL     1     -10.271   9.073  69.134  1.00  0.00    -0.200 N  
HETATM   12  C   UNL     1      -8.182   9.042  67.964  1.00  0.00    -0.110 C  
HETATM   13  C   UNL     1      -8.971   8.623  68.962  1.00  0.00    -0.142 C  
HETATM   14  I   UNL     1      -6.249   8.412  67.752  1.00  0.00    -0.054 I  
HETATM   15  C   UNL     1      -8.748  10.026  67.000  1.00  0.00    -0.132 C  
HETATM   16  O   UNL     1      -8.103  10.532  66.089  1.00  0.00    -0.134 OA 
HETATM   17  N   UNL     1     -10.062  10.357  67.194  1.00  0.00    -0.198 N  
HETATM   18  C   UNL     1     -10.844   9.979  68.251  1.00  0.00    -0.241 C  
HETATM   19  H   UNL     1     -10.500  10.942  66.483  1.00  0.00     0.000 HD 
HETATM   20  O   UNL     1     -11.974  10.445  68.378  1.00  0.00    -0.270 OA 
ENDBRANCH   6  11
ENDBRANCH   3   4
TORSDOF 2
ENDMDL
MODEL      175
REMARK 921   NORMALIZED FREE ENERGY PREDICTED BY IDOCK:   -3.06 KCAL/MOL
REMARK 922        TOTAL FREE ENERGY PREDICTED BY IDOCK:   -3.74 KCAL/MOL
REMARK 923 INTER-LIGAND FREE ENERGY PREDICTED BY IDOCK:   -4.40 KCAL/MOL
REMARK 924 INTRA-LIGAND FREE ENERGY PREDICTED BY IDOCK:    0.66 KCAL/MOL
REMARK 927      BINDING AFFINITY PREDICTED BY RF-SCORE:    0.00 PKD
ROOT
HETATM    1  O5* UNL     1      -7.600   7.530  72.943  1.00  0.00    -0.081 OA 
HETATM    2  H5* UNL     1      -6.703   7.259  73.094  1.00  0.00     0.000 HD 
HETATM    3  C5* UNL     1      -8.525   6.684  73.626  1.00  0.00    -0.121 C  
ENDROOT
BRANCH   3   4
HETATM    4  C4* UNL     1      -9.969   7.119  73.383  1.00  0.00    -0.278 C  
HETATM    5  O4* UNL     1     -10.028   8.381  72.691  1.00  0.00    -0.288 OA 
HETATM    6  C1* UNL     1     -11.345   8.433  72.118  1.00  0.00    -0.366 C  
HETATM    7  H3* UNL     1     -12.064   4.684  72.851  1.00  0.00     0.000 HD 
HETATM    8  C2* UNL     1     -11.651   7.009  71.662  1.00  0.00    -0.320 C  
HETATM    9  C3* UNL     1     -10.774   6.136  72.538  1.00  0.00    -0.224 C  
HETATM   10  O3* UNL     1     -11.562   5.295  73.376  1.00  0.00    -0.209 OA 
BRANCH   6  11
HETATM   11  N   UNL     1     -11.444   9.433  71.058  1.00  0.00    -0.305 N  
HETATM   12  C   UNL     1     -12.125  11.607  70.325  1.00  0.00    -0.358 C  
HETATM   13  C   UNL     1     -11.924  10.710  71.299  1.00  0.00    -0.245 C  
HETATM   14  I   UNL     1     -12.885  13.471  70.686  1.00  0.00     0.086 I  
HETATM   15  C   UNL     1     -11.803  11.199  68.930  1.00  0.00    -0.337 C  
HETATM   16  O   UNL     1     -12.008  11.907  67.950  1.00  0.00    -0.556 OA 
HETATM   17  N   UNL     1     -11.259   9.951  68.788  1.00  0.00    -0.457 N  
HETATM   18  C   UNL     1     -11.116   9.014  69.774  1.00  0.00    -0.104 C  
HETATM   19  H   UNL     1     -10.929   9.695  67.858  1.00  0.00     0.000 HD 
HETATM   20  O   UNL     1     -10.729   7.882  69.496  1.00  0.00    -0.236 OA 
ENDBRANCH   6  11
ENDBRANCH   3   4
TORSDOF 2
ENDMDL
MODEL      176
REMARK 921   NORMALIZED FREE ENERGY PREDICTED BY IDOCK:   -3.05 KCAL/MOL
REMARK 922        TOTAL FREE ENERGY PREDICTED BY IDOCK:   -3.73 KCAL/MOL
REMARK 923 INTER-LIGAND FREE ENERGY PREDICTED BY IDOCK:   -3.55 KCAL/MOL
REMARK 924 INTRA-LIGAND FREE ENERGY PREDICTED BY IDOCK:   -0.18 KCAL/MOL
REMARK 927      BINDING AFFINITY PREDICTED BY RF-SCORE:    0.00 PKD
ROOT
HETATM    1  O5* UNL     1      -7.381   8.135  71.258  1.00  0.00    -0.062 OA 
HETATM    2  H5* UNL     1      -7.036   8.222  72.139  1.00  0.00     0.000 HD 
HETATM    3  C5* UNL     1      -7.401   9.389  70.576  1.00  0.00    -0.133 C  
ENDROOT
BRANCH   3   4
HETATM    4  C4* UNL     1      -7.956   9.249  69.160  1.00  0.00    -0.097 C  
HETATM    5  O4* UNL     1      -9.116  10.078  68.966  1.00  0.00    -0.151 OA 
HETATM    6  C1* UNL     1      -9.237  10.227  67.542  1.00  0.00    -0.141 C  
HETATM    7  H3* UNL     1      -5.714   8.736  66.855  1.00  0.00     0.000 HD 
HETATM    8  C2* UNL     1      -7.808  10.341  67.018  1.00  0.00    -0.107 C  
HETATM    9  C3* UNL     1      -6.965   9.647  68.069  1.00  0.00    -0.078 C  
HETATM   10  O3* UNL     1      -6.330   8.489  67.534  1.00  0.00    -0.055 OA 
BRANCH   6  11
HETATM   11  N   UNL     1     -10.097  11.350  67.177  1.00  0.00    -0.195 N  
HETATM   12  C   UNL     1     -11.285  13.332  67.804  1.00  0.00    -0.280 C  
HETATM   13  C   UNL     1     -10.414  12.353  68.081  1.00  0.00    -0.219 C  
HETATM   14  I   UNL     1     -11.785  14.775  69.163  1.00  0.00    -0.337 I  
HETATM   15  C   UNL     1     -11.921  13.333  66.458  1.00  0.00    -0.391 C  
HETATM   16  O   UNL     1     -12.781  14.136  66.114  1.00  0.00    -0.442 OA 
HETATM   17  N   UNL     1     -11.494  12.357  65.599  1.00  0.00    -0.351 N  
HETATM   18  C   UNL     1     -10.655  11.321  65.906  1.00  0.00    -0.253 C  
HETATM   19  H   UNL     1     -11.833  12.406  64.639  1.00  0.00     0.000 HD 
HETATM   20  O   UNL     1     -10.445  10.434  65.081  1.00  0.00    -0.255 OA 
ENDBRANCH   6  11
ENDBRANCH   3   4
TORSDOF 2
ENDMDL
MODEL      177
REMARK 921   NORMALIZED FREE ENERGY PREDICTED BY IDOCK:   -3.05 KCAL/MOL
REMARK 922        TOTAL FREE ENERGY PREDICTED BY IDOCK:   -3.72 KCAL/MOL
REMARK 923 INTER-LIGAND FREE ENERGY PREDICTED BY IDOCK:   -4.52 KCAL/MOL
REMARK 924 INTRA-LIGAND FREE ENERGY PREDICTED BY IDOCK:    0.80 KCAL/MOL
REMARK 927      BINDING AFFINITY PREDICTED BY RF-SCORE:    0.00 PKD
ROOT
HETATM    1  O5* UNL     1      -7.884   8.826  72.769  1.00  0.00    -0.377 OA 
HETATM    2  H5* UNL     1      -7.107   8.713  73.303  1.00  0.00     0.000 HD 
HETATM    3  C5* UNL     1      -8.956   8.000  73.222  1.00  0.00    -0.272 C  
ENDROOT
BRANCH   3   4
HETATM    4  C4* UNL     1     -10.206   8.181  72.362  1.00  0.00    -0.298 C  
HETATM    5  O4* UNL     1      -9.968   9.094  71.274  1.00  0.00    -0.280 OA 
HETATM    6  C1* UNL     1     -11.000   8.812  70.315  1.00  0.00    -0.235 C  
HETATM    7  H3* UNL     1     -12.086   5.535  72.101  1.00  0.00     0.000 HD 
HETATM    8  C2* UNL     1     -11.189   7.298  70.348  1.00  0.00    -0.302 C  
HETATM    9  C3* UNL     1     -10.708   6.888  71.726  1.00  0.00    -0.221 C  
HETATM   10  O3* UNL     1     -11.774   6.340  72.498  1.00  0.00    -0.274 OA 
BRANCH   6  11
HETATM   11  N   UNL     1     -10.682   9.345  68.993  1.00  0.00    -0.214 N  
HETATM   12  C   UNL     1     -10.869  11.095  67.370  1.00  0.00    -0.266 C  
HETATM   13  C   UNL     1     -11.054  10.624  68.611  1.00  0.00    -0.263 C  
HETATM   14  I   UNL     1     -11.471  12.965  66.803  1.00  0.00    -0.457 I  
HETATM   15  C   UNL     1     -10.225  10.193  66.376  1.00  0.00    -0.221 C  
HETATM   16  O   UNL     1     -10.066  10.486  65.196  1.00  0.00    -0.291 OA 
HETATM   17  N   UNL     1      -9.817   8.978  66.855  1.00  0.00    -0.203 N  
HETATM   18  C   UNL     1     -10.065   8.476  68.103  1.00  0.00    -0.200 C  
HETATM   19  H   UNL     1      -9.275   8.391  66.221  1.00  0.00     0.000 HD 
HETATM   20  O   UNL     1      -9.754   7.318  68.373  1.00  0.00    -0.145 OA 
ENDBRANCH   6  11
ENDBRANCH   3   4
TORSDOF 2
ENDMDL
MODEL      178
REMARK 921   NORMALIZED FREE ENERGY PREDICTED BY IDOCK:   -3.02 KCAL/MOL
REMARK 922        TOTAL FREE ENERGY PREDICTED BY IDOCK:   -3.69 KCAL/MOL
REMARK 923 INTER-LIGAND FREE ENERGY PREDICTED BY IDOCK:   -3.23 KCAL/MOL
REMARK 924 INTRA-LIGAND FREE ENERGY PREDICTED BY IDOCK:   -0.46 KCAL/MOL
REMARK 927      BINDING AFFINITY PREDICTED BY RF-SCORE:    0.00 PKD
ROOT
HETATM    1  O5* UNL     1      -9.055  12.103  68.586  1.00  0.00    -0.348 OA 
HETATM    2  H5* UNL     1      -8.748  12.828  69.117  1.00  0.00     0.000 HD 
HETATM    3  C5* UNL     1      -8.174  10.984  68.666  1.00  0.00    -0.151 C  
ENDROOT
BRANCH   3   4
HETATM    4  C4* UNL     1      -8.668   9.818  67.812  1.00  0.00    -0.129 C  
HETATM    5  O4* UNL     1      -8.461   8.556  68.475  1.00  0.00    -0.129 OA 
HETATM    6  C1* UNL     1      -9.362   7.641  67.830  1.00  0.00    -0.139 C  
HETATM    7  H3* UNL     1     -11.281  10.471  65.981  1.00  0.00     0.000 HD 
HETATM    8  C2* UNL     1     -10.629   8.443  67.547  1.00  0.00    -0.285 C  
HETATM    9  C3* UNL     1     -10.158   9.882  67.485  1.00  0.00    -0.197 C  
HETATM   10  O3* UNL     1     -10.354  10.431  66.184  1.00  0.00    -0.242 OA 
BRANCH   6  11
HETATM   11  N   UNL     1      -9.584   6.436  68.625  1.00  0.00    -0.121 N  
HETATM   12  C   UNL     1     -10.130   5.414  70.720  1.00  0.00    -0.220 C  
HETATM   13  C   UNL     1     -10.022   6.497  69.939  1.00  0.00    -0.167 C  
HETATM   14  I   UNL     1     -10.727   5.522  72.673  1.00  0.00    -0.345 I  
HETATM   15  C   UNL     1      -9.767   4.096  70.131  1.00  0.00    -0.208 C  
HETATM   16  O   UNL     1      -9.759   3.047  70.766  1.00  0.00    -0.162 OA 
HETATM   17  N   UNL     1      -9.420   4.114  68.807  1.00  0.00    -0.162 N  
HETATM   18  C   UNL     1      -9.249   5.227  68.031  1.00  0.00    -0.113 C  
HETATM   19  H   UNL     1      -9.277   3.210  68.356  1.00  0.00     0.000 HD 
HETATM   20  O   UNL     1      -8.813   5.118  66.887  1.00  0.00    -0.111 OA 
ENDBRANCH   6  11
ENDBRANCH   3   4
TORSDOF 2
ENDMDL
MODEL      179
REMARK 921   NORMALIZED FREE ENERGY PREDICTED BY IDOCK:   -3.01 KCAL/MOL
REMARK 922        TOTAL FREE ENERGY PREDICTED BY IDOCK:   -3.69 KCAL/MOL
REMARK 923 INTER-LIGAND FREE ENERGY PREDICTED BY IDOCK:   -3.22 KCAL/MOL
REMARK 924 INTRA-LIGAND FREE ENERGY PREDICTED BY IDOCK:   -0.46 KCAL/MOL
REMARK 927      BINDING AFFINITY PREDICTED BY RF-SCORE:    0.00 PKD
ROOT
HETATM    1  O5* UNL     1     -12.428   7.857  72.988  1.00  0.00    -0.526 OA 
HETATM    2  H5* UNL     1     -13.337   7.967  73.243  1.00  0.00     0.000 HD 
HETATM    3  C5* UNL     1     -12.302   7.599  71.590  1.00  0.00    -0.326 C  
ENDROOT
BRANCH   3   4
HETATM    4  C4* UNL     1     -10.842   7.424  71.181  1.00  0.00    -0.242 C  
HETATM    5  O4* UNL     1     -10.610   7.896  69.840  1.00  0.00    -0.235 OA 
HETATM    6  C1* UNL     1      -9.194   8.122  69.761  1.00  0.00    -0.151 C  
HETATM    7  H3* UNL     1      -8.689   7.773  73.600  1.00  0.00     0.000 HD 
HETATM    8  C2* UNL     1      -8.791   8.686  71.121  1.00  0.00    -0.249 C  
HETATM    9  C3* UNL     1      -9.858   8.180  72.070  1.00  0.00    -0.232 C  
HETATM   10  O3* UNL     1      -9.301   7.303  73.046  1.00  0.00    -0.143 OA 
BRANCH   6  11
HETATM   11  N   UNL     1      -8.835   8.976  68.631  1.00  0.00    -0.136 N  
HETATM   12  C   UNL     1      -9.191  10.968  67.351  1.00  0.00    -0.151 C  
HETATM   13  C   UNL     1      -9.424  10.216  68.435  1.00  0.00    -0.143 C  
HETATM   14  I   UNL     1     -10.106  12.771  67.047  1.00  0.00    -0.263 I  
HETATM   15  C   UNL     1      -8.249  10.436  66.328  1.00  0.00    -0.144 C  
HETATM   16  O   UNL     1      -8.010  10.999  65.266  1.00  0.00     0.018 OA 
HETATM   17  N   UNL     1      -7.651   9.243  66.636  1.00  0.00    -0.093 N  
HETATM   18  C   UNL     1      -7.939   8.448  67.711  1.00  0.00    -0.111 C  
HETATM   19  H   UNL     1      -6.922   8.917  66.003  1.00  0.00     0.000 HD 
HETATM   20  O   UNL     1      -7.423   7.337  67.811  1.00  0.00    -0.096 OA 
ENDBRANCH   6  11
ENDBRANCH   3   4
TORSDOF 2
ENDMDL
MODEL      180
REMARK 921   NORMALIZED FREE ENERGY PREDICTED BY IDOCK:   -3.00 KCAL/MOL
REMARK 922        TOTAL FREE ENERGY PREDICTED BY IDOCK:   -3.67 KCAL/MOL
REMARK 923 INTER-LIGAND FREE ENERGY PREDICTED BY IDOCK:   -4.03 KCAL/MOL
REMARK 924 INTRA-LIGAND FREE ENERGY PREDICTED BY IDOCK:    0.36 KCAL/MOL
REMARK 927      BINDING AFFINITY PREDICTED BY RF-SCORE:    0.00 PKD
ROOT
HETATM    1  O5* UNL     1      -7.394  18.476  69.025  1.00  0.00    -0.284 OA 
HETATM    2  H5* UNL     1      -7.373  19.378  68.728  1.00  0.00     0.000 HD 
HETATM    3  C5* UNL     1      -8.546  17.789  68.536  1.00  0.00    -0.291 C  
ENDROOT
BRANCH   3   4
HETATM    4  C4* UNL     1      -8.580  16.339  69.013  1.00  0.00    -0.247 C  
HETATM    5  O4* UNL     1      -9.453  15.536  68.197  1.00  0.00    -0.196 OA 
HETATM    6  C1* UNL     1      -9.039  14.180  68.425  1.00  0.00    -0.191 C  
HETATM    7  H3* UNL     1      -5.776  15.239  70.254  1.00  0.00     0.000 HD 
HETATM    8  C2* UNL     1      -7.518  14.229  68.540  1.00  0.00    -0.121 C  
HETATM    9  C3* UNL     1      -7.219  15.648  68.980  1.00  0.00    -0.160 C  
HETATM   10  O3* UNL     1      -6.623  15.669  70.274  1.00  0.00    -0.044 OA 
BRANCH   6  11
HETATM   11  N   UNL     1      -9.530  13.274  67.389  1.00  0.00    -0.211 N  
HETATM   12  C   UNL     1     -10.007  11.049  66.647  1.00  0.00    -0.209 C  
HETATM   13  C   UNL     1      -9.663  11.913  67.611  1.00  0.00    -0.185 C  
HETATM   14  I   UNL     1     -10.149   9.036  66.974  1.00  0.00    -0.326 I  
HETATM   15  C   UNL     1     -10.263  11.596  65.286  1.00  0.00    -0.272 C  
HETATM   16  O   UNL     1     -10.517  10.898  64.310  1.00  0.00    -0.362 OA 
HETATM   17  N   UNL     1     -10.187  12.958  65.171  1.00  0.00    -0.357 N  
HETATM   18  C   UNL     1      -9.773  13.830  66.140  1.00  0.00    -0.264 C  
HETATM   19  H   UNL     1     -10.467  13.361  64.277  1.00  0.00     0.000 HD 
HETATM   20  O   UNL     1      -9.628  15.021  65.875  1.00  0.00    -0.312 OA 
ENDBRANCH   6  11
ENDBRANCH   3   4
TORSDOF 2
ENDMDL
MODEL      181
REMARK 921   NORMALIZED FREE ENERGY PREDICTED BY IDOCK:   -3.00 KCAL/MOL
REMARK 922        TOTAL FREE ENERGY PREDICTED BY IDOCK:   -3.67 KCAL/MOL
REMARK 923 INTER-LIGAND FREE ENERGY PREDICTED BY IDOCK:   -3.30 KCAL/MOL
REMARK 924 INTRA-LIGAND FREE ENERGY PREDICTED BY IDOCK:   -0.37 KCAL/MOL
REMARK 927      BINDING AFFINITY PREDICTED BY RF-SCORE:    0.00 PKD
ROOT
HETATM    1  O5* UNL     1      -6.493   3.786  64.586  1.00  0.00    -0.035 OA 
HETATM    2  H5* UNL     1      -5.902   3.781  63.843  1.00  0.00     0.000 HD 
HETATM    3  C5* UNL     1      -6.927   5.108  64.902  1.00  0.00    -0.054 C  
ENDROOT
BRANCH   3   4
HETATM    4  C4* UNL     1      -7.877   5.117  66.098  1.00  0.00    -0.103 C  
HETATM    5  O4* UNL     1      -8.105   6.455  66.579  1.00  0.00    -0.107 OA 
HETATM    6  C1* UNL     1      -9.324   6.379  67.336  1.00  0.00    -0.116 C  
HETATM    7  H3* UNL     1     -10.185   2.820  66.032  1.00  0.00     0.000 HD 
HETATM    8  C2* UNL     1     -10.221   5.407  66.575  1.00  0.00    -0.287 C  
HETATM    9  C3* UNL     1      -9.256   4.537  65.793  1.00  0.00    -0.146 C  
HETATM   10  O3* UNL     1      -9.327   3.180  66.222  1.00  0.00    -0.157 OA 
BRANCH   6  11
HETATM   11  N   UNL     1      -9.919   7.695  67.553  1.00  0.00    -0.163 N  
HETATM   12  C   UNL     1     -10.310   9.935  66.805  1.00  0.00    -0.217 C  
HETATM   13  C   UNL     1      -9.867   8.689  66.589  1.00  0.00    -0.266 C  
HETATM   14  I   UNL     1     -10.178  11.409  65.393  1.00  0.00    -0.358 I  
HETATM   15  C   UNL     1     -10.889  10.243  68.141  1.00  0.00    -0.265 C  
HETATM   16  O   UNL     1     -11.263  11.360  68.479  1.00  0.00    -0.207 OA 
HETATM   17  N   UNL     1     -10.976   9.186  69.007  1.00  0.00    -0.432 N  
HETATM   18  C   UNL     1     -10.465   7.933  68.808  1.00  0.00    -0.176 C  
HETATM   19  H   UNL     1     -11.470   9.348  69.884  1.00  0.00     0.000 HD 
HETATM   20  O   UNL     1     -10.497   7.104  69.714  1.00  0.00    -0.212 OA 
ENDBRANCH   6  11
ENDBRANCH   3   4
TORSDOF 2
ENDMDL
MODEL      182
REMARK 921   NORMALIZED FREE ENERGY PREDICTED BY IDOCK:   -2.98 KCAL/MOL
REMARK 922        TOTAL FREE ENERGY PREDICTED BY IDOCK:   -3.65 KCAL/MOL
REMARK 923 INTER-LIGAND FREE ENERGY PREDICTED BY IDOCK:   -3.93 KCAL/MOL
REMARK 924 INTRA-LIGAND FREE ENERGY PREDICTED BY IDOCK:    0.29 KCAL/MOL
REMARK 927      BINDING AFFINITY PREDICTED BY RF-SCORE:    0.00 PKD
ROOT
HETATM    1  O5* UNL     1     -13.868   7.087  72.227  1.00  0.00    -0.532 OA 
HETATM    2  H5* UNL     1     -14.481   6.382  72.056  1.00  0.00     0.000 HD 
HETATM    3  C5* UNL     1     -13.008   7.318  71.112  1.00  0.00    -0.259 C  
ENDROOT
BRANCH   3   4
HETATM    4  C4* UNL     1     -12.023   8.452  71.388  1.00  0.00    -0.297 C  
HETATM    5  O4* UNL     1     -10.845   8.336  70.568  1.00  0.00    -0.225 OA 
HETATM    6  C1* UNL     1     -10.260   9.648  70.562  1.00  0.00    -0.287 C  
HETATM    7  H3* UNL     1     -13.395  11.303  72.158  1.00  0.00     0.000 HD 
HETATM    8  C2* UNL     1     -11.436  10.621  70.519  1.00  0.00    -0.407 C  
HETATM    9  C3* UNL     1     -12.592   9.842  71.114  1.00  0.00    -0.345 C  
HETATM   10  O3* UNL     1     -13.041  10.438  72.328  1.00  0.00    -0.397 OA 
BRANCH   6  11
HETATM   11  N   UNL     1      -9.305   9.820  69.471  1.00  0.00    -0.199 N  
HETATM   12  C   UNL     1      -7.126  10.462  68.714  1.00  0.00    -0.074 C  
HETATM   13  C   UNL     1      -7.990  10.194  69.702  1.00  0.00    -0.173 C  
HETATM   14  I   UNL     1      -5.205  11.065  69.067  1.00  0.00    -0.039 I  
HETATM   15  C   UNL     1      -7.615  10.336  67.313  1.00  0.00    -0.095 C  
HETATM   16  O   UNL     1      -6.940  10.620  66.330  1.00  0.00    -0.119 OA 
HETATM   17  N   UNL     1      -8.900   9.886  67.172  1.00  0.00    -0.138 N  
HETATM   18  C   UNL     1      -9.799   9.676  68.181  1.00  0.00    -0.150 C  
HETATM   19  H   UNL     1      -9.217   9.687  66.223  1.00  0.00     0.000 HD 
HETATM   20  O   UNL     1     -10.965   9.391  67.917  1.00  0.00    -0.198 OA 
ENDBRANCH   6  11
ENDBRANCH   3   4
TORSDOF 2
ENDMDL
MODEL      183
REMARK 921   NORMALIZED FREE ENERGY PREDICTED BY IDOCK:   -2.98 KCAL/MOL
REMARK 922        TOTAL FREE ENERGY PREDICTED BY IDOCK:   -3.64 KCAL/MOL
REMARK 923 INTER-LIGAND FREE ENERGY PREDICTED BY IDOCK:   -3.91 KCAL/MOL
REMARK 924 INTRA-LIGAND FREE ENERGY PREDICTED BY IDOCK:    0.27 KCAL/MOL
REMARK 927      BINDING AFFINITY PREDICTED BY RF-SCORE:    0.00 PKD
ROOT
HETATM    1  O5* UNL     1     -11.226  13.185  63.574  1.00  0.00    -0.588 OA 
HETATM    2  H5* UNL     1     -11.024  13.154  62.647  1.00  0.00     0.000 HD 
HETATM    3  C5* UNL     1     -11.285  11.877  64.142  1.00  0.00    -0.376 C  
ENDROOT
BRANCH   3   4
HETATM    4  C4* UNL     1     -11.611  11.926  65.633  1.00  0.00    -0.210 C  
HETATM    5  O4* UNL     1     -11.398  10.647  66.261  1.00  0.00     0.052 OA 
HETATM    6  C1* UNL     1     -11.268  10.934  67.662  1.00  0.00    -0.309 C  
HETATM    7  H3* UNL     1     -10.957  14.766  67.087  1.00  0.00     0.000 HD 
HETATM    8  C2* UNL     1     -10.495  12.247  67.744  1.00  0.00    -0.225 C  
HETATM    9  C3* UNL     1     -10.764  12.926  66.416  1.00  0.00    -0.270 C  
HETATM   10  O3* UNL     1     -11.483  14.143  66.600  1.00  0.00    -0.337 OA 
BRANCH   6  11
HETATM   11  N   UNL     1     -10.650   9.831  68.394  1.00  0.00    -0.218 N  
HETATM   12  C   UNL     1     -10.315   8.642  70.445  1.00  0.00    -0.200 C  
HETATM   13  C   UNL     1     -10.948   9.578  69.724  1.00  0.00    -0.223 C  
HETATM   14  I   UNL     1     -10.725   8.314  72.421  1.00  0.00    -0.274 I  
HETATM   15  C   UNL     1      -9.257   7.844  69.768  1.00  0.00    -0.150 C  
HETATM   16  O   UNL     1      -8.565   7.010  70.340  1.00  0.00    -0.139 OA 
HETATM   17  N   UNL     1      -9.081   8.102  68.435  1.00  0.00    -0.136 N  
HETATM   18  C   UNL     1      -9.681   9.101  67.719  1.00  0.00    -0.154 C  
HETATM   19  H   UNL     1      -8.441   7.491  67.928  1.00  0.00     0.000 HD 
HETATM   20  O   UNL     1      -9.346   9.311  66.555  1.00  0.00    -0.155 OA 
ENDBRANCH   6  11
ENDBRANCH   3   4
TORSDOF 2
ENDMDL
MODEL      184
REMARK 921   NORMALIZED FREE ENERGY PREDICTED BY IDOCK:   -2.95 KCAL/MOL
REMARK 922        TOTAL FREE ENERGY PREDICTED BY IDOCK:   -3.61 KCAL/MOL
REMARK 923 INTER-LIGAND FREE ENERGY PREDICTED BY IDOCK:   -3.35 KCAL/MOL
REMARK 924 INTRA-LIGAND FREE ENERGY PREDICTED BY IDOCK:   -0.27 KCAL/MOL
REMARK 927      BINDING AFFINITY PREDICTED BY RF-SCORE:    0.00 PKD
ROOT
HETATM    1  O5* UNL     1     -11.397  14.537  70.400  1.00  0.00    -0.410 OA 
HETATM    2  H5* UNL     1     -12.118  14.771  70.972  1.00  0.00     0.000 HD 
HETATM    3  C5* UNL     1     -11.820  14.427  69.041  1.00  0.00    -0.323 C  
ENDROOT
BRANCH   3   4
HETATM    4  C4* UNL     1     -10.660  14.052  68.121  1.00  0.00    -0.248 C  
HETATM    5  O4* UNL     1      -9.948  12.901  68.614  1.00  0.00    -0.191 OA 
HETATM    6  C1* UNL     1      -9.240  12.381  67.478  1.00  0.00    -0.183 C  
HETATM    7  H3* UNL     1     -11.184  14.612  64.956  1.00  0.00     0.000 HD 
HETATM    8  C2* UNL     1     -10.182  12.561  66.290  1.00  0.00    -0.265 C  
HETATM    9  C3* UNL     1     -11.090  13.703  66.698  1.00  0.00    -0.306 C  
HETATM   10  O3* UNL     1     -10.916  14.829  65.841  1.00  0.00    -0.320 OA 
BRANCH   6  11
HETATM   11  N   UNL     1      -8.800  11.004  67.686  1.00  0.00    -0.130 N  
HETATM   12  C   UNL     1      -9.031   8.910  68.824  1.00  0.00    -0.134 C  
HETATM   13  C   UNL     1      -9.476  10.140  68.533  1.00  0.00    -0.158 C  
HETATM   14  I   UNL     1     -10.008   7.665  70.117  1.00  0.00    -0.193 I  
HETATM   15  C   UNL     1      -7.758   8.467  68.191  1.00  0.00    -0.103 C  
HETATM   16  O   UNL     1      -7.218   7.393  68.432  1.00  0.00    -0.087 OA 
HETATM   17  N   UNL     1      -7.197   9.349  67.307  1.00  0.00    -0.086 N  
HETATM   18  C   UNL     1      -7.618  10.627  67.063  1.00  0.00    -0.110 C  
HETATM   19  H   UNL     1      -6.388   9.021  66.780  1.00  0.00     0.000 HD 
HETATM   20  O   UNL     1      -6.954  11.365  66.338  1.00  0.00    -0.100 OA 
ENDBRANCH   6  11
ENDBRANCH   3   4
TORSDOF 2
ENDMDL
MODEL      185
REMARK 921   NORMALIZED FREE ENERGY PREDICTED BY IDOCK:   -2.95 KCAL/MOL
REMARK 922        TOTAL FREE ENERGY PREDICTED BY IDOCK:   -3.61 KCAL/MOL
REMARK 923 INTER-LIGAND FREE ENERGY PREDICTED BY IDOCK:   -3.18 KCAL/MOL
REMARK 924 INTRA-LIGAND FREE ENERGY PREDICTED BY IDOCK:   -0.43 KCAL/MOL
REMARK 927      BINDING AFFINITY PREDICTED BY RF-SCORE:    0.00 PKD
ROOT
HETATM    1  O5* UNL     1     -11.938   4.835  73.330  1.00  0.00    -0.392 OA 
HETATM    2  H5* UNL     1     -11.833   4.007  73.784  1.00  0.00     0.000 HD 
HETATM    3  C5* UNL     1     -10.680   5.374  72.926  1.00  0.00    -0.253 C  
ENDROOT
BRANCH   3   4
HETATM    4  C4* UNL     1     -10.848   6.705  72.196  1.00  0.00    -0.229 C  
HETATM    5  O4* UNL     1      -9.642   7.083  71.507  1.00  0.00    -0.159 OA 
HETATM    6  C1* UNL     1     -10.058   8.036  70.516  1.00  0.00    -0.192 C  
HETATM    7  H3* UNL     1     -13.832   7.250  71.011  1.00  0.00     0.000 HD 
HETATM    8  C2* UNL     1     -11.405   7.534  70.003  1.00  0.00    -0.115 C  
HETATM    9  C3* UNL     1     -11.950   6.692  71.139  1.00  0.00    -0.357 C  
HETATM   10  O3* UNL     1     -13.147   7.258  71.668  1.00  0.00    -0.361 OA 
BRANCH   6  11
HETATM   11  N   UNL     1      -9.053   8.218  69.472  1.00  0.00    -0.153 N  
HETATM   12  C   UNL     1      -8.145   7.595  67.345  1.00  0.00    -0.119 C  
HETATM   13  C   UNL     1      -9.110   7.526  68.272  1.00  0.00    -0.132 C  
HETATM   14  I   UNL     1      -8.216   6.529  65.602  1.00  0.00    -0.120 I  
HETATM   15  C   UNL     1      -6.971   8.465  67.632  1.00  0.00    -0.075 C  
HETATM   16  O   UNL     1      -5.997   8.556  66.894  1.00  0.00    -0.051 OA 
HETATM   17  N   UNL     1      -7.030   9.174  68.802  1.00  0.00    -0.061 N  
HETATM   18  C   UNL     1      -7.984   9.052  69.774  1.00  0.00    -0.099 C  
HETATM   19  H   UNL     1      -6.291   9.858  68.963  1.00  0.00     0.000 HD 
HETATM   20  O   UNL     1      -7.859   9.653  70.838  1.00  0.00    -0.317 OA 
ENDBRANCH   6  11
ENDBRANCH   3   4
TORSDOF 2
ENDMDL
MODEL      186
REMARK 921   NORMALIZED FREE ENERGY PREDICTED BY IDOCK:   -2.94 KCAL/MOL
REMARK 922        TOTAL FREE ENERGY PREDICTED BY IDOCK:   -3.60 KCAL/MOL
REMARK 923 INTER-LIGAND FREE ENERGY PREDICTED BY IDOCK:   -3.81 KCAL/MOL
REMARK 924 INTRA-LIGAND FREE ENERGY PREDICTED BY IDOCK:    0.20 KCAL/MOL
REMARK 927      BINDING AFFINITY PREDICTED BY RF-SCORE:    0.00 PKD
ROOT
HETATM    1  O5* UNL     1     -13.472   8.120  72.780  1.00  0.00    -0.511 OA 
HETATM    2  H5* UNL     1     -14.347   8.482  72.856  1.00  0.00     0.000 HD 
HETATM    3  C5* UNL     1     -13.282   7.466  71.526  1.00  0.00    -0.372 C  
ENDROOT
BRANCH   3   4
HETATM    4  C4* UNL     1     -11.875   6.885  71.404  1.00  0.00    -0.330 C  
HETATM    5  O4* UNL     1     -11.751   6.048  70.239  1.00  0.00    -0.219 OA 
HETATM    6  C1* UNL     1     -10.340   5.970  69.980  1.00  0.00    -0.229 C  
HETATM    7  H3* UNL     1      -9.491   8.828  72.474  1.00  0.00     0.000 HD 
HETATM    8  C2* UNL     1      -9.787   7.356  70.298  1.00  0.00    -0.187 C  
HETATM    9  C3* UNL     1     -10.780   7.942  71.282  1.00  0.00    -0.228 C  
HETATM   10  O3* UNL     1     -10.172   8.171  72.550  1.00  0.00    -0.264 OA 
BRANCH   6  11
HETATM   11  N   UNL     1     -10.054   5.510  68.624  1.00  0.00    -0.169 N  
HETATM   12  C   UNL     1      -8.809   4.107  67.136  1.00  0.00    -0.116 C  
HETATM   13  C   UNL     1      -9.169   4.474  68.374  1.00  0.00    -0.133 C  
HETATM   14  I   UNL     1      -7.461   2.611  66.781  1.00  0.00    -0.072 I  
HETATM   15  C   UNL     1      -9.405   4.851  65.993  1.00  0.00    -0.156 C  
HETATM   16  O   UNL     1      -9.101   4.653  64.822  1.00  0.00    -0.154 OA 
HETATM   17  N   UNL     1     -10.329   5.806  66.323  1.00  0.00    -0.430 N  
HETATM   18  C   UNL     1     -10.645   6.222  67.587  1.00  0.00    -0.271 C  
HETATM   19  H   UNL     1     -10.829   6.249  65.553  1.00  0.00     0.000 HD 
HETATM   20  O   UNL     1     -11.401   7.177  67.750  1.00  0.00     0.031 OA 
ENDBRANCH   6  11
ENDBRANCH   3   4
TORSDOF 2
ENDMDL
MODEL      187
REMARK 921   NORMALIZED FREE ENERGY PREDICTED BY IDOCK:   -2.93 KCAL/MOL
REMARK 922        TOTAL FREE ENERGY PREDICTED BY IDOCK:   -3.60 KCAL/MOL
REMARK 923 INTER-LIGAND FREE ENERGY PREDICTED BY IDOCK:   -3.89 KCAL/MOL
REMARK 924 INTRA-LIGAND FREE ENERGY PREDICTED BY IDOCK:    0.30 KCAL/MOL
REMARK 927      BINDING AFFINITY PREDICTED BY RF-SCORE:    0.00 PKD
ROOT
HETATM    1  O5* UNL     1     -10.815  15.641  65.766  1.00  0.00    -0.327 OA 
HETATM    2  H5* UNL     1     -10.420  16.462  65.500  1.00  0.00     0.000 HD 
HETATM    3  C5* UNL     1     -10.939  15.554  67.186  1.00  0.00    -0.295 C  
ENDROOT
BRANCH   3   4
HETATM    4  C4* UNL     1     -11.574  14.233  67.614  1.00  0.00    -0.368 C  
HETATM    5  O4* UNL     1     -10.873  13.106  67.055  1.00  0.00    -0.260 OA 
HETATM    6  C1* UNL     1     -11.238  11.989  67.880  1.00  0.00    -0.264 C  
HETATM    7  H3* UNL     1     -12.858  14.236  70.607  1.00  0.00     0.000 HD 
HETATM    8  C2* UNL     1     -11.309  12.535  69.303  1.00  0.00    -0.307 C  
HETATM    9  C3* UNL     1     -11.583  14.016  69.125  1.00  0.00    -0.313 C  
HETATM   10  O3* UNL     1     -12.852  14.371  69.667  1.00  0.00    -0.058 OA 
BRANCH   6  11
HETATM   11  N   UNL     1     -10.321  10.864  67.719  1.00  0.00    -0.179 N  
HETATM   12  C   UNL     1      -9.961   8.511  67.459  1.00  0.00    -0.200 C  
HETATM   13  C   UNL     1     -10.777   9.573  67.502  1.00  0.00    -0.245 C  
HETATM   14  I   UNL     1     -10.651   6.605  67.191  1.00  0.00    -0.426 I  
HETATM   15  C   UNL     1      -8.503   8.749  67.645  1.00  0.00    -0.125 C  
HETATM   16  O   UNL     1      -7.669   7.852  67.694  1.00  0.00    -0.112 OA 
HETATM   17  N   UNL     1      -8.129  10.060  67.774  1.00  0.00    -0.109 N  
HETATM   18  C   UNL     1      -8.968  11.134  67.883  1.00  0.00    -0.143 C  
HETATM   19  H   UNL     1      -7.128  10.253  67.791  1.00  0.00     0.000 HD 
HETATM   20  O   UNL     1      -8.512  12.250  68.122  1.00  0.00    -0.163 OA 
ENDBRANCH   6  11
ENDBRANCH   3   4
TORSDOF 2
ENDMDL
MODEL      188
REMARK 921   NORMALIZED FREE ENERGY PREDICTED BY IDOCK:   -2.92 KCAL/MOL
REMARK 922        TOTAL FREE ENERGY PREDICTED BY IDOCK:   -3.58 KCAL/MOL
REMARK 923 INTER-LIGAND FREE ENERGY PREDICTED BY IDOCK:   -4.68 KCAL/MOL
REMARK 924 INTRA-LIGAND FREE ENERGY PREDICTED BY IDOCK:    1.11 KCAL/MOL
REMARK 927      BINDING AFFINITY PREDICTED BY RF-SCORE:    0.00 PKD
ROOT
HETATM    1  O5* UNL     1      -9.925  16.894  69.286  1.00  0.00    -0.250 OA 
HETATM    2  H5* UNL     1      -9.332  17.601  69.508  1.00  0.00     0.000 HD 
HETATM    3  C5* UNL     1     -10.788  16.569  70.375  1.00  0.00    -0.075 C  
ENDROOT
BRANCH   3   4
HETATM    4  C4* UNL     1     -11.742  15.432  70.016  1.00  0.00    -0.326 C  
HETATM    5  O4* UNL     1     -11.284  14.707  68.859  1.00  0.00    -0.242 OA 
HETATM    6  C1* UNL     1     -11.956  13.439  68.920  1.00  0.00    -0.324 C  
HETATM    7  H3* UNL     1     -13.198  14.010  72.559  1.00  0.00     0.000 HD 
HETATM    8  C2* UNL     1     -11.999  13.067  70.400  1.00  0.00    -0.337 C  
HETATM    9  C3* UNL     1     -11.907  14.395  71.125  1.00  0.00    -0.251 C  
HETATM   10  O3* UNL     1     -13.094  14.655  71.870  1.00  0.00    -0.303 OA 
BRANCH   6  11
HETATM   11  N   UNL     1     -11.317  12.436  68.072  1.00  0.00    -0.265 N  
HETATM   12  C   UNL     1     -10.758  11.629  65.888  1.00  0.00    -0.278 C  
HETATM   13  C   UNL     1     -11.242  12.582  66.696  1.00  0.00    -0.307 C  
HETATM   14  I   UNL     1     -10.702  11.834  63.855  1.00  0.00    -0.590 I  
HETATM   15  C   UNL     1     -10.275  10.368  66.517  1.00  0.00    -0.229 C  
HETATM   16  O   UNL     1      -9.876   9.401  65.879  1.00  0.00    -0.281 OA 
HETATM   17  N   UNL     1     -10.310  10.337  67.885  1.00  0.00    -0.183 N  
HETATM   18  C   UNL     1     -10.864  11.284  68.702  1.00  0.00    -0.204 C  
HETATM   19  H   UNL     1      -9.882   9.530  68.339  1.00  0.00     0.000 HD 
HETATM   20  O   UNL     1     -10.946  11.082  69.911  1.00  0.00    -0.239 OA 
ENDBRANCH   6  11
ENDBRANCH   3   4
TORSDOF 2
ENDMDL
MODEL      189
REMARK 921   NORMALIZED FREE ENERGY PREDICTED BY IDOCK:   -2.91 KCAL/MOL
REMARK 922        TOTAL FREE ENERGY PREDICTED BY IDOCK:   -3.57 KCAL/MOL
REMARK 923 INTER-LIGAND FREE ENERGY PREDICTED BY IDOCK:   -4.25 KCAL/MOL
REMARK 924 INTRA-LIGAND FREE ENERGY PREDICTED BY IDOCK:    0.68 KCAL/MOL
REMARK 927      BINDING AFFINITY PREDICTED BY RF-SCORE:    0.00 PKD
ROOT
HETATM    1  O5* UNL     1     -10.838  16.562  70.410  1.00  0.00    -0.258 OA 
HETATM    2  H5* UNL     1     -11.364  17.191  70.888  1.00  0.00     0.000 HD 
HETATM    3  C5* UNL     1     -11.162  16.555  69.020  1.00  0.00    -0.238 C  
ENDROOT
BRANCH   3   4
HETATM    4  C4* UNL     1     -10.315  15.543  68.251  1.00  0.00    -0.235 C  
HETATM    5  O4* UNL     1     -10.241  14.283  68.945  1.00  0.00    -0.235 OA 
HETATM    6  C1* UNL     1      -9.860  13.325  67.946  1.00  0.00    -0.234 C  
HETATM    7  H3* UNL     1     -10.489  15.792  65.009  1.00  0.00     0.000 HD 
HETATM    8  C2* UNL     1     -10.594  13.742  66.675  1.00  0.00    -0.274 C  
HETATM    9  C3* UNL     1     -10.851  15.225  66.857  1.00  0.00    -0.317 C  
HETATM   10  O3* UNL     1     -10.156  15.990  65.876  1.00  0.00    -0.309 OA 
BRANCH   6  11
HETATM   11  N   UNL     1     -10.130  11.953  68.368  1.00  0.00    -0.203 N  
HETATM   12  C   UNL     1      -9.345   9.866  69.241  1.00  0.00    -0.206 C  
HETATM   13  C   UNL     1      -9.152  11.159  68.946  1.00  0.00    -0.089 C  
HETATM   14  I   UNL     1      -7.878   8.691  70.044  1.00  0.00    -0.128 I  
HETATM   15  C   UNL     1     -10.679   9.278  68.937  1.00  0.00    -0.156 C  
HETATM   16  O   UNL     1     -10.952   8.094  69.098  1.00  0.00    -0.081 OA 
HETATM   17  N   UNL     1     -11.612  10.149  68.441  1.00  0.00    -0.514 N  
HETATM   18  C   UNL     1     -11.392  11.450  68.081  1.00  0.00    -0.304 C  
HETATM   19  H   UNL     1     -12.561   9.794  68.331  1.00  0.00     0.000 HD 
HETATM   20  O   UNL     1     -12.282  12.094  67.529  1.00  0.00    -0.474 OA 
ENDBRANCH   6  11
ENDBRANCH   3   4
TORSDOF 2
ENDMDL
MODEL      190
REMARK 921   NORMALIZED FREE ENERGY PREDICTED BY IDOCK:   -2.89 KCAL/MOL
REMARK 922        TOTAL FREE ENERGY PREDICTED BY IDOCK:   -3.55 KCAL/MOL
REMARK 923 INTER-LIGAND FREE ENERGY PREDICTED BY IDOCK:   -3.23 KCAL/MOL
REMARK 924 INTRA-LIGAND FREE ENERGY PREDICTED BY IDOCK:   -0.32 KCAL/MOL
REMARK 927      BINDING AFFINITY PREDICTED BY RF-SCORE:    0.00 PKD
ROOT
HETATM    1  O5* UNL     1      -6.308   3.878  67.560  1.00  0.00    -0.035 OA 
HETATM    2  H5* UNL     1      -6.111   3.252  68.247  1.00  0.00     0.000 HD 
HETATM    3  C5* UNL     1      -7.311   4.807  67.969  1.00  0.00    -0.070 C  
ENDROOT
BRANCH   3   4
HETATM    4  C4* UNL     1      -7.628   5.813  66.865  1.00  0.00    -0.099 C  
HETATM    5  O4* UNL     1      -8.778   6.614  67.197  1.00  0.00    -0.111 OA 
HETATM    6  C1* UNL     1      -8.678   7.779  66.362  1.00  0.00    -0.150 C  
HETATM    7  H3* UNL     1      -5.029   6.979  65.285  1.00  0.00     0.000 HD 
HETATM    8  C2* UNL     1      -7.190   8.114  66.301  1.00  0.00    -0.078 C  
HETATM    9  C3* UNL     1      -6.495   6.798  66.585  1.00  0.00    -0.043 C  
HETATM   10  O3* UNL     1      -5.734   6.366  65.459  1.00  0.00    -0.021 OA 
BRANCH   6  11
HETATM   11  N   UNL     1      -9.516   8.874  66.844  1.00  0.00    -0.165 N  
HETATM   12  C   UNL     1     -10.777   9.890  68.606  1.00  0.00    -0.226 C  
HETATM   13  C   UNL     1      -9.922   8.958  68.166  1.00  0.00    -0.176 C  
HETATM   14  I   UNL     1     -11.411   9.971  70.549  1.00  0.00    -0.444 I  
HETATM   15  C   UNL     1     -11.295  10.877  67.619  1.00  0.00    -0.270 C  
HETATM   16  O   UNL     1     -12.132  11.732  67.888  1.00  0.00    -0.592 OA 
HETATM   17  N   UNL     1     -10.783  10.774  66.354  1.00  0.00    -0.205 N  
HETATM   18  C   UNL     1      -9.962   9.782  65.892  1.00  0.00    -0.275 C  
HETATM   19  H   UNL     1     -11.039  11.506  65.692  1.00  0.00     0.000 HD 
HETATM   20  O   UNL     1      -9.670   9.730  64.699  1.00  0.00    -0.268 OA 
ENDBRANCH   6  11
ENDBRANCH   3   4
TORSDOF 2
ENDMDL
MODEL      191
REMARK 921   NORMALIZED FREE ENERGY PREDICTED BY IDOCK:   -2.89 KCAL/MOL
REMARK 922        TOTAL FREE ENERGY PREDICTED BY IDOCK:   -3.54 KCAL/MOL
REMARK 923 INTER-LIGAND FREE ENERGY PREDICTED BY IDOCK:   -4.12 KCAL/MOL
REMARK 924 INTRA-LIGAND FREE ENERGY PREDICTED BY IDOCK:    0.58 KCAL/MOL
REMARK 927      BINDING AFFINITY PREDICTED BY RF-SCORE:    0.00 PKD
ROOT
HETATM    1  O5* UNL     1      -9.756  11.858  63.841  1.00  0.00    -0.450 OA 
HETATM    2  H5* UNL     1      -9.692  11.883  62.894  1.00  0.00     0.000 HD 
HETATM    3  C5* UNL     1      -9.128  10.695  64.379  1.00  0.00    -0.215 C  
ENDROOT
BRANCH   3   4
HETATM    4  C4* UNL     1      -9.232  10.655  65.902  1.00  0.00    -0.182 C  
HETATM    5  O4* UNL     1      -9.053  11.964  66.476  1.00  0.00    -0.204 OA 
HETATM    6  C1* UNL     1      -9.632  11.881  67.788  1.00  0.00    -0.190 C  
HETATM    7  H3* UNL     1     -11.327   8.456  67.077  1.00  0.00     0.000 HD 
HETATM    8  C2* UNL     1     -10.868  10.998  67.637  1.00  0.00    -0.306 C  
HETATM    9  C3* UNL     1     -10.578  10.150  66.415  1.00  0.00    -0.085 C  
HETATM   10  O3* UNL     1     -10.489   8.770  66.758  1.00  0.00    -0.275 OA 
BRANCH   6  11
HETATM   11  N   UNL     1      -9.906  13.199  68.353  1.00  0.00    -0.226 N  
HETATM   12  C   UNL     1     -11.240  14.612  69.752  1.00  0.00    -0.259 C  
HETATM   13  C   UNL     1     -10.898  13.398  69.300  1.00  0.00    -0.040 C  
HETATM   14  I   UNL     1     -12.742  14.897  71.110  1.00  0.00    -0.542 I  
HETATM   15  C   UNL     1     -10.504  15.786  69.207  1.00  0.00    -0.247 C  
HETATM   16  O   UNL     1     -10.773  16.948  69.492  1.00  0.00    -0.326 OA 
HETATM   17  N   UNL     1      -9.488  15.497  68.337  1.00  0.00    -0.193 N  
HETATM   18  C   UNL     1      -9.185  14.264  67.829  1.00  0.00    -0.194 C  
HETATM   19  H   UNL     1      -8.901  16.276  68.039  1.00  0.00     0.000 HD 
HETATM   20  O   UNL     1      -8.327  14.152  66.956  1.00  0.00    -0.191 OA 
ENDBRANCH   6  11
ENDBRANCH   3   4
TORSDOF 2
ENDMDL
MODEL      192
REMARK 921   NORMALIZED FREE ENERGY PREDICTED BY IDOCK:   -2.87 KCAL/MOL
REMARK 922        TOTAL FREE ENERGY PREDICTED BY IDOCK:   -3.53 KCAL/MOL
REMARK 923 INTER-LIGAND FREE ENERGY PREDICTED BY IDOCK:   -3.21 KCAL/MOL
REMARK 924 INTRA-LIGAND FREE ENERGY PREDICTED BY IDOCK:   -0.32 KCAL/MOL
REMARK 927      BINDING AFFINITY PREDICTED BY RF-SCORE:    0.00 PKD
ROOT
HETATM    1  O5* UNL     1     -11.404   5.594  66.143  1.00  0.00    -0.739 OA 
HETATM    2  H5* UNL     1     -12.095   5.244  65.593  1.00  0.00     0.000 HD 
HETATM    3  C5* UNL     1     -10.133   5.040  65.804  1.00  0.00    -0.123 C  
ENDROOT
BRANCH   3   4
HETATM    4  C4* UNL     1      -9.022   5.603  66.688  1.00  0.00    -0.120 C  
HETATM    5  O4* UNL     1      -9.557   6.233  67.867  1.00  0.00    -0.119 OA 
HETATM    6  C1* UNL     1      -8.464   6.277  68.799  1.00  0.00    -0.119 C  
HETATM    7  H3* UNL     1      -6.256   3.884  66.674  1.00  0.00     0.000 HD 
HETATM    8  C2* UNL     1      -7.705   4.967  68.603  1.00  0.00    -0.078 C  
HETATM    9  C3* UNL     1      -8.037   4.548  67.184  1.00  0.00    -0.102 C  
HETATM   10  O3* UNL     1      -6.870   4.540  66.366  1.00  0.00    -0.055 OA 
BRANCH   6  11
HETATM   11  N   UNL     1      -8.917   6.504  70.168  1.00  0.00    -0.154 N  
HETATM   12  C   UNL     1      -9.855   5.659  72.202  1.00  0.00    -0.158 C  
HETATM   13  C   UNL     1      -9.334   5.464  70.983  1.00  0.00    -0.150 C  
HETATM   14  I   UNL     1     -10.517   4.119  73.374  1.00  0.00    -0.337 I  
HETATM   15  C   UNL     1      -9.972   7.061  72.689  1.00  0.00    -0.173 C  
HETATM   16  O   UNL     1     -10.492   7.368  73.756  1.00  0.00    -0.346 OA 
HETATM   17  N   UNL     1      -9.464   8.022  71.857  1.00  0.00    -0.168 N  
HETATM   18  C   UNL     1      -8.994   7.826  70.588  1.00  0.00    -0.145 C  
HETATM   19  H   UNL     1      -9.433   8.974  72.219  1.00  0.00     0.000 HD 
HETATM   20  O   UNL     1      -8.680   8.789  69.892  1.00  0.00    -0.126 OA 
ENDBRANCH   6  11
ENDBRANCH   3   4
TORSDOF 2
ENDMDL
MODEL      193
REMARK 921   NORMALIZED FREE ENERGY PREDICTED BY IDOCK:   -2.80 KCAL/MOL
REMARK 922        TOTAL FREE ENERGY PREDICTED BY IDOCK:   -3.45 KCAL/MOL
REMARK 923 INTER-LIGAND FREE ENERGY PREDICTED BY IDOCK:   -3.70 KCAL/MOL
REMARK 924 INTRA-LIGAND FREE ENERGY PREDICTED BY IDOCK:    0.25 KCAL/MOL
REMARK 927      BINDING AFFINITY PREDICTED BY RF-SCORE:    0.00 PKD
ROOT
HETATM    1  O5* UNL     1      -9.357   7.466  67.593  1.00  0.00    -0.132 OA 
HETATM    2  H5* UNL     1      -9.569   6.719  68.139  1.00  0.00     0.000 HD 
HETATM    3  C5* UNL     1     -10.528   8.045  67.017  1.00  0.00    -0.340 C  
ENDROOT
BRANCH   3   4
HETATM    4  C4* UNL     1     -10.187   9.247  66.139  1.00  0.00    -0.159 C  
HETATM    5  O4* UNL     1     -10.434  10.488  66.826  1.00  0.00    -0.239 OA 
HETATM    6  C1* UNL     1      -9.654  11.469  66.124  1.00  0.00    -0.225 C  
HETATM    7  H3* UNL     1      -7.681   8.793  64.108  1.00  0.00     0.000 HD 
HETATM    8  C2* UNL     1      -8.357  10.762  65.738  1.00  0.00    -0.158 C  
HETATM    9  C3* UNL     1      -8.725   9.293  65.699  1.00  0.00    -0.166 C  
HETATM   10  O3* UNL     1      -8.590   8.765  64.382  1.00  0.00    -0.164 OA 
BRANCH   6  11
HETATM   11  N   UNL     1      -9.460  12.683  66.911  1.00  0.00    -0.222 N  
HETATM   12  C   UNL     1      -9.527  15.071  67.077  1.00  0.00    -0.229 C  
HETATM   13  C   UNL     1      -9.795  13.935  66.419  1.00  0.00    -0.295 C  
HETATM   14  I   UNL     1      -9.978  16.915  66.318  1.00  0.00    -0.270 I  
HETATM   15  C   UNL     1      -8.848  14.962  68.398  1.00  0.00    -0.178 C  
HETATM   16  O   UNL     1      -8.491  15.930  69.060  1.00  0.00    -0.211 OA 
HETATM   17  N   UNL     1      -8.624  13.688  68.846  1.00  0.00    -0.365 N  
HETATM   18  C   UNL     1      -8.839  12.535  68.144  1.00  0.00    -0.191 C  
HETATM   19  H   UNL     1      -8.262  13.591  69.794  1.00  0.00     0.000 HD 
HETATM   20  O   UNL     1      -8.479  11.455  68.609  1.00  0.00    -0.155 OA 
ENDBRANCH   6  11
ENDBRANCH   3   4
TORSDOF 2
ENDMDL
MODEL      194
REMARK 921   NORMALIZED FREE ENERGY PREDICTED BY IDOCK:   -2.80 KCAL/MOL
REMARK 922        TOTAL FREE ENERGY PREDICTED BY IDOCK:   -3.45 KCAL/MOL
REMARK 923 INTER-LIGAND FREE ENERGY PREDICTED BY IDOCK:   -3.86 KCAL/MOL
REMARK 924 INTRA-LIGAND FREE ENERGY PREDICTED BY IDOCK:    0.41 KCAL/MOL
REMARK 927      BINDING AFFINITY PREDICTED BY RF-SCORE:    0.00 PKD
ROOT
HETATM    1  O5* UNL     1      -7.832   4.265  67.447  1.00  0.00    -0.090 OA 
HETATM    2  H5* UNL     1      -7.287   3.588  67.064  1.00  0.00     0.000 HD 
HETATM    3  C5* UNL     1      -7.725   5.493  66.729  1.00  0.00    -0.100 C  
ENDROOT
BRANCH   3   4
HETATM    4  C4* UNL     1      -8.601   6.582  67.347  1.00  0.00    -0.118 C  
HETATM    5  O4* UNL     1      -8.389   7.854  66.705  1.00  0.00    -0.115 OA 
HETATM    6  C1* UNL     1      -9.555   8.632  67.020  1.00  0.00    -0.182 C  
HETATM    7  H3* UNL     1     -11.512   5.568  68.396  1.00  0.00     0.000 HD 
HETATM    8  C2* UNL     1     -10.726   7.654  66.975  1.00  0.00    -0.340 C  
HETATM    9  C3* UNL     1     -10.098   6.301  67.242  1.00  0.00    -0.163 C  
HETATM   10  O3* UNL     1     -10.581   5.743  68.461  1.00  0.00    -0.222 OA 
BRANCH   6  11
HETATM   11  N   UNL     1      -9.704   9.782  66.133  1.00  0.00    -0.226 N  
HETATM   12  C   UNL     1     -10.678  11.919  65.665  1.00  0.00    -0.280 C  
HETATM   13  C   UNL     1     -10.438  10.900  66.501  1.00  0.00    -0.253 C  
HETATM   14  I   UNL     1     -11.806  13.537  66.202  1.00  0.00    -0.496 I  
HETATM   15  C   UNL     1     -10.116  11.834  64.289  1.00  0.00    -0.290 C  
HETATM   16  O   UNL     1     -10.326  12.670  63.417  1.00  0.00    -0.354 OA 
HETATM   17  N   UNL     1      -9.339  10.736  64.033  1.00  0.00    -0.234 N  
HETATM   18  C   UNL     1      -9.150   9.668  64.865  1.00  0.00    -0.232 C  
HETATM   19  H   UNL     1      -8.855  10.714  63.136  1.00  0.00     0.000 HD 
HETATM   20  O   UNL     1      -8.529   8.683  64.471  1.00  0.00    -0.163 OA 
ENDBRANCH   6  11
ENDBRANCH   3   4
TORSDOF 2
ENDMDL
MODEL      195
REMARK 921   NORMALIZED FREE ENERGY PREDICTED BY IDOCK:   -2.77 KCAL/MOL
REMARK 922        TOTAL FREE ENERGY PREDICTED BY IDOCK:   -3.41 KCAL/MOL
REMARK 923 INTER-LIGAND FREE ENERGY PREDICTED BY IDOCK:   -3.71 KCAL/MOL
REMARK 924 INTRA-LIGAND FREE ENERGY PREDICTED BY IDOCK:    0.29 KCAL/MOL
REMARK 927      BINDING AFFINITY PREDICTED BY RF-SCORE:    0.00 PKD
ROOT
HETATM    1  O5* UNL     1      -5.797   6.946  65.287  1.00  0.00    -0.034 OA 
HETATM    2  H5* UNL     1      -5.307   6.567  64.568  1.00  0.00     0.000 HD 
HETATM    3  C5* UNL     1      -6.966   7.623  64.826  1.00  0.00    -0.055 C  
ENDROOT
BRANCH   3   4
HETATM    4  C4* UNL     1      -7.755   8.234  65.982  1.00  0.00    -0.093 C  
HETATM    5  O4* UNL     1      -8.034   9.627  65.751  1.00  0.00    -0.106 OA 
HETATM    6  C1* UNL     1      -9.136   9.939  66.617  1.00  0.00    -0.147 C  
HETATM    7  H3* UNL     1      -9.849   6.206  67.435  1.00  0.00     0.000 HD 
HETATM    8  C2* UNL     1     -10.036   8.706  66.597  1.00  0.00    -0.364 C  
HETATM    9  C3* UNL     1      -9.107   7.568  66.224  1.00  0.00    -0.157 C  
HETATM   10  O3* UNL     1      -9.007   6.620  67.284  1.00  0.00    -0.115 OA 
BRANCH   6  11
HETATM   11  N   UNL     1      -9.810  11.175  66.228  1.00  0.00    -0.207 N  
HETATM   12  C   UNL     1     -10.845  13.245  66.838  1.00  0.00    -0.276 C  
HETATM   13  C   UNL     1     -10.134  12.155  67.153  1.00  0.00    -0.206 C  
HETATM   14  I   UNL     1     -11.363  14.658  68.223  1.00  0.00    -0.369 I  
HETATM   15  C   UNL     1     -11.290  13.398  65.426  1.00  0.00    -0.291 C  
HETATM   16  O   UNL     1     -12.002  14.316  65.034  1.00  0.00    -0.373 OA 
HETATM   17  N   UNL     1     -10.861  12.428  64.561  1.00  0.00    -0.302 N  
HETATM   18  C   UNL     1     -10.191  11.284  64.897  1.00  0.00    -0.286 C  
HETATM   19  H   UNL     1     -11.060  12.572  63.571  1.00  0.00     0.000 HD 
HETATM   20  O   UNL     1      -9.971  10.427  64.044  1.00  0.00    -0.323 OA 
ENDBRANCH   6  11
ENDBRANCH   3   4
TORSDOF 2
ENDMDL
MODEL      196
REMARK 921   NORMALIZED FREE ENERGY PREDICTED BY IDOCK:   -2.77 KCAL/MOL
REMARK 922        TOTAL FREE ENERGY PREDICTED BY IDOCK:   -3.41 KCAL/MOL
REMARK 923 INTER-LIGAND FREE ENERGY PREDICTED BY IDOCK:   -3.14 KCAL/MOL
REMARK 924 INTRA-LIGAND FREE ENERGY PREDICTED BY IDOCK:   -0.27 KCAL/MOL
REMARK 927      BINDING AFFINITY PREDICTED BY RF-SCORE:    0.00 PKD
ROOT
HETATM    1  O5* UNL     1     -11.508   7.801  73.400  1.00  0.00    -0.617 OA 
HETATM    2  H5* UNL     1     -12.411   7.773  73.693  1.00  0.00     0.000 HD 
HETATM    3  C5* UNL     1     -11.353   7.192  72.118  1.00  0.00    -0.264 C  
ENDROOT
BRANCH   3   4
HETATM    4  C4* UNL     1      -9.901   7.239  71.647  1.00  0.00    -0.165 C  
HETATM    5  O4* UNL     1      -9.748   6.618  70.356  1.00  0.00    -0.174 OA 
HETATM    6  C1* UNL     1      -8.513   7.136  69.835  1.00  0.00    -0.140 C  
HETATM    7  H3* UNL     1      -8.244   9.886  72.570  1.00  0.00     0.000 HD 
HETATM    8  C2* UNL     1      -8.464   8.598  70.271  1.00  0.00    -0.133 C  
HETATM    9  C3* UNL     1      -9.346   8.654  71.503  1.00  0.00    -0.249 C  
HETATM   10  O3* UNL     1      -8.590   9.006  72.659  1.00  0.00    -0.293 OA 
BRANCH   6  11
HETATM   11  N   UNL     1      -8.400   6.941  68.392  1.00  0.00    -0.120 N  
HETATM   12  C   UNL     1      -8.498   7.831  66.172  1.00  0.00    -0.138 C  
HETATM   13  C   UNL     1      -8.490   7.998  67.501  1.00  0.00    -0.127 C  
HETATM   14  I   UNL     1      -8.684   9.394  64.868  1.00  0.00    -0.212 I  
HETATM   15  C   UNL     1      -8.394   6.441  65.648  1.00  0.00    -0.147 C  
HETATM   16  O   UNL     1      -8.459   6.157  64.458  1.00  0.00    -0.074 OA 
HETATM   17  N   UNL     1      -8.229   5.463  66.592  1.00  0.00    -0.108 N  
HETATM   18  C   UNL     1      -8.288   5.630  67.948  1.00  0.00    -0.100 C  
HETATM   19  H   UNL     1      -8.046   4.520  66.251  1.00  0.00     0.000 HD 
HETATM   20  O   UNL     1      -8.249   4.651  68.691  1.00  0.00    -0.082 OA 
ENDBRANCH   6  11
ENDBRANCH   3   4
TORSDOF 2
ENDMDL
MODEL      197
REMARK 921   NORMALIZED FREE ENERGY PREDICTED BY IDOCK:   -2.75 KCAL/MOL
REMARK 922        TOTAL FREE ENERGY PREDICTED BY IDOCK:   -3.39 KCAL/MOL
REMARK 923 INTER-LIGAND FREE ENERGY PREDICTED BY IDOCK:   -3.06 KCAL/MOL
REMARK 924 INTRA-LIGAND FREE ENERGY PREDICTED BY IDOCK:   -0.33 KCAL/MOL
REMARK 927      BINDING AFFINITY PREDICTED BY RF-SCORE:    0.00 PKD
ROOT
HETATM    1  O5* UNL     1      -9.812   8.879  66.509  1.00  0.00    -0.230 OA 
HETATM    2  H5* UNL     1      -9.838   9.748  66.128  1.00  0.00     0.000 HD 
HETATM    3  C5* UNL     1      -8.821   8.063  65.885  1.00  0.00    -0.153 C  
ENDROOT
BRANCH   3   4
HETATM    4  C4* UNL     1      -8.779   6.664  66.497  1.00  0.00    -0.135 C  
HETATM    5  O4* UNL     1      -9.012   6.705  67.918  1.00  0.00    -0.115 OA 
HETATM    6  C1* UNL     1      -9.418   5.372  68.271  1.00  0.00    -0.119 C  
HETATM    7  H3* UNL     1      -9.892   4.289  64.568  1.00  0.00     0.000 HD 
HETATM    8  C2* UNL     1     -10.285   4.887  67.113  1.00  0.00    -0.211 C  
HETATM    9  C3* UNL     1      -9.825   5.710  65.926  1.00  0.00     0.055 C  
HETATM   10  O3* UNL     1      -9.242   4.882  64.923  1.00  0.00    -0.149 OA 
BRANCH   6  11
HETATM   11  N   UNL     1     -10.079   5.325  69.572  1.00  0.00    -0.230 N  
HETATM   12  C   UNL     1     -11.611   6.275  71.148  1.00  0.00    -0.275 C  
HETATM   13  C   UNL     1     -11.067   6.231  69.924  1.00  0.00    -0.401 C  
HETATM   14  I   UNL     1     -13.030   7.650  71.671  1.00  0.00    -0.259 I  
HETATM   15  C   UNL     1     -11.126   5.293  72.157  1.00  0.00    -0.119 C  
HETATM   16  O   UNL     1     -11.497   5.280  73.325  1.00  0.00    -0.294 OA 
HETATM   17  N   UNL     1     -10.208   4.384  71.705  1.00  0.00    -0.166 N  
HETATM   18  C   UNL     1      -9.607   4.382  70.477  1.00  0.00    -0.199 C  
HETATM   19  H   UNL     1      -9.946   3.636  72.347  1.00  0.00     0.000 HD 
HETATM   20  O   UNL     1      -8.703   3.586  70.234  1.00  0.00    -0.060 OA 
ENDBRANCH   6  11
ENDBRANCH   3   4
TORSDOF 2
ENDMDL
MODEL      198
REMARK 921   NORMALIZED FREE ENERGY PREDICTED BY IDOCK:   -2.73 KCAL/MOL
REMARK 922        TOTAL FREE ENERGY PREDICTED BY IDOCK:   -3.37 KCAL/MOL
REMARK 923 INTER-LIGAND FREE ENERGY PREDICTED BY IDOCK:   -3.99 KCAL/MOL
REMARK 924 INTRA-LIGAND FREE ENERGY PREDICTED BY IDOCK:    0.61 KCAL/MOL
REMARK 927      BINDING AFFINITY PREDICTED BY RF-SCORE:    0.00 PKD
ROOT
HETATM    1  O5* UNL     1     -10.767   5.863  66.258  1.00  0.00    -0.485 OA 
HETATM    2  H5* UNL     1     -11.422   5.223  66.511  1.00  0.00     0.000 HD 
HETATM    3  C5* UNL     1     -10.098   6.407  67.394  1.00  0.00    -0.158 C  
ENDROOT
BRANCH   3   4
HETATM    4  C4* UNL     1      -9.045   7.435  66.987  1.00  0.00    -0.135 C  
HETATM    5  O4* UNL     1      -9.638   8.550  66.296  1.00  0.00    -0.225 OA 
HETATM    6  C1* UNL     1      -8.676   9.612  66.400  1.00  0.00    -0.134 C  
HETATM    7  H3* UNL     1      -6.548   7.733  69.056  1.00  0.00     0.000 HD 
HETATM    8  C2* UNL     1      -8.076   9.486  67.798  1.00  0.00    -0.106 C  
HETATM    9  C3* UNL     1      -8.276   8.029  68.164  1.00  0.00    -0.126 C  
HETATM   10  O3* UNL     1      -7.026   7.364  68.323  1.00  0.00    -0.073 OA 
BRANCH   6  11
HETATM   11  N   UNL     1      -9.266  10.918  66.121  1.00  0.00    -0.178 N  
HETATM   12  C   UNL     1     -10.883  12.251  64.961  1.00  0.00    -0.298 C  
HETATM   13  C   UNL     1     -10.389  11.058  65.320  1.00  0.00    -0.275 C  
HETATM   14  I   UNL     1     -12.508  12.444  63.735  1.00  0.00    -0.384 I  
HETATM   15  C   UNL     1     -10.188  13.468  65.464  1.00  0.00    -0.295 C  
HETATM   16  O   UNL     1     -10.505  14.609  65.150  1.00  0.00    -0.365 OA 
HETATM   17  N   UNL     1      -9.138  13.242  66.313  1.00  0.00    -0.467 N  
HETATM   18  C   UNL     1      -8.596  12.026  66.624  1.00  0.00    -0.143 C  
HETATM   19  H   UNL     1      -8.719  14.060  66.755  1.00  0.00     0.000 HD 
HETATM   20  O   UNL     1      -7.572  11.963  67.301  1.00  0.00    -0.137 OA 
ENDBRANCH   6  11
ENDBRANCH   3   4
TORSDOF 2
ENDMDL
MODEL      199
REMARK 921   NORMALIZED FREE ENERGY PREDICTED BY IDOCK:   -2.73 KCAL/MOL
REMARK 922        TOTAL FREE ENERGY PREDICTED BY IDOCK:   -3.37 KCAL/MOL
REMARK 923 INTER-LIGAND FREE ENERGY PREDICTED BY IDOCK:   -3.60 KCAL/MOL
REMARK 924 INTRA-LIGAND FREE ENERGY PREDICTED BY IDOCK:    0.23 KCAL/MOL
REMARK 927      BINDING AFFINITY PREDICTED BY RF-SCORE:    0.00 PKD
ROOT
HETATM    1  O5* UNL     1     -13.227  10.272  72.556  1.00  0.00    -0.533 OA 
HETATM    2  H5* UNL     1     -14.056  10.199  73.013  1.00  0.00     0.000 HD 
HETATM    3  C5* UNL     1     -12.710   8.990  72.198  1.00  0.00    -0.401 C  
ENDROOT
BRANCH   3   4
HETATM    4  C4* UNL     1     -11.376   9.108  71.464  1.00  0.00    -0.368 C  
HETATM    5  O4* UNL     1     -10.731   7.827  71.338  1.00  0.00    -0.221 OA 
HETATM    6  C1* UNL     1      -9.790   7.984  70.263  1.00  0.00    -0.184 C  
HETATM    7  H3* UNL     1     -11.283  11.395  69.148  1.00  0.00     0.000 HD 
HETATM    8  C2* UNL     1     -10.483   8.877  69.238  1.00  0.00    -0.234 C  
HETATM    9  C3* UNL     1     -11.501   9.658  70.045  1.00  0.00    -0.145 C  
HETATM   10  O3* UNL     1     -11.206  11.053  70.030  1.00  0.00    -0.273 OA 
BRANCH   6  11
HETATM   11  N   UNL     1      -9.345   6.699  69.730  1.00  0.00    -0.145 N  
HETATM   12  C   UNL     1      -7.598   5.325  68.839  1.00  0.00    -0.081 C  
HETATM   13  C   UNL     1      -8.014   6.454  69.429  1.00  0.00    -0.110 C  
HETATM   14  I   UNL     1      -5.640   4.997  68.350  1.00  0.00    -0.018 I  
HETATM   15  C   UNL     1      -8.624   4.297  68.511  1.00  0.00    -0.093 C  
HETATM   16  O   UNL     1      -8.374   3.256  67.912  1.00  0.00    -0.081 OA 
HETATM   17  N   UNL     1      -9.900   4.583  68.914  1.00  0.00    -0.153 N  
HETATM   18  C   UNL     1     -10.332   5.762  69.455  1.00  0.00    -0.263 C  
HETATM   19  H   UNL     1     -10.595   3.846  68.799  1.00  0.00     0.000 HD 
HETATM   20  O   UNL     1     -11.530   5.943  69.660  1.00  0.00    -0.296 OA 
ENDBRANCH   6  11
ENDBRANCH   3   4
TORSDOF 2
ENDMDL
MODEL      200
REMARK 921   NORMALIZED FREE ENERGY PREDICTED BY IDOCK:   -2.71 KCAL/MOL
REMARK 922        TOTAL FREE ENERGY PREDICTED BY IDOCK:   -3.35 KCAL/MOL
REMARK 923 INTER-LIGAND FREE ENERGY PREDICTED BY IDOCK:   -4.06 KCAL/MOL
REMARK 924 INTRA-LIGAND FREE ENERGY PREDICTED BY IDOCK:    0.71 KCAL/MOL
REMARK 927      BINDING AFFINITY PREDICTED BY RF-SCORE:    0.00 PKD
ROOT
HETATM    1  O5* UNL     1      -5.439  20.472  64.963  1.00  0.00    -0.169 OA 
HETATM    2  H5* UNL     1      -4.900  20.823  64.264  1.00  0.00     0.000 HD 
HETATM    3  C5* UNL     1      -6.828  20.681  64.711  1.00  0.00    -0.081 C  
ENDROOT
BRANCH   3   4
HETATM    4  C4* UNL     1      -7.693  20.117  65.835  1.00  0.00    -0.223 C  
HETATM    5  O4* UNL     1      -8.264  18.846  65.472  1.00  0.00    -0.288 OA 
HETATM    6  C1* UNL     1      -8.625  18.226  66.716  1.00  0.00    -0.261 C  
HETATM    7  H3* UNL     1      -6.666  20.824  68.843  1.00  0.00     0.000 HD 
HETATM    8  C2* UNL     1      -7.517  18.599  67.697  1.00  0.00    -0.241 C  
HETATM    9  C3* UNL     1      -6.933  19.881  67.138  1.00  0.00    -0.213 C  
HETATM   10  O3* UNL     1      -7.138  20.971  68.033  1.00  0.00    -0.179 OA 
BRANCH   6  11
HETATM   11  N   UNL     1      -8.837  16.788  66.574  1.00  0.00    -0.255 N  
HETATM   12  C   UNL     1     -10.328  14.938  66.280  1.00  0.00    -0.294 C  
HETATM   13  C   UNL     1     -10.089  16.256  66.308  1.00  0.00    -0.324 C  
HETATM   14  I   UNL     1     -12.190  14.165  65.939  1.00  0.00    -0.346 I  
HETATM   15  C   UNL     1      -9.183  14.021  66.539  1.00  0.00    -0.218 C  
HETATM   16  O   UNL     1      -9.292  12.802  66.608  1.00  0.00    -0.238 OA 
HETATM   17  N   UNL     1      -7.968  14.625  66.714  1.00  0.00    -0.327 N  
HETATM   18  C   UNL     1      -7.739  15.971  66.807  1.00  0.00    -0.235 C  
HETATM   19  H   UNL     1      -7.155  14.014  66.782  1.00  0.00     0.000 HD 
HETATM   20  O   UNL     1      -6.618  16.386  67.091  1.00  0.00    -0.170 OA 
ENDBRANCH   6  11
ENDBRANCH   3   4
TORSDOF 2
ENDMDL
MODEL      201
REMARK 921   NORMALIZED FREE ENERGY PREDICTED BY IDOCK:   -2.71 KCAL/MOL
REMARK 922        TOTAL FREE ENERGY PREDICTED BY IDOCK:   -3.34 KCAL/MOL
REMARK 923 INTER-LIGAND FREE ENERGY PREDICTED BY IDOCK:   -3.26 KCAL/MOL
REMARK 924 INTRA-LIGAND FREE ENERGY PREDICTED BY IDOCK:   -0.08 KCAL/MOL
REMARK 927      BINDING AFFINITY PREDICTED BY RF-SCORE:    0.00 PKD
ROOT
HETATM    1  O5* UNL     1      -5.169   8.308  67.042  1.00  0.00    -0.034 OA 
HETATM    2  H5* UNL     1      -4.219   8.318  67.028  1.00  0.00     0.000 HD 
HETATM    3  C5* UNL     1      -5.715   9.487  66.452  1.00  0.00    -0.053 C  
ENDROOT
BRANCH   3   4
HETATM    4  C4* UNL     1      -7.242   9.470  66.474  1.00  0.00    -0.089 C  
HETATM    5  O4* UNL     1      -7.769  10.559  67.255  1.00  0.00    -0.104 OA 
HETATM    6  C1* UNL     1      -9.127  10.715  66.814  1.00  0.00    -0.152 C  
HETATM    7  H3* UNL     1      -8.640   8.387  63.740  1.00  0.00     0.000 HD 
HETATM    8  C2* UNL     1      -9.102  10.464  65.309  1.00  0.00    -0.227 C  
HETATM    9  C3* UNL     1      -7.879   9.596  65.092  1.00  0.00    -0.117 C  
HETATM   10  O3* UNL     1      -8.244   8.309  64.599  1.00  0.00    -0.157 OA 
BRANCH   6  11
HETATM   11  N   UNL     1      -9.683  12.011  67.193  1.00  0.00    -0.195 N  
HETATM   12  C   UNL     1      -9.398  14.174  68.179  1.00  0.00    -0.206 C  
HETATM   13  C   UNL     1      -8.894  13.019  67.725  1.00  0.00    -0.188 C  
HETATM   14  I   UNL     1      -8.230  15.632  69.011  1.00  0.00    -0.256 I  
HETATM   15  C   UNL     1     -10.872  14.370  68.090  1.00  0.00    -0.244 C  
HETATM   16  O   UNL     1     -11.454  15.353  68.534  1.00  0.00    -0.317 OA 
HETATM   17  N   UNL     1     -11.568  13.361  67.480  1.00  0.00    -0.323 N  
HETATM   18  C   UNL     1     -11.060  12.157  67.078  1.00  0.00    -0.294 C  
HETATM   19  H   UNL     1     -12.560  13.523  67.310  1.00  0.00     0.000 HD 
HETATM   20  O   UNL     1     -11.812  11.281  66.656  1.00  0.00    -0.311 OA 
ENDBRANCH   6  11
ENDBRANCH   3   4
TORSDOF 2
ENDMDL
MODEL      202
REMARK 921   NORMALIZED FREE ENERGY PREDICTED BY IDOCK:   -2.71 KCAL/MOL
REMARK 922        TOTAL FREE ENERGY PREDICTED BY IDOCK:   -3.34 KCAL/MOL
REMARK 923 INTER-LIGAND FREE ENERGY PREDICTED BY IDOCK:   -3.07 KCAL/MOL
REMARK 924 INTRA-LIGAND FREE ENERGY PREDICTED BY IDOCK:   -0.28 KCAL/MOL
REMARK 927      BINDING AFFINITY PREDICTED BY RF-SCORE:    0.00 PKD
ROOT
HETATM    1  O5* UNL     1     -10.579  13.629  68.958  1.00  0.00    -0.350 OA 
HETATM    2  H5* UNL     1     -11.258  14.236  68.689  1.00  0.00     0.000 HD 
HETATM    3  C5* UNL     1      -9.571  13.493  67.956  1.00  0.00    -0.221 C  
ENDROOT
BRANCH   3   4
HETATM    4  C4* UNL     1      -8.479  12.518  68.388  1.00  0.00    -0.125 C  
HETATM    5  O4* UNL     1      -9.036  11.353  69.026  1.00  0.00    -0.063 OA 
HETATM    6  C1* UNL     1      -8.010  10.351  68.941  1.00  0.00    -0.123 C  
HETATM    7  H3* UNL     1      -5.880  12.415  66.428  1.00  0.00     0.000 HD 
HETATM    8  C2* UNL     1      -7.357  10.546  67.575  1.00  0.00    -0.092 C  
HETATM    9  C3* UNL     1      -7.626  11.998  67.233  1.00  0.00    -0.157 C  
HETATM   10  O3* UNL     1      -6.411  12.738  67.146  1.00  0.00    -0.227 OA 
BRANCH   6  11
HETATM   11  N   UNL     1      -8.534   9.007  69.164  1.00  0.00    -0.126 N  
HETATM   12  C   UNL     1      -9.511   6.999  68.300  1.00  0.00    -0.128 C  
HETATM   13  C   UNL     1      -8.928   8.191  68.115  1.00  0.00    -0.135 C  
HETATM   14  I   UNL     1     -10.136   5.828  66.745  1.00  0.00    -0.282 I  
HETATM   15  C   UNL     1      -9.728   6.544  69.701  1.00  0.00    -0.156 C  
HETATM   16  O   UNL     1     -10.311   5.506  69.995  1.00  0.00    -0.239 OA 
HETATM   17  N   UNL     1      -9.239   7.371  70.675  1.00  0.00    -0.157 N  
HETATM   18  C   UNL     1      -8.704   8.615  70.486  1.00  0.00    -0.162 C  
HETATM   19  H   UNL     1      -9.277   7.027  71.634  1.00  0.00     0.000 HD 
HETATM   20  O   UNL     1      -8.415   9.315  71.454  1.00  0.00    -0.325 OA 
ENDBRANCH   6  11
ENDBRANCH   3   4
TORSDOF 2
ENDMDL
MODEL      203
REMARK 921   NORMALIZED FREE ENERGY PREDICTED BY IDOCK:   -2.70 KCAL/MOL
REMARK 922        TOTAL FREE ENERGY PREDICTED BY IDOCK:   -3.33 KCAL/MOL
REMARK 923 INTER-LIGAND FREE ENERGY PREDICTED BY IDOCK:   -3.08 KCAL/MOL
REMARK 924 INTRA-LIGAND FREE ENERGY PREDICTED BY IDOCK:   -0.26 KCAL/MOL
REMARK 927      BINDING AFFINITY PREDICTED BY RF-SCORE:    0.00 PKD
ROOT
HETATM    1  O5* UNL     1      -8.682  11.630  65.944  1.00  0.00    -0.360 OA 
HETATM    2  H5* UNL     1      -8.129  12.330  65.619  1.00  0.00     0.000 HD 
HETATM    3  C5* UNL     1      -8.630  11.536  67.367  1.00  0.00    -0.145 C  
ENDROOT
BRANCH   3   4
HETATM    4  C4* UNL     1      -9.518  10.409  67.888  1.00  0.00    -0.138 C  
HETATM    5  O4* UNL     1      -8.737   9.351  68.474  1.00  0.00    -0.126 OA 
HETATM    6  C1* UNL     1      -9.650   8.633  69.319  1.00  0.00    -0.166 C  
HETATM    7  H3* UNL     1     -12.400  11.367  69.064  1.00  0.00     0.000 HD 
HETATM    8  C2* UNL     1     -10.553   9.692  69.943  1.00  0.00    -0.281 C  
HETATM    9  C3* UNL     1     -10.505  10.851  68.967  1.00  0.00    -0.219 C  
HETATM   10  O3* UNL     1     -11.787  11.092  68.393  1.00  0.00    -0.495 OA 
BRANCH   6  11
HETATM   11  N   UNL     1      -8.955   7.794  70.292  1.00  0.00    -0.147 N  
HETATM   12  C   UNL     1      -7.991   7.515  72.466  1.00  0.00    -0.103 C  
HETATM   13  C   UNL     1      -8.719   8.220  71.590  1.00  0.00    -0.163 C  
HETATM   14  I   UNL     1      -7.605   8.180  74.360  1.00  0.00    -0.234 I  
HETATM   15  C   UNL     1      -7.428   6.214  72.010  1.00  0.00    -0.095 C  
HETATM   16  O   UNL     1      -6.692   5.515  72.697  1.00  0.00    -0.067 OA 
HETATM   17  N   UNL     1      -7.774   5.830  70.743  1.00  0.00    -0.091 N  
HETATM   18  C   UNL     1      -8.462   6.581  69.830  1.00  0.00    -0.131 C  
HETATM   19  H   UNL     1      -7.492   4.894  70.452  1.00  0.00     0.000 HD 
HETATM   20  O   UNL     1      -8.602   6.173  68.679  1.00  0.00    -0.113 OA 
ENDBRANCH   6  11
ENDBRANCH   3   4
TORSDOF 2
ENDMDL
MODEL      204
REMARK 921   NORMALIZED FREE ENERGY PREDICTED BY IDOCK:   -2.69 KCAL/MOL
REMARK 922        TOTAL FREE ENERGY PREDICTED BY IDOCK:   -3.32 KCAL/MOL
REMARK 923 INTER-LIGAND FREE ENERGY PREDICTED BY IDOCK:   -3.05 KCAL/MOL
REMARK 924 INTRA-LIGAND FREE ENERGY PREDICTED BY IDOCK:   -0.27 KCAL/MOL
REMARK 927      BINDING AFFINITY PREDICTED BY RF-SCORE:    0.00 PKD
ROOT
HETATM    1  O5* UNL     1     -12.246  11.489  67.816  1.00  0.00    -0.560 OA 
HETATM    2  H5* UNL     1     -12.997  11.935  67.443  1.00  0.00     0.000 HD 
HETATM    3  C5* UNL     1     -11.146  11.464  66.908  1.00  0.00    -0.295 C  
ENDROOT
BRANCH   3   4
HETATM    4  C4* UNL     1      -9.939  10.746  67.508  1.00  0.00    -0.174 C  
HETATM    5  O4* UNL     1     -10.233   9.364  67.785  1.00  0.00    -0.194 OA 
HETATM    6  C1* UNL     1      -8.953   8.718  67.874  1.00  0.00    -0.140 C  
HETATM    7  H3* UNL     1      -7.048  11.777  66.418  1.00  0.00     0.000 HD 
HETATM    8  C2* UNL     1      -8.085   9.377  66.805  1.00  0.00    -0.109 C  
HETATM    9  C3* UNL     1      -8.711  10.742  66.600  1.00  0.00    -0.147 C  
HETATM   10  O3* UNL     1      -7.812  11.780  66.982  1.00  0.00    -0.155 OA 
BRANCH   6  11
HETATM   11  N   UNL     1      -9.060   7.267  67.744  1.00  0.00    -0.125 N  
HETATM   12  C   UNL     1      -9.098   5.313  66.362  1.00  0.00    -0.137 C  
HETATM   13  C   UNL     1      -8.899   6.627  66.525  1.00  0.00    -0.139 C  
HETATM   14  I   UNL     1      -8.909   4.389  64.548  1.00  0.00    -0.140 I  
HETATM   15  C   UNL     1      -9.500   4.519  67.556  1.00  0.00    -0.161 C  
HETATM   16  O   UNL     1      -9.776   3.326  67.517  1.00  0.00    -0.149 OA 
HETATM   17  N   UNL     1      -9.559   5.212  68.735  1.00  0.00    -0.134 N  
HETATM   18  C   UNL     1      -9.419   6.564  68.887  1.00  0.00    -0.129 C  
HETATM   19  H   UNL     1      -9.723   4.668  69.582  1.00  0.00     0.000 HD 
HETATM   20  O   UNL     1      -9.619   7.085  69.982  1.00  0.00    -0.164 OA 
ENDBRANCH   6  11
ENDBRANCH   3   4
TORSDOF 2
ENDMDL
MODEL      205
REMARK 921   NORMALIZED FREE ENERGY PREDICTED BY IDOCK:   -2.68 KCAL/MOL
REMARK 922        TOTAL FREE ENERGY PREDICTED BY IDOCK:   -3.32 KCAL/MOL
REMARK 923 INTER-LIGAND FREE ENERGY PREDICTED BY IDOCK:   -3.51 KCAL/MOL
REMARK 924 INTRA-LIGAND FREE ENERGY PREDICTED BY IDOCK:    0.19 KCAL/MOL
REMARK 927      BINDING AFFINITY PREDICTED BY RF-SCORE:    0.00 PKD
ROOT
HETATM    1  O5* UNL     1      -8.606  12.802  66.685  1.00  0.00    -0.392 OA 
HETATM    2  H5* UNL     1      -7.899  13.329  66.333  1.00  0.00     0.000 HD 
HETATM    3  C5* UNL     1      -8.173  11.476  66.986  1.00  0.00    -0.167 C  
ENDROOT
BRANCH   3   4
HETATM    4  C4* UNL     1      -9.310  10.629  67.552  1.00  0.00    -0.146 C  
HETATM    5  O4* UNL     1      -8.814   9.606  68.436  1.00  0.00    -0.123 OA 
HETATM    6  C1* UNL     1      -9.943   9.223  69.239  1.00  0.00    -0.180 C  
HETATM    7  H3* UNL     1     -12.097  12.236  68.058  1.00  0.00     0.000 HD 
HETATM    8  C2* UNL     1     -10.712  10.514  69.509  1.00  0.00    -0.291 C  
HETATM    9  C3* UNL     1     -10.329  11.427  68.361  1.00  0.00    -0.195 C  
HETATM   10  O3* UNL     1     -11.463  11.739  67.555  1.00  0.00    -0.308 OA 
BRANCH   6  11
HETATM   11  N   UNL     1      -9.541   8.505  70.445  1.00  0.00    -0.168 N  
HETATM   12  C   UNL     1     -10.002   6.856  72.119  1.00  0.00    -0.162 C  
HETATM   13  C   UNL     1     -10.291   7.458  70.957  1.00  0.00    -0.195 C  
HETATM   14  I   UNL     1     -11.148   5.348  72.891  1.00  0.00    -0.308 I  
HETATM   15  C   UNL     1      -8.814   7.341  72.873  1.00  0.00    -0.132 C  
HETATM   16  O   UNL     1      -8.490   6.916  73.977  1.00  0.00    -0.127 OA 
HETATM   17  N   UNL     1      -8.083   8.323  72.260  1.00  0.00    -0.142 N  
HETATM   18  C   UNL     1      -8.416   8.979  71.108  1.00  0.00    -0.177 C  
HETATM   19  H   UNL     1      -7.206   8.590  72.706  1.00  0.00     0.000 HD 
HETATM   20  O   UNL     1      -7.741   9.931  70.724  1.00  0.00    -0.293 OA 
ENDBRANCH   6  11
ENDBRANCH   3   4
TORSDOF 2
ENDMDL
MODEL      206
REMARK 921   NORMALIZED FREE ENERGY PREDICTED BY IDOCK:   -2.66 KCAL/MOL
REMARK 922        TOTAL FREE ENERGY PREDICTED BY IDOCK:   -3.29 KCAL/MOL
REMARK 923 INTER-LIGAND FREE ENERGY PREDICTED BY IDOCK:   -3.71 KCAL/MOL
REMARK 924 INTRA-LIGAND FREE ENERGY PREDICTED BY IDOCK:    0.42 KCAL/MOL
REMARK 927      BINDING AFFINITY PREDICTED BY RF-SCORE:    0.00 PKD
ROOT
HETATM    1  O5* UNL     1      -8.367  12.376  66.264  1.00  0.00    -0.395 OA 
HETATM    2  H5* UNL     1      -7.536  12.589  65.858  1.00  0.00     0.000 HD 
HETATM    3  C5* UNL     1      -8.349  11.074  66.847  1.00  0.00    -0.138 C  
ENDROOT
BRANCH   3   4
HETATM    4  C4* UNL     1      -9.686  10.733  67.501  1.00  0.00    -0.166 C  
HETATM    5  O4* UNL     1      -9.651   9.435  68.126  1.00  0.00    -0.140 OA 
HETATM    6  C1* UNL     1     -10.732   9.443  69.070  1.00  0.00    -0.187 C  
HETATM    7  H3* UNL     1     -11.291  13.277  68.749  1.00  0.00     0.000 HD 
HETATM    8  C2* UNL     1     -10.756  10.852  69.657  1.00  0.00    -0.232 C  
HETATM    9  C3* UNL     1     -10.106  11.714  68.592  1.00  0.00    -0.198 C  
HETATM   10  O3* UNL     1     -11.030  12.666  68.070  1.00  0.00    -0.218 OA 
BRANCH   6  11
HETATM   11  N   UNL     1     -10.599   8.385  70.068  1.00  0.00    -0.232 N  
HETATM   12  C   UNL     1      -9.804   6.212  70.682  1.00  0.00    -0.179 C  
HETATM   13  C   UNL     1      -9.853   7.242  69.827  1.00  0.00    -0.177 C  
HETATM   14  I   UNL     1      -8.742   4.509  70.292  1.00  0.00    -0.148 I  
HETATM   15  C   UNL     1     -10.585   6.322  71.945  1.00  0.00    -0.219 C  
HETATM   16  O   UNL     1     -10.673   5.420  72.770  1.00  0.00    -0.216 OA 
HETATM   17  N   UNL     1     -11.230   7.514  72.141  1.00  0.00    -0.256 N  
HETATM   18  C   UNL     1     -11.331   8.536  71.239  1.00  0.00    -0.271 C  
HETATM   19  H   UNL     1     -11.678   7.652  73.047  1.00  0.00     0.000 HD 
HETATM   20  O   UNL     1     -12.044   9.506  71.485  1.00  0.00    -0.338 OA 
ENDBRANCH   6  11
ENDBRANCH   3   4
TORSDOF 2
ENDMDL
MODEL      207
REMARK 921   NORMALIZED FREE ENERGY PREDICTED BY IDOCK:   -2.64 KCAL/MOL
REMARK 922        TOTAL FREE ENERGY PREDICTED BY IDOCK:   -3.27 KCAL/MOL
REMARK 923 INTER-LIGAND FREE ENERGY PREDICTED BY IDOCK:   -3.51 KCAL/MOL
REMARK 924 INTRA-LIGAND FREE ENERGY PREDICTED BY IDOCK:    0.24 KCAL/MOL
REMARK 927      BINDING AFFINITY PREDICTED BY RF-SCORE:    0.00 PKD
ROOT
HETATM    1  O5* UNL     1     -11.628   8.767  70.666  1.00  0.00    -0.327 OA 
HETATM    2  H5* UNL     1     -12.031   8.714  71.524  1.00  0.00     0.000 HD 
HETATM    3  C5* UNL     1     -10.329   9.355  70.731  1.00  0.00    -0.298 C  
ENDROOT
BRANCH   3   4
HETATM    4  C4* UNL     1      -9.682   9.440  69.351  1.00  0.00    -0.177 C  
HETATM    5  O4* UNL     1      -9.394   8.131  68.823  1.00  0.00    -0.144 OA 
HETATM    6  C1* UNL     1      -9.256   8.319  67.405  1.00  0.00    -0.141 C  
HETATM    7  H3* UNL     1     -10.695  11.929  67.512  1.00  0.00     0.000 HD 
HETATM    8  C2* UNL     1     -10.306   9.360  67.025  1.00  0.00    -0.322 C  
HETATM    9  C3* UNL     1     -10.550  10.135  68.305  1.00  0.00    -0.226 C  
HETATM   10  O3* UNL     1     -10.155  11.497  68.162  1.00  0.00    -0.181 OA 
BRANCH   6  11
HETATM   11  N   UNL     1      -9.369   7.063  66.670  1.00  0.00    -0.160 N  
HETATM   12  C   UNL     1      -8.532   5.561  65.004  1.00  0.00    -0.147 C  
HETATM   13  C   UNL     1      -8.400   6.653  65.768  1.00  0.00    -0.143 C  
HETATM   14  I   UNL     1      -7.119   4.997  63.638  1.00  0.00    -0.052 I  
HETATM   15  C   UNL     1      -9.778   4.759  65.152  1.00  0.00    -0.052 C  
HETATM   16  O   UNL     1     -10.042   3.781  64.461  1.00  0.00    -0.194 OA 
HETATM   17  N   UNL     1     -10.647   5.187  66.120  1.00  0.00    -0.502 N  
HETATM   18  C   UNL     1     -10.539   6.337  66.851  1.00  0.00    -0.305 C  
HETATM   19  H   UNL     1     -11.450   4.590  66.313  1.00  0.00     0.000 HD 
HETATM   20  O   UNL     1     -11.451   6.675  67.603  1.00  0.00    -0.140 OA 
ENDBRANCH   6  11
ENDBRANCH   3   4
TORSDOF 2
ENDMDL
MODEL      208
REMARK 921   NORMALIZED FREE ENERGY PREDICTED BY IDOCK:   -2.64 KCAL/MOL
REMARK 922        TOTAL FREE ENERGY PREDICTED BY IDOCK:   -3.26 KCAL/MOL
REMARK 923 INTER-LIGAND FREE ENERGY PREDICTED BY IDOCK:   -3.05 KCAL/MOL
REMARK 924 INTRA-LIGAND FREE ENERGY PREDICTED BY IDOCK:   -0.22 KCAL/MOL
REMARK 927      BINDING AFFINITY PREDICTED BY RF-SCORE:    0.00 PKD
ROOT
HETATM    1  O5* UNL     1     -11.883  14.842  66.155  1.00  0.00    -0.311 OA 
HETATM    2  H5* UNL     1     -11.990  15.568  66.757  1.00  0.00     0.000 HD 
HETATM    3  C5* UNL     1     -11.103  15.213  65.019  1.00  0.00    -0.419 C  
ENDROOT
BRANCH   3   4
HETATM    4  C4* UNL     1     -10.931  14.045  64.050  1.00  0.00     0.217 C  
HETATM    5  O4* UNL     1      -9.743  13.286  64.346  1.00  0.00    -0.048 OA 
HETATM    6  C1* UNL     1      -9.948  12.009  63.722  1.00  0.00    -0.343 C  
HETATM    7  H3* UNL     1     -13.711  12.692  63.027  1.00  0.00     0.000 HD 
HETATM    8  C2* UNL     1     -11.429  11.692  63.910  1.00  0.00    -0.433 C  
HETATM    9  C3* UNL     1     -12.086  13.047  64.078  1.00  0.00    -0.450 C  
HETATM   10  O3* UNL     1     -12.993  13.312  63.010  1.00  0.00    -0.224 OA 
BRANCH   6  11
HETATM   11  N   UNL     1      -9.047  10.988  64.250  1.00  0.00    -0.149 N  
HETATM   12  C   UNL     1      -7.441  10.294  65.884  1.00  0.00    -0.135 C  
HETATM   13  C   UNL     1      -8.352  11.168  65.436  1.00  0.00     0.096 C  
HETATM   14  I   UNL     1      -6.383  10.597  67.607  1.00  0.00    -0.059 I  
HETATM   15  C   UNL     1      -7.185   9.078  65.064  1.00  0.00    -0.092 C  
HETATM   16  O   UNL     1      -6.329   8.244  65.336  1.00  0.00    -0.048 OA 
HETATM   17  N   UNL     1      -7.970   8.938  63.951  1.00  0.00    -0.145 N  
HETATM   18  C   UNL     1      -8.851   9.861  63.462  1.00  0.00    -0.234 C  
HETATM   19  H   UNL     1      -7.889   8.060  63.438  1.00  0.00     0.000 HD 
HETATM   20  O   UNL     1      -9.406   9.671  62.382  1.00  0.00    -0.271 OA 
ENDBRANCH   6  11
ENDBRANCH   3   4
TORSDOF 2
ENDMDL
MODEL      209
REMARK 921   NORMALIZED FREE ENERGY PREDICTED BY IDOCK:   -2.62 KCAL/MOL
REMARK 922        TOTAL FREE ENERGY PREDICTED BY IDOCK:   -3.24 KCAL/MOL
REMARK 923 INTER-LIGAND FREE ENERGY PREDICTED BY IDOCK:   -3.47 KCAL/MOL
REMARK 924 INTRA-LIGAND FREE ENERGY PREDICTED BY IDOCK:    0.23 KCAL/MOL
REMARK 927      BINDING AFFINITY PREDICTED BY RF-SCORE:    0.00 PKD
ROOT
HETATM    1  O5* UNL     1      -5.438  20.445  64.979  1.00  0.00    -0.164 OA 
HETATM    2  H5* UNL     1      -5.042  20.850  64.217  1.00  0.00     0.000 HD 
HETATM    3  C5* UNL     1      -6.859  20.578  64.964  1.00  0.00    -0.180 C  
ENDROOT
BRANCH   3   4
HETATM    4  C4* UNL     1      -7.497  19.926  66.189  1.00  0.00    -0.311 C  
HETATM    5  O4* UNL     1      -8.126  18.676  65.852  1.00  0.00    -0.483 OA 
HETATM    6  C1* UNL     1      -8.246  17.968  67.097  1.00  0.00    -0.221 C  
HETATM    7  H3* UNL     1      -5.919  20.439  68.991  1.00  0.00     0.000 HD 
HETATM    8  C2* UNL     1      -6.972  18.287  67.874  1.00  0.00    -0.211 C  
HETATM    9  C3* UNL     1      -6.504  19.611  67.305  1.00  0.00    -0.194 C  
HETATM   10  O3* UNL     1      -6.536  20.635  68.297  1.00  0.00    -0.295 OA 
BRANCH   6  11
HETATM   11  N   UNL     1      -8.481  16.540  66.897  1.00  0.00    -0.193 N  
HETATM   12  C   UNL     1      -7.915  14.265  67.380  1.00  0.00    -0.192 C  
HETATM   13  C   UNL     1      -7.795  15.578  67.621  1.00  0.00    -0.155 C  
HETATM   14  I   UNL     1      -6.857  12.857  68.418  1.00  0.00    -0.135 I  
HETATM   15  C   UNL     1      -8.838  13.841  66.291  1.00  0.00     0.253 C  
HETATM   16  O   UNL     1      -8.978  12.677  65.935  1.00  0.00     0.084 OA 
HETATM   17  N   UNL     1      -9.535  14.848  65.681  1.00  0.00    -0.486 N  
HETATM   18  C   UNL     1      -9.363  16.190  65.883  1.00  0.00    -0.281 C  
HETATM   19  H   UNL     1     -10.252  14.571  65.011  1.00  0.00     0.000 HD 
HETATM   20  O   UNL     1      -9.963  17.000  65.181  1.00  0.00    -0.310 OA 
ENDBRANCH   6  11
ENDBRANCH   3   4
TORSDOF 2
ENDMDL
MODEL      210
REMARK 921   NORMALIZED FREE ENERGY PREDICTED BY IDOCK:   -2.62 KCAL/MOL
REMARK 922        TOTAL FREE ENERGY PREDICTED BY IDOCK:   -3.24 KCAL/MOL
REMARK 923 INTER-LIGAND FREE ENERGY PREDICTED BY IDOCK:   -3.15 KCAL/MOL
REMARK 924 INTRA-LIGAND FREE ENERGY PREDICTED BY IDOCK:   -0.09 KCAL/MOL
REMARK 927      BINDING AFFINITY PREDICTED BY RF-SCORE:    0.00 PKD
ROOT
HETATM    1  O5* UNL     1      -9.184  12.681  68.804  1.00  0.00    -0.397 OA 
HETATM    2  H5* UNL     1      -8.578  13.409  68.732  1.00  0.00     0.000 HD 
HETATM    3  C5* UNL     1      -9.046  11.774  67.711  1.00  0.00    -0.178 C  
ENDROOT
BRANCH   3   4
HETATM    4  C4* UNL     1     -10.021  10.604  67.826  1.00  0.00    -0.167 C  
HETATM    5  O4* UNL     1      -9.697   9.556  66.893  1.00  0.00    -0.162 OA 
HETATM    6  C1* UNL     1     -10.340   8.380  67.410  1.00  0.00    -0.285 C  
HETATM    7  H3* UNL     1     -11.139  10.042  70.833  1.00  0.00     0.000 HD 
HETATM    8  C2* UNL     1     -10.199   8.468  68.927  1.00  0.00    -0.221 C  
HETATM    9  C3* UNL     1     -10.037   9.950  69.205  1.00  0.00    -0.203 C  
HETATM   10  O3* UNL     1     -11.128  10.449  69.975  1.00  0.00    -0.272 OA 
BRANCH   6  11
HETATM   11  N   UNL     1      -9.795   7.155  66.831  1.00  0.00    -0.194 N  
HETATM   12  C   UNL     1      -8.330   6.079  65.273  1.00  0.00    -0.148 C  
HETATM   13  C   UNL     1      -8.772   7.180  65.897  1.00  0.00    -0.130 C  
HETATM   14  I   UNL     1      -6.856   6.135  63.857  1.00  0.00    -0.044 I  
HETATM   15  C   UNL     1      -8.973   4.782  65.619  1.00  0.00    -0.142 C  
HETATM   16  O   UNL     1      -8.703   3.721  65.067  1.00  0.00    -0.111 OA 
HETATM   17  N   UNL     1      -9.919   4.834  66.607  1.00  0.00    -0.212 N  
HETATM   18  C   UNL     1     -10.413   5.965  67.195  1.00  0.00    -0.272 C  
HETATM   19  H   UNL     1     -10.291   3.943  66.936  1.00  0.00     0.000 HD 
HETATM   20  O   UNL     1     -11.353   5.890  67.982  1.00  0.00    -0.012 OA 
ENDBRANCH   6  11
ENDBRANCH   3   4
TORSDOF 2
ENDMDL
MODEL      211
REMARK 921   NORMALIZED FREE ENERGY PREDICTED BY IDOCK:   -2.60 KCAL/MOL
REMARK 922        TOTAL FREE ENERGY PREDICTED BY IDOCK:   -3.22 KCAL/MOL
REMARK 923 INTER-LIGAND FREE ENERGY PREDICTED BY IDOCK:   -2.83 KCAL/MOL
REMARK 924 INTRA-LIGAND FREE ENERGY PREDICTED BY IDOCK:   -0.39 KCAL/MOL
REMARK 927      BINDING AFFINITY PREDICTED BY RF-SCORE:    0.00 PKD
ROOT
HETATM    1  O5* UNL     1      -9.261  11.124  69.264  1.00  0.00    -0.397 OA 
HETATM    2  H5* UNL     1      -9.090  11.919  69.755  1.00  0.00     0.000 HD 
HETATM    3  C5* UNL     1      -8.507  10.023  69.770  1.00  0.00    -0.172 C  
ENDROOT
BRANCH   3   4
HETATM    4  C4* UNL     1      -8.782   8.745  68.981  1.00  0.00    -0.133 C  
HETATM    5  O4* UNL     1      -8.429   7.572  69.739  1.00  0.00    -0.132 OA 
HETATM    6  C1* UNL     1      -9.153   6.495  69.124  1.00  0.00    -0.136 C  
HETATM    7  H3* UNL     1     -11.363   8.885  67.000  1.00  0.00     0.000 HD 
HETATM    8  C2* UNL     1     -10.506   7.080  68.731  1.00  0.00    -0.222 C  
HETATM    9  C3* UNL     1     -10.246   8.567  68.588  1.00  0.00    -0.197 C  
HETATM   10  O3* UNL     1     -10.452   8.996  67.244  1.00  0.00    -0.261 OA 
BRANCH   6  11
HETATM   11  N   UNL     1      -9.239   5.324  69.992  1.00  0.00    -0.133 N  
HETATM   12  C   UNL     1      -9.048   4.347  72.170  1.00  0.00    -0.121 C  
HETATM   13  C   UNL     1      -9.081   5.418  71.366  1.00  0.00    -0.145 C  
HETATM   14  I   UNL     1      -8.761   4.496  74.189  1.00  0.00    -0.101 I  
HETATM   15  C   UNL     1      -9.200   3.005  71.542  1.00  0.00    -0.115 C  
HETATM   16  O   UNL     1      -9.119   1.952  72.163  1.00  0.00    -0.071 OA 
HETATM   17  N   UNL     1      -9.431   3.005  70.193  1.00  0.00    -0.158 N  
HETATM   18  C   UNL     1      -9.399   4.094  69.367  1.00  0.00    -0.168 C  
HETATM   19  H   UNL     1      -9.648   2.106  69.763  1.00  0.00     0.000 HD 
HETATM   20  O   UNL     1      -9.498   3.947  68.150  1.00  0.00    -0.166 OA 
ENDBRANCH   6  11
ENDBRANCH   3   4
TORSDOF 2
ENDMDL
MODEL      212
REMARK 921   NORMALIZED FREE ENERGY PREDICTED BY IDOCK:   -2.57 KCAL/MOL
REMARK 922        TOTAL FREE ENERGY PREDICTED BY IDOCK:   -3.19 KCAL/MOL
REMARK 923 INTER-LIGAND FREE ENERGY PREDICTED BY IDOCK:   -3.44 KCAL/MOL
REMARK 924 INTRA-LIGAND FREE ENERGY PREDICTED BY IDOCK:    0.25 KCAL/MOL
REMARK 927      BINDING AFFINITY PREDICTED BY RF-SCORE:    0.00 PKD
ROOT
HETATM    1  O5* UNL     1     -11.484  12.091  70.318  1.00  0.00    -0.515 OA 
HETATM    2  H5* UNL     1     -11.780  12.978  70.483  1.00  0.00     0.000 HD 
HETATM    3  C5* UNL     1     -12.302  11.131  70.986  1.00  0.00    -0.382 C  
ENDROOT
BRANCH   3   4
HETATM    4  C4* UNL     1     -11.824   9.705  70.720  1.00  0.00    -0.300 C  
HETATM    5  O4* UNL     1     -11.452   9.524  69.341  1.00  0.00    -0.027 OA 
HETATM    6  C1* UNL     1     -10.605   8.363  69.330  1.00  0.00    -0.182 C  
HETATM    7  H3* UNL     1     -10.247   8.303  73.200  1.00  0.00     0.000 HD 
HETATM    8  C2* UNL     1      -9.770   8.452  70.604  1.00  0.00    -0.203 C  
HETATM    9  C3* UNL     1     -10.604   9.301  71.543  1.00  0.00    -0.335 C  
HETATM   10  O3* UNL     1     -11.006   8.554  72.688  1.00  0.00    -0.315 OA 
BRANCH   6  11
HETATM   11  N   UNL     1      -9.816   8.270  68.105  1.00  0.00    -0.166 N  
HETATM   12  C   UNL     1      -8.805   6.935  66.393  1.00  0.00    -0.145 C  
HETATM   13  C   UNL     1      -9.612   7.063  67.455  1.00  0.00    -0.130 C  
HETATM   14  I   UNL     1      -8.471   5.138  65.477  1.00  0.00    -0.149 I  
HETATM   15  C   UNL     1      -8.114   8.157  65.898  1.00  0.00    -0.115 C  
HETATM   16  O   UNL     1      -7.301   8.152  64.980  1.00  0.00    -0.077 OA 
HETATM   17  N   UNL     1      -8.431   9.321  66.545  1.00  0.00    -0.125 N  
HETATM   18  C   UNL     1      -9.203   9.437  67.668  1.00  0.00    -0.127 C  
HETATM   19  H   UNL     1      -8.055  10.183  66.152  1.00  0.00     0.000 HD 
HETATM   20  O   UNL     1      -9.312  10.525  68.230  1.00  0.00    -0.147 OA 
ENDBRANCH   6  11
ENDBRANCH   3   4
TORSDOF 2
ENDMDL
MODEL      213
REMARK 921   NORMALIZED FREE ENERGY PREDICTED BY IDOCK:   -2.54 KCAL/MOL
REMARK 922        TOTAL FREE ENERGY PREDICTED BY IDOCK:   -3.16 KCAL/MOL
REMARK 923 INTER-LIGAND FREE ENERGY PREDICTED BY IDOCK:   -3.26 KCAL/MOL
REMARK 924 INTRA-LIGAND FREE ENERGY PREDICTED BY IDOCK:    0.10 KCAL/MOL
REMARK 927      BINDING AFFINITY PREDICTED BY RF-SCORE:    0.00 PKD
ROOT
HETATM    1  O5* UNL     1      -5.938  15.000  69.224  1.00  0.00    -0.100 OA 
HETATM    2  H5* UNL     1      -5.735  15.910  69.402  1.00  0.00     0.000 HD 
HETATM    3  C5* UNL     1      -7.346  14.766  69.230  1.00  0.00    -0.168 C  
ENDROOT
BRANCH   3   4
HETATM    4  C4* UNL     1      -7.673  13.302  68.943  1.00  0.00     0.065 C  
HETATM    5  O4* UNL     1      -8.862  13.176  68.141  1.00  0.00    -0.185 OA 
HETATM    6  C1* UNL     1      -8.787  11.865  67.560  1.00  0.00    -0.169 C  
HETATM    7  H3* UNL     1      -5.081  11.356  68.620  1.00  0.00     0.000 HD 
HETATM    8  C2* UNL     1      -7.312  11.645  67.231  1.00  0.00    -0.136 C  
HETATM    9  C3* UNL     1      -6.573  12.563  68.185  1.00  0.00    -0.077 C  
HETATM   10  O3* UNL     1      -5.766  11.816  69.091  1.00  0.00    -0.054 OA 
BRANCH   6  11
HETATM   11  N   UNL     1      -9.681  11.718  66.414  1.00  0.00    -0.209 N  
HETATM   12  C   UNL     1     -10.028  11.092  64.130  1.00  0.00    -0.329 C  
HETATM   13  C   UNL     1      -9.261  11.139  65.227  1.00  0.00    -0.198 C  
HETATM   14  I   UNL     1      -9.378  10.282  62.368  1.00  0.00    -0.056 I  
HETATM   15  C   UNL     1     -11.392  11.683  64.212  1.00  0.00    -0.284 C  
HETATM   16  O   UNL     1     -12.157  11.760  63.257  1.00  0.00    -0.452 OA 
HETATM   17  N   UNL     1     -11.757  12.162  65.441  1.00  0.00    -0.352 N  
HETATM   18  C   UNL     1     -10.950  12.269  66.540  1.00  0.00    -0.279 C  
HETATM   19  H   UNL     1     -12.723  12.469  65.547  1.00  0.00     0.000 HD 
HETATM   20  O   UNL     1     -11.359  12.833  67.552  1.00  0.00    -0.276 OA 
ENDBRANCH   6  11
ENDBRANCH   3   4
TORSDOF 2
ENDMDL
MODEL      214
REMARK 921   NORMALIZED FREE ENERGY PREDICTED BY IDOCK:   -2.54 KCAL/MOL
REMARK 922        TOTAL FREE ENERGY PREDICTED BY IDOCK:   -3.15 KCAL/MOL
REMARK 923 INTER-LIGAND FREE ENERGY PREDICTED BY IDOCK:   -3.33 KCAL/MOL
REMARK 924 INTRA-LIGAND FREE ENERGY PREDICTED BY IDOCK:    0.18 KCAL/MOL
REMARK 927      BINDING AFFINITY PREDICTED BY RF-SCORE:    0.00 PKD
ROOT
HETATM    1  O5* UNL     1      -7.728   6.492  73.360  1.00  0.00    -0.093 OA 
HETATM    2  H5* UNL     1      -7.107   6.362  74.067  1.00  0.00     0.000 HD 
HETATM    3  C5* UNL     1      -8.446   7.716  73.511  1.00  0.00    -0.186 C  
ENDROOT
BRANCH   3   4
HETATM    4  C4* UNL     1      -9.444   7.925  72.374  1.00  0.00    -0.192 C  
HETATM    5  O4* UNL     1      -9.346   9.253  71.825  1.00  0.00    -0.309 OA 
HETATM    6  C1* UNL     1      -9.947   9.167  70.524  1.00  0.00    -0.235 C  
HETATM    7  H3* UNL     1     -10.040   5.281  70.569  1.00  0.00     0.000 HD 
HETATM    8  C2* UNL     1      -9.535   7.806  69.970  1.00  0.00    -0.161 C  
HETATM    9  C3* UNL     1      -9.250   6.969  71.201  1.00  0.00    -0.157 C  
HETATM   10  O3* UNL     1     -10.161   5.877  71.299  1.00  0.00    -0.186 OA 
BRANCH   6  11
HETATM   11  N   UNL     1      -9.578  10.294  69.672  1.00  0.00    -0.198 N  
HETATM   12  C   UNL     1     -10.161  11.885  67.980  1.00  0.00    -0.192 C  
HETATM   13  C   UNL     1     -10.499  10.922  68.848  1.00  0.00    -0.203 C  
HETATM   14  I   UNL     1     -11.520  12.766  66.732  1.00  0.00    -0.449 I  
HETATM   15  C   UNL     1      -8.730  12.292  67.919  1.00  0.00    -0.177 C  
HETATM   16  O   UNL     1      -8.290  13.111  67.120  1.00  0.00    -0.181 OA 
HETATM   17  N   UNL     1      -7.901  11.680  68.821  1.00  0.00    -0.241 N  
HETATM   18  C   UNL     1      -8.236  10.652  69.659  1.00  0.00     0.064 C  
HETATM   19  H   UNL     1      -6.943  12.023  68.872  1.00  0.00     0.000 HD 
HETATM   20  O   UNL     1      -7.369  10.101  70.334  1.00  0.00    -0.235 OA 
ENDBRANCH   6  11
ENDBRANCH   3   4
TORSDOF 2
ENDMDL
MODEL      215
REMARK 921   NORMALIZED FREE ENERGY PREDICTED BY IDOCK:   -2.51 KCAL/MOL
REMARK 922        TOTAL FREE ENERGY PREDICTED BY IDOCK:   -3.12 KCAL/MOL
REMARK 923 INTER-LIGAND FREE ENERGY PREDICTED BY IDOCK:   -2.80 KCAL/MOL
REMARK 924 INTRA-LIGAND FREE ENERGY PREDICTED BY IDOCK:   -0.33 KCAL/MOL
REMARK 927      BINDING AFFINITY PREDICTED BY RF-SCORE:    0.00 PKD
ROOT
HETATM    1  O5* UNL     1     -10.644  10.270  66.041  1.00  0.00    -0.157 OA 
HETATM    2  H5* UNL     1     -11.167  10.834  65.483  1.00  0.00     0.000 HD 
HETATM    3  C5* UNL     1      -9.512   9.748  65.346  1.00  0.00    -0.269 C  
ENDROOT
BRANCH   3   4
HETATM    4  C4* UNL     1      -8.673   8.841  66.242  1.00  0.00    -0.147 C  
HETATM    5  O4* UNL     1      -8.939   9.086  67.636  1.00  0.00    -0.124 OA 
HETATM    6  C1* UNL     1      -8.488   7.906  68.319  1.00  0.00    -0.124 C  
HETATM    7  H3* UNL     1      -8.083   5.877  65.027  1.00  0.00     0.000 HD 
HETATM    8  C2* UNL     1      -8.853   6.738  67.405  1.00  0.00    -0.117 C  
HETATM    9  C3* UNL     1      -8.925   7.352  66.021  1.00  0.00    -0.121 C  
HETATM   10  O3* UNL     1      -7.926   6.804  65.165  1.00  0.00    -0.116 OA 
BRANCH   6  11
HETATM   11  N   UNL     1      -9.042   7.804  69.666  1.00  0.00    -0.146 N  
HETATM   12  C   UNL     1     -10.930   7.504  71.108  1.00  0.00    -0.246 C  
HETATM   13  C   UNL     1     -10.375   7.497  69.888  1.00  0.00    -0.223 C  
HETATM   14  I   UNL     1     -12.910   7.102  71.417  1.00  0.00    -0.189 I  
HETATM   15  C   UNL     1     -10.057   7.849  72.263  1.00  0.00    -0.236 C  
HETATM   16  O   UNL     1     -10.465   7.955  73.415  1.00  0.00    -0.301 OA 
HETATM   17  N   UNL     1      -8.737   8.061  71.967  1.00  0.00    -0.133 N  
HETATM   18  C   UNL     1      -8.188   8.117  70.716  1.00  0.00    -0.111 C  
HETATM   19  H   UNL     1      -8.103   8.188  72.755  1.00  0.00     0.000 HD 
HETATM   20  O   UNL     1      -7.011   8.440  70.575  1.00  0.00    -0.036 OA 
ENDBRANCH   6  11
ENDBRANCH   3   4
TORSDOF 2
ENDMDL
MODEL      216
REMARK 921   NORMALIZED FREE ENERGY PREDICTED BY IDOCK:   -2.50 KCAL/MOL
REMARK 922        TOTAL FREE ENERGY PREDICTED BY IDOCK:   -3.11 KCAL/MOL
REMARK 923 INTER-LIGAND FREE ENERGY PREDICTED BY IDOCK:   -2.81 KCAL/MOL
REMARK 924 INTRA-LIGAND FREE ENERGY PREDICTED BY IDOCK:   -0.30 KCAL/MOL
REMARK 927      BINDING AFFINITY PREDICTED BY RF-SCORE:    0.00 PKD
ROOT
HETATM    1  O5* UNL     1      -9.287   3.356  67.526  1.00  0.00    -0.183 OA 
HETATM    2  H5* UNL     1      -9.607   2.463  67.508  1.00  0.00     0.000 HD 
HETATM    3  C5* UNL     1      -8.244   3.521  68.486  1.00  0.00    -0.073 C  
ENDROOT
BRANCH   3   4
HETATM    4  C4* UNL     1      -7.729   4.959  68.514  1.00  0.00    -0.078 C  
HETATM    5  O4* UNL     1      -8.812   5.903  68.606  1.00  0.00    -0.112 OA 
HETATM    6  C1* UNL     1      -8.215   7.114  69.096  1.00  0.00    -0.122 C  
HETATM    7  H3* UNL     1      -4.870   5.361  70.021  1.00  0.00     0.000 HD 
HETATM    8  C2* UNL     1      -7.165   6.671  70.112  1.00  0.00    -0.080 C  
HETATM    9  C3* UNL     1      -6.807   5.259  69.693  1.00  0.00    -0.056 C  
HETATM   10  O3* UNL     1      -5.444   5.174  69.287  1.00  0.00    -0.007 OA 
BRANCH   6  11
HETATM   11  N   UNL     1      -9.209   8.040  69.632  1.00  0.00    -0.152 N  
HETATM   12  C   UNL     1     -11.285   8.417  70.763  1.00  0.00    -0.263 C  
HETATM   13  C   UNL     1     -10.305   7.599  70.356  1.00  0.00    -0.214 C  
HETATM   14  I   UNL     1     -12.924   7.746  71.784  1.00  0.00    -0.239 I  
HETATM   15  C   UNL     1     -11.167   9.862  70.423  1.00  0.00    -0.313 C  
HETATM   16  O   UNL     1     -12.030  10.693  70.681  1.00  0.00    -0.307 OA 
HETATM   17  N   UNL     1     -10.017  10.227  69.777  1.00  0.00    -0.361 N  
HETATM   18  C   UNL     1      -9.051   9.381  69.305  1.00  0.00    -0.152 C  
HETATM   19  H   UNL     1      -9.866  11.225  69.633  1.00  0.00     0.000 HD 
HETATM   20  O   UNL     1      -8.124   9.821  68.629  1.00  0.00    -0.100 OA 
ENDBRANCH   6  11
ENDBRANCH   3   4
TORSDOF 2
ENDMDL
MODEL      217
REMARK 921   NORMALIZED FREE ENERGY PREDICTED BY IDOCK:   -2.50 KCAL/MOL
REMARK 922        TOTAL FREE ENERGY PREDICTED BY IDOCK:   -3.11 KCAL/MOL
REMARK 923 INTER-LIGAND FREE ENERGY PREDICTED BY IDOCK:   -3.50 KCAL/MOL
REMARK 924 INTRA-LIGAND FREE ENERGY PREDICTED BY IDOCK:    0.39 KCAL/MOL
REMARK 927      BINDING AFFINITY PREDICTED BY RF-SCORE:    0.00 PKD
ROOT
HETATM    1  O5* UNL     1      -8.074  20.162  65.719  1.00  0.00    -0.510 OA 
HETATM    2  H5* UNL     1      -8.648  20.660  65.149  1.00  0.00     0.000 HD 
HETATM    3  C5* UNL     1      -8.805  19.235  66.520  1.00  0.00    -0.346 C  
ENDROOT
BRANCH   3   4
HETATM    4  C4* UNL     1      -7.882  18.435  67.437  1.00  0.00    -0.234 C  
HETATM    5  O4* UNL     1      -8.385  17.104  67.659  1.00  0.00    -0.189 OA 
HETATM    6  C1* UNL     1      -7.250  16.342  68.100  1.00  0.00    -0.142 C  
HETATM    7  H3* UNL     1      -4.714  19.122  67.129  1.00  0.00     0.000 HD 
HETATM    8  C2* UNL     1      -6.067  16.857  67.285  1.00  0.00    -0.195 C  
HETATM    9  C3* UNL     1      -6.467  18.264  66.888  1.00  0.00    -0.179 C  
HETATM   10  O3* UNL     1      -5.594  19.228  67.470  1.00  0.00    -0.173 OA 
BRANCH   6  11
HETATM   11  N   UNL     1      -7.475  14.903  67.982  1.00  0.00    -0.114 N  
HETATM   12  C   UNL     1      -6.843  12.661  68.533  1.00  0.00    -0.090 C  
HETATM   13  C   UNL     1      -6.729  13.985  68.704  1.00  0.00    -0.096 C  
HETATM   14  I   UNL     1      -5.700  11.317  69.566  1.00  0.00    -0.094 I  
HETATM   15  C   UNL     1      -7.824  12.174  67.525  1.00  0.00    -0.162 C  
HETATM   16  O   UNL     1      -7.968  10.993  67.232  1.00  0.00    -0.118 OA 
HETATM   17  N   UNL     1      -8.575  13.142  66.913  1.00  0.00    -0.381 N  
HETATM   18  C   UNL     1      -8.412  14.494  67.042  1.00  0.00    -0.196 C  
HETATM   19  H   UNL     1      -9.328  12.824  66.303  1.00  0.00     0.000 HD 
HETATM   20  O   UNL     1      -9.068  15.262  66.343  1.00  0.00    -0.276 OA 
ENDBRANCH   6  11
ENDBRANCH   3   4
TORSDOF 2
ENDMDL
MODEL      218
REMARK 921   NORMALIZED FREE ENERGY PREDICTED BY IDOCK:   -2.49 KCAL/MOL
REMARK 922        TOTAL FREE ENERGY PREDICTED BY IDOCK:   -3.10 KCAL/MOL
REMARK 923 INTER-LIGAND FREE ENERGY PREDICTED BY IDOCK:   -3.59 KCAL/MOL
REMARK 924 INTRA-LIGAND FREE ENERGY PREDICTED BY IDOCK:    0.49 KCAL/MOL
REMARK 927      BINDING AFFINITY PREDICTED BY RF-SCORE:    0.00 PKD
ROOT
HETATM    1  O5* UNL     1     -12.249   8.449  72.721  1.00  0.00    -0.539 OA 
HETATM    2  H5* UNL     1     -12.548   9.320  72.954  1.00  0.00     0.000 HD 
HETATM    3  C5* UNL     1     -12.692   8.073  71.418  1.00  0.00    -0.280 C  
ENDROOT
BRANCH   3   4
HETATM    4  C4* UNL     1     -12.210   6.672  71.044  1.00  0.00    -0.286 C  
HETATM    5  O4* UNL     1     -11.567   6.664  69.756  1.00  0.00    -0.351 OA 
HETATM    6  C1* UNL     1     -10.769   5.469  69.742  1.00  0.00    -0.285 C  
HETATM    7  H3* UNL     1     -11.217   4.849  73.553  1.00  0.00     0.000 HD 
HETATM    8  C2* UNL     1     -10.212   5.331  71.156  1.00  0.00    -0.294 C  
HETATM    9  C3* UNL     1     -11.197   6.088  72.025  1.00  0.00    -0.288 C  
HETATM   10  O3* UNL     1     -11.848   5.213  72.943  1.00  0.00    -0.256 OA 
BRANCH   6  11
HETATM   11  N   UNL     1      -9.747   5.502  68.699  1.00  0.00    -0.134 N  
HETATM   12  C   UNL     1      -7.576   4.870  67.912  1.00  0.00    -0.083 C  
HETATM   13  C   UNL     1      -8.573   4.772  68.801  1.00  0.00    -0.088 C  
HETATM   14  I   UNL     1      -5.827   3.828  68.102  1.00  0.00    -0.029 I  
HETATM   15  C   UNL     1      -7.760   5.801  66.765  1.00  0.00    -0.100 C  
HETATM   16  O   UNL     1      -6.894   6.026  65.927  1.00  0.00    -0.054 OA 
HETATM   17  N   UNL     1      -8.978   6.423  66.695  1.00  0.00    -0.135 N  
HETATM   18  C   UNL     1      -9.967   6.371  67.638  1.00  0.00    -0.126 C  
HETATM   19  H   UNL     1      -9.165   6.977  65.860  1.00  0.00     0.000 HD 
HETATM   20  O   UNL     1     -10.967   7.076  67.520  1.00  0.00    -0.262 OA 
ENDBRANCH   6  11
ENDBRANCH   3   4
TORSDOF 2
ENDMDL
MODEL      219
REMARK 921   NORMALIZED FREE ENERGY PREDICTED BY IDOCK:   -2.48 KCAL/MOL
REMARK 922        TOTAL FREE ENERGY PREDICTED BY IDOCK:   -3.08 KCAL/MOL
REMARK 923 INTER-LIGAND FREE ENERGY PREDICTED BY IDOCK:   -3.24 KCAL/MOL
REMARK 924 INTRA-LIGAND FREE ENERGY PREDICTED BY IDOCK:    0.15 KCAL/MOL
REMARK 927      BINDING AFFINITY PREDICTED BY RF-SCORE:    0.00 PKD
ROOT
HETATM    1  O5* UNL     1      -7.669   7.176  73.823  1.00  0.00    -0.101 OA 
HETATM    2  H5* UNL     1      -6.848   7.171  74.300  1.00  0.00     0.000 HD 
HETATM    3  C5* UNL     1      -8.707   6.527  74.556  1.00  0.00    -0.157 C  
ENDROOT
BRANCH   3   4
HETATM    4  C4* UNL     1     -10.027   6.536  73.788  1.00  0.00    -0.254 C  
HETATM    5  O4* UNL     1      -9.963   7.406  72.642  1.00  0.00    -0.172 OA 
HETATM    6  C1* UNL     1     -11.026   6.971  71.780  1.00  0.00    -0.234 C  
HETATM    7  H3* UNL     1     -11.638   3.706  73.799  1.00  0.00     0.000 HD 
HETATM    8  C2* UNL     1     -11.055   5.449  71.899  1.00  0.00    -0.179 C  
HETATM    9  C3* UNL     1     -10.438   5.166  73.254  1.00  0.00    -0.218 C  
HETATM   10  O3* UNL     1     -11.383   4.558  74.131  1.00  0.00    -0.184 OA 
BRANCH   6  11
HETATM   11  N   UNL     1     -10.860   7.458  70.413  1.00  0.00    -0.239 N  
HETATM   12  C   UNL     1     -10.667   7.013  68.069  1.00  0.00    -0.194 C  
HETATM   13  C   UNL     1     -10.923   6.608  69.320  1.00  0.00    -0.295 C  
HETATM   14  I   UNL     1     -10.710   5.738  66.471  1.00  0.00     0.160 I  
HETATM   15  C   UNL     1     -10.313   8.444  67.862  1.00  0.00    -0.221 C  
HETATM   16  O   UNL     1      -9.993   8.914  66.776  1.00  0.00    -0.219 OA 
HETATM   17  N   UNL     1     -10.352   9.232  68.981  1.00  0.00    -0.210 N  
HETATM   18  C   UNL     1     -10.548   8.803  70.265  1.00  0.00    -0.216 C  
HETATM   19  H   UNL     1     -10.221  10.233  68.844  1.00  0.00     0.000 HD 
HETATM   20  O   UNL     1     -10.436   9.592  71.201  1.00  0.00    -0.307 OA 
ENDBRANCH   6  11
ENDBRANCH   3   4
TORSDOF 2
ENDMDL
MODEL      220
REMARK 921   NORMALIZED FREE ENERGY PREDICTED BY IDOCK:   -2.47 KCAL/MOL
REMARK 922        TOTAL FREE ENERGY PREDICTED BY IDOCK:   -3.08 KCAL/MOL
REMARK 923 INTER-LIGAND FREE ENERGY PREDICTED BY IDOCK:   -2.79 KCAL/MOL
REMARK 924 INTRA-LIGAND FREE ENERGY PREDICTED BY IDOCK:   -0.30 KCAL/MOL
REMARK 927      BINDING AFFINITY PREDICTED BY RF-SCORE:    0.00 PKD
ROOT
HETATM    1  O5* UNL     1     -10.721   6.913  66.803  1.00  0.00    -0.451 OA 
HETATM    2  H5* UNL     1     -10.843   6.201  67.419  1.00  0.00     0.000 HD 
HETATM    3  C5* UNL     1      -9.351   7.306  66.721  1.00  0.00    -0.163 C  
ENDROOT
BRANCH   3   4
HETATM    4  C4* UNL     1      -9.154   8.451  65.729  1.00  0.00    -0.139 C  
HETATM    5  O4* UNL     1      -9.372   9.731  66.353  1.00  0.00    -0.155 OA 
HETATM    6  C1* UNL     1      -8.712  10.681  65.502  1.00  0.00    -0.188 C  
HETATM    7  H3* UNL     1      -6.870   7.928  63.468  1.00  0.00     0.000 HD 
HETATM    8  C2* UNL     1      -7.439   9.989  65.023  1.00  0.00    -0.139 C  
HETATM    9  C3* UNL     1      -7.753   8.509  65.127  1.00  0.00    -0.102 C  
HETATM   10  O3* UNL     1      -7.742   7.892  63.842  1.00  0.00    -0.123 OA 
BRANCH   6  11
HETATM   11  N   UNL     1      -8.480  11.955  66.177  1.00  0.00     0.023 N  
HETATM   12  C   UNL     1      -7.313  13.237  67.829  1.00  0.00    -0.147 C  
HETATM   13  C   UNL     1      -7.476  12.112  67.120  1.00  0.00    -0.129 C  
HETATM   14  I   UNL     1      -5.863  13.437  69.255  1.00  0.00    -0.106 I  
HETATM   15  C   UNL     1      -8.255  14.361  67.570  1.00  0.00    -0.188 C  
HETATM   16  O   UNL     1      -8.249  15.411  68.202  1.00  0.00    -0.139 OA 
HETATM   17  N   UNL     1      -9.165  14.153  66.569  1.00  0.00    -0.408 N  
HETATM   18  C   UNL     1      -9.371  12.982  65.893  1.00  0.00     0.065 C  
HETATM   19  H   UNL     1      -9.745  14.948  66.301  1.00  0.00     0.000 HD 
HETATM   20  O   UNL     1     -10.305  12.885  65.101  1.00  0.00    -0.294 OA 
ENDBRANCH   6  11
ENDBRANCH   3   4
TORSDOF 2
ENDMDL
MODEL      221
REMARK 921   NORMALIZED FREE ENERGY PREDICTED BY IDOCK:   -2.47 KCAL/MOL
REMARK 922        TOTAL FREE ENERGY PREDICTED BY IDOCK:   -3.07 KCAL/MOL
REMARK 923 INTER-LIGAND FREE ENERGY PREDICTED BY IDOCK:   -2.63 KCAL/MOL
REMARK 924 INTRA-LIGAND FREE ENERGY PREDICTED BY IDOCK:   -0.44 KCAL/MOL
REMARK 927      BINDING AFFINITY PREDICTED BY RF-SCORE:    0.00 PKD
ROOT
HETATM    1  O5* UNL     1     -12.608  10.344  69.797  1.00  0.00    -0.561 OA 
HETATM    2  H5* UNL     1     -13.222   9.680  70.088  1.00  0.00     0.000 HD 
HETATM    3  C5* UNL     1     -11.418   9.763  69.265  1.00  0.00     0.072 C  
ENDROOT
BRANCH   3   4
HETATM    4  C4* UNL     1     -10.432  10.831  68.799  1.00  0.00    -0.199 C  
HETATM    5  O4* UNL     1      -9.284  10.243  68.158  1.00  0.00    -0.134 OA 
HETATM    6  C1* UNL     1      -8.710  11.300  67.372  1.00  0.00    -0.139 C  
HETATM    7  H3* UNL     1     -11.795  13.622  67.819  1.00  0.00     0.000 HD 
HETATM    8  C2* UNL     1      -9.893  12.086  66.813  1.00  0.00    -0.218 C  
HETATM    9  C3* UNL     1     -11.020  11.814  67.789  1.00  0.00    -0.225 C  
HETATM   10  O3* UNL     1     -11.429  13.010  68.447  1.00  0.00    -0.266 OA 
BRANCH   6  11
HETATM   11  N   UNL     1      -7.796  10.792  66.352  1.00  0.00    -0.143 N  
HETATM   12  C   UNL     1      -7.443   9.810  64.197  1.00  0.00    -0.135 C  
HETATM   13  C   UNL     1      -8.245  10.378  65.108  1.00  0.00    -0.158 C  
HETATM   14  I   UNL     1      -8.128   9.154  62.386  1.00  0.00    -0.188 I  
HETATM   15  C   UNL     1      -6.008   9.633  64.552  1.00  0.00    -0.086 C  
HETATM   16  O   UNL     1      -5.195   9.066  63.831  1.00  0.00    -0.058 OA 
HETATM   17  N   UNL     1      -5.631  10.140  65.767  1.00  0.00    -0.061 N  
HETATM   18  C   UNL     1      -6.463  10.660  66.720  1.00  0.00    -0.086 C  
HETATM   19  H   UNL     1      -4.634  10.129  65.981  1.00  0.00     0.000 HD 
HETATM   20  O   UNL     1      -6.018  10.968  67.823  1.00  0.00    -0.046 OA 
ENDBRANCH   6  11
ENDBRANCH   3   4
TORSDOF 2
ENDMDL
MODEL      222
REMARK 921   NORMALIZED FREE ENERGY PREDICTED BY IDOCK:   -2.47 KCAL/MOL
REMARK 922        TOTAL FREE ENERGY PREDICTED BY IDOCK:   -3.07 KCAL/MOL
REMARK 923 INTER-LIGAND FREE ENERGY PREDICTED BY IDOCK:   -2.92 KCAL/MOL
REMARK 924 INTRA-LIGAND FREE ENERGY PREDICTED BY IDOCK:   -0.15 KCAL/MOL
REMARK 927      BINDING AFFINITY PREDICTED BY RF-SCORE:    0.00 PKD
ROOT
HETATM    1  O5* UNL     1      -9.203   6.181  67.021  1.00  0.00    -0.119 OA 
HETATM    2  H5* UNL     1      -9.478   5.281  67.143  1.00  0.00     0.000 HD 
HETATM    3  C5* UNL     1      -7.891   6.403  67.539  1.00  0.00    -0.105 C  
ENDROOT
BRANCH   3   4
HETATM    4  C4* UNL     1      -7.448   7.852  67.343  1.00  0.00    -0.093 C  
HETATM    5  O4* UNL     1      -8.503   8.653  66.778  1.00  0.00    -0.112 OA 
HETATM    6  C1* UNL     1      -8.151  10.010  67.088  1.00  0.00    -0.117 C  
HETATM    7  H3* UNL     1      -5.362   8.962  69.584  1.00  0.00     0.000 HD 
HETATM    8  C2* UNL     1      -7.548   9.969  68.489  1.00  0.00    -0.087 C  
HETATM    9  C3* UNL     1      -7.037   8.550  68.637  1.00  0.00    -0.072 C  
HETATM   10  O3* UNL     1      -5.619   8.528  68.779  1.00  0.00    -0.038 OA 
BRANCH   6  11
HETATM   11  N   UNL     1      -9.289  10.917  66.955  1.00  0.00    -0.163 N  
HETATM   12  C   UNL     1     -11.004  12.244  67.971  1.00  0.00    -0.225 C  
HETATM   13  C   UNL     1      -9.895  11.497  68.059  1.00  0.00    -0.188 C  
HETATM   14  I   UNL     1     -11.919  13.049  69.612  1.00  0.00    -0.147 I  
HETATM   15  C   UNL     1     -11.589  12.458  66.619  1.00  0.00    -0.385 C  
HETATM   16  O   UNL     1     -12.636  13.064  66.420  1.00  0.00    -0.343 OA 
HETATM   17  N   UNL     1     -10.885  11.918  65.576  1.00  0.00    -0.288 N  
HETATM   18  C   UNL     1      -9.792  11.103  65.674  1.00  0.00    -0.235 C  
HETATM   19  H   UNL     1     -11.207  12.147  64.636  1.00  0.00     0.000 HD 
HETATM   20  O   UNL     1      -9.323  10.578  64.667  1.00  0.00    -0.205 OA 
ENDBRANCH   6  11
ENDBRANCH   3   4
TORSDOF 2
ENDMDL
MODEL      223
REMARK 921   NORMALIZED FREE ENERGY PREDICTED BY IDOCK:   -2.45 KCAL/MOL
REMARK 922        TOTAL FREE ENERGY PREDICTED BY IDOCK:   -3.06 KCAL/MOL
REMARK 923 INTER-LIGAND FREE ENERGY PREDICTED BY IDOCK:   -2.89 KCAL/MOL
REMARK 924 INTRA-LIGAND FREE ENERGY PREDICTED BY IDOCK:   -0.17 KCAL/MOL
REMARK 927      BINDING AFFINITY PREDICTED BY RF-SCORE:    0.00 PKD
ROOT
HETATM    1  O5* UNL     1      -7.088   6.887  65.240  1.00  0.00    -0.063 OA 
HETATM    2  H5* UNL     1      -6.426   6.539  64.655  1.00  0.00     0.000 HD 
HETATM    3  C5* UNL     1      -7.728   8.035  64.685  1.00  0.00    -0.126 C  
ENDROOT
BRANCH   3   4
HETATM    4  C4* UNL     1      -8.793   8.594  65.626  1.00  0.00    -0.187 C  
HETATM    5  O4* UNL     1      -9.120   7.655  66.668  1.00  0.00    -0.148 OA 
HETATM    6  C1* UNL     1      -9.725   8.442  67.706  1.00  0.00    -0.162 C  
HETATM    7  H3* UNL     1      -8.650  11.814  66.098  1.00  0.00     0.000 HD 
HETATM    8  C2* UNL     1      -8.950   9.756  67.731  1.00  0.00    -0.132 C  
HETATM    9  C3* UNL     1      -8.374   9.880  66.334  1.00  0.00    -0.125 C  
HETATM   10  O3* UNL     1      -8.911  11.014  65.657  1.00  0.00    -0.189 OA 
BRANCH   6  11
HETATM   11  N   UNL     1      -9.747   7.739  68.986  1.00  0.00    -0.156 N  
HETATM   12  C   UNL     1      -8.856   7.420  71.185  1.00  0.00    -0.142 C  
HETATM   13  C   UNL     1      -8.931   8.114  70.042  1.00  0.00    -0.143 C  
HETATM   14  I   UNL     1      -7.608   7.953  72.714  1.00  0.00    -0.176 I  
HETATM   15  C   UNL     1      -9.701   6.201  71.312  1.00  0.00    -0.175 C  
HETATM   16  O   UNL     1      -9.668   5.449  72.280  1.00  0.00    -0.154 OA 
HETATM   17  N   UNL     1     -10.536   5.946  70.258  1.00  0.00    -0.261 N  
HETATM   18  C   UNL     1     -10.563   6.618  69.067  1.00  0.00    -0.239 C  
HETATM   19  H   UNL     1     -11.202   5.182  70.372  1.00  0.00     0.000 HD 
HETATM   20  O   UNL     1     -11.273   6.213  68.148  1.00  0.00    -0.314 OA 
ENDBRANCH   6  11
ENDBRANCH   3   4
TORSDOF 2
ENDMDL
MODEL      224
REMARK 921   NORMALIZED FREE ENERGY PREDICTED BY IDOCK:   -2.42 KCAL/MOL
REMARK 922        TOTAL FREE ENERGY PREDICTED BY IDOCK:   -3.03 KCAL/MOL
REMARK 923 INTER-LIGAND FREE ENERGY PREDICTED BY IDOCK:   -3.39 KCAL/MOL
REMARK 924 INTRA-LIGAND FREE ENERGY PREDICTED BY IDOCK:    0.36 KCAL/MOL
REMARK 927      BINDING AFFINITY PREDICTED BY RF-SCORE:    0.00 PKD
ROOT
HETATM    1  O5* UNL     1      -8.412  17.508  65.622  1.00  0.00    -0.451 OA 
HETATM    2  H5* UNL     1      -8.017  18.296  65.974  1.00  0.00     0.000 HD 
HETATM    3  C5* UNL     1      -8.310  16.416  66.535  1.00  0.00    -0.302 C  
ENDROOT
BRANCH   3   4
HETATM    4  C4* UNL     1      -8.946  15.148  65.968  1.00  0.00    -0.056 C  
HETATM    5  O4* UNL     1      -8.526  13.978  66.695  1.00  0.00    -0.065 OA 
HETATM    6  C1* UNL     1      -9.515  12.979  66.402  1.00  0.00    -0.224 C  
HETATM    7  H3* UNL     1     -11.954  15.536  64.783  1.00  0.00     0.000 HD 
HETATM    8  C2* UNL     1     -10.847  13.721  66.355  1.00  0.00    -0.287 C  
HETATM    9  C3* UNL     1     -10.471  15.150  66.017  1.00  0.00    -0.319 C  
HETATM   10  O3* UNL     1     -11.005  15.535  64.752  1.00  0.00    -0.428 OA 
BRANCH   6  11
HETATM   11  N   UNL     1      -9.481  11.875  67.358  1.00  0.00    -0.173 N  
HETATM   12  C   UNL     1      -9.892   9.573  67.873  1.00  0.00    -0.156 C  
HETATM   13  C   UNL     1      -9.812  10.580  66.992  1.00  0.00    -0.183 C  
HETATM   14  I   UNL     1     -10.434   7.678  67.330  1.00  0.00    -0.284 I  
HETATM   15  C   UNL     1      -9.600   9.877  69.301  1.00  0.00    -0.205 C  
HETATM   16  O   UNL     1      -9.707   9.057  70.205  1.00  0.00    -0.174 OA 
HETATM   17  N   UNL     1      -9.204  11.161  69.564  1.00  0.00    -0.273 N  
HETATM   18  C   UNL     1      -9.186  12.200  68.675  1.00  0.00    -0.015 C  
HETATM   19  H   UNL     1      -8.892  11.361  70.514  1.00  0.00     0.000 HD 
HETATM   20  O   UNL     1      -8.930  13.338  69.064  1.00  0.00     0.204 OA 
ENDBRANCH   6  11
ENDBRANCH   3   4
TORSDOF 2
ENDMDL
MODEL      225
REMARK 921   NORMALIZED FREE ENERGY PREDICTED BY IDOCK:   -2.42 KCAL/MOL
REMARK 922        TOTAL FREE ENERGY PREDICTED BY IDOCK:   -3.03 KCAL/MOL
REMARK 923 INTER-LIGAND FREE ENERGY PREDICTED BY IDOCK:   -2.73 KCAL/MOL
REMARK 924 INTRA-LIGAND FREE ENERGY PREDICTED BY IDOCK:   -0.30 KCAL/MOL
REMARK 927      BINDING AFFINITY PREDICTED BY RF-SCORE:    0.00 PKD
ROOT
HETATM    1  O5* UNL     1     -11.704   4.692  64.839  1.00  0.00    -0.984 OA 
HETATM    2  H5* UNL     1     -12.456   4.332  64.384  1.00  0.00     0.000 HD 
HETATM    3  C5* UNL     1     -10.646   3.739  64.939  1.00  0.00     0.014 C  
ENDROOT
BRANCH   3   4
HETATM    4  C4* UNL     1      -9.437   4.318  65.671  1.00  0.00    -0.176 C  
HETATM    5  O4* UNL     1      -9.744   4.606  67.048  1.00  0.00    -0.166 OA 
HETATM    6  C1* UNL     1      -8.471   4.672  67.711  1.00  0.00    -0.103 C  
HETATM    7  H3* UNL     1      -6.556   3.166  64.682  1.00  0.00     0.000 HD 
HETATM    8  C2* UNL     1      -7.616   3.584  67.068  1.00  0.00    -0.079 C  
HETATM    9  C3* UNL     1      -8.228   3.386  65.695  1.00  0.00    -0.097 C  
HETATM   10  O3* UNL     1      -7.308   3.745  64.667  1.00  0.00    -0.065 OA 
BRANCH   6  11
HETATM   11  N   UNL     1      -8.600   4.550  69.161  1.00  0.00    -0.082 N  
HETATM   12  C   UNL     1      -9.272   3.282  71.077  1.00  0.00    -0.129 C  
HETATM   13  C   UNL     1      -9.043   3.382  69.761  1.00  0.00    -0.129 C  
HETATM   14  I   UNL     1      -9.977   1.570  71.943  1.00  0.00    -0.140 I  
HETATM   15  C   UNL     1      -9.022   4.486  71.917  1.00  0.00    -0.122 C  
HETATM   16  O   UNL     1      -9.258   4.537  73.119  1.00  0.00    -0.118 OA 
HETATM   17  N   UNL     1      -8.510   5.572  71.259  1.00  0.00    -0.125 N  
HETATM   18  C   UNL     1      -8.340   5.692  69.907  1.00  0.00    -0.117 C  
HETATM   19  H   UNL     1      -8.228   6.367  71.832  1.00  0.00     0.000 HD 
HETATM   20  O   UNL     1      -7.988   6.766  69.424  1.00  0.00    -0.111 OA 
ENDBRANCH   6  11
ENDBRANCH   3   4
TORSDOF 2
ENDMDL
MODEL      226
REMARK 921   NORMALIZED FREE ENERGY PREDICTED BY IDOCK:   -2.42 KCAL/MOL
REMARK 922        TOTAL FREE ENERGY PREDICTED BY IDOCK:   -3.02 KCAL/MOL
REMARK 923 INTER-LIGAND FREE ENERGY PREDICTED BY IDOCK:   -2.67 KCAL/MOL
REMARK 924 INTRA-LIGAND FREE ENERGY PREDICTED BY IDOCK:   -0.35 KCAL/MOL
REMARK 927      BINDING AFFINITY PREDICTED BY RF-SCORE:    0.00 PKD
ROOT
HETATM    1  O5* UNL     1      -7.158  11.523  66.408  1.00  0.00    -0.335 OA 
HETATM    2  H5* UNL     1      -7.276  11.919  65.553  1.00  0.00     0.000 HD 
HETATM    3  C5* UNL     1      -7.783  12.296  67.433  1.00  0.00    -0.165 C  
ENDROOT
BRANCH   3   4
HETATM    4  C4* UNL     1      -7.594  11.660  68.809  1.00  0.00    -0.119 C  
HETATM    5  O4* UNL     1      -8.551  10.610  69.039  1.00  0.00    -0.148 OA 
HETATM    6  C1* UNL     1      -7.987   9.811  70.091  1.00  0.00    -0.186 C  
HETATM    7  H3* UNL     1      -4.509  11.530  69.846  1.00  0.00     0.000 HD 
HETATM    8  C2* UNL     1      -6.486   9.774  69.820  1.00  0.00    -0.053 C  
HETATM    9  C3* UNL     1      -6.219  11.029  69.011  1.00  0.00    -0.045 C  
HETATM   10  O3* UNL     1      -5.365  11.923  69.720  1.00  0.00    -0.070 OA 
BRANCH   6  11
HETATM   11  N   UNL     1      -8.610   8.492  70.175  1.00  0.00    -0.128 N  
HETATM   12  C   UNL     1      -8.805   6.244  69.376  1.00  0.00    -0.127 C  
HETATM   13  C   UNL     1      -8.182   7.430  69.395  1.00  0.00    -0.131 C  
HETATM   14  I   UNL     1      -8.196   4.701  68.181  1.00  0.00    -0.096 I  
HETATM   15  C   UNL     1     -10.003   6.077  70.245  1.00  0.00    -0.187 C  
HETATM   16  O   UNL     1     -10.694   5.065  70.262  1.00  0.00    -0.177 OA 
HETATM   17  N   UNL     1     -10.311   7.147  71.042  1.00  0.00    -0.197 N  
HETATM   18  C   UNL     1      -9.713   8.376  71.012  1.00  0.00    -0.174 C  
HETATM   19  H   UNL     1     -11.057   7.014  71.723  1.00  0.00     0.000 HD 
HETATM   20  O   UNL     1     -10.163   9.296  71.690  1.00  0.00    -0.332 OA 
ENDBRANCH   6  11
ENDBRANCH   3   4
TORSDOF 2
ENDMDL
MODEL      227
REMARK 921   NORMALIZED FREE ENERGY PREDICTED BY IDOCK:   -2.40 KCAL/MOL
REMARK 922        TOTAL FREE ENERGY PREDICTED BY IDOCK:   -3.00 KCAL/MOL
REMARK 923 INTER-LIGAND FREE ENERGY PREDICTED BY IDOCK:   -2.54 KCAL/MOL
REMARK 924 INTRA-LIGAND FREE ENERGY PREDICTED BY IDOCK:   -0.46 KCAL/MOL
REMARK 927      BINDING AFFINITY PREDICTED BY RF-SCORE:    0.00 PKD
ROOT
HETATM    1  O5* UNL     1     -10.765   2.214  63.308  1.00  0.00    -0.181 OA 
HETATM    2  H5* UNL     1     -11.494   2.130  62.706  1.00  0.00     0.000 HD 
HETATM    3  C5* UNL     1     -10.455   3.583  63.568  1.00  0.00    -0.251 C  
ENDROOT
BRANCH   3   4
HETATM    4  C4* UNL     1      -9.282   3.719  64.536  1.00  0.00    -0.144 C  
HETATM    5  O4* UNL     1      -9.274   5.010  65.175  1.00  0.00    -0.155 OA 
HETATM    6  C1* UNL     1      -8.469   4.841  66.353  1.00  0.00    -0.110 C  
HETATM    7  H3* UNL     1      -8.429   0.966  66.052  1.00  0.00     0.000 HD 
HETATM    8  C2* UNL     1      -8.801   3.448  66.881  1.00  0.00    -0.149 C  
HETATM    9  C3* UNL     1      -9.292   2.690  65.664  1.00  0.00    -0.024 C  
HETATM   10  O3* UNL     1      -8.423   1.606  65.350  1.00  0.00    -0.089 OA 
BRANCH   6  11
HETATM   11  N   UNL     1      -8.682   5.913  67.322  1.00  0.00    -0.109 N  
HETATM   12  C   UNL     1      -9.934   6.836  69.142  1.00  0.00    -0.159 C  
HETATM   13  C   UNL     1      -9.649   5.824  68.311  1.00  0.00    -0.121 C  
HETATM   14  I   UNL     1     -11.400   6.711  70.562  1.00  0.00    -0.432 I  
HETATM   15  C   UNL     1      -9.162   8.099  68.986  1.00  0.00    -0.148 C  
HETATM   16  O   UNL     1      -9.379   9.113  69.640  1.00  0.00    -0.159 OA 
HETATM   17  N   UNL     1      -8.173   8.076  68.040  1.00  0.00    -0.128 N  
HETATM   18  C   UNL     1      -7.927   7.066  67.151  1.00  0.00    -0.113 C  
HETATM   19  H   UNL     1      -7.561   8.890  67.994  1.00  0.00     0.000 HD 
HETATM   20  O   UNL     1      -7.090   7.217  66.265  1.00  0.00    -0.070 OA 
ENDBRANCH   6  11
ENDBRANCH   3   4
TORSDOF 2
ENDMDL
MODEL      228
REMARK 921   NORMALIZED FREE ENERGY PREDICTED BY IDOCK:   -2.39 KCAL/MOL
REMARK 922        TOTAL FREE ENERGY PREDICTED BY IDOCK:   -2.99 KCAL/MOL
REMARK 923 INTER-LIGAND FREE ENERGY PREDICTED BY IDOCK:   -2.70 KCAL/MOL
REMARK 924 INTRA-LIGAND FREE ENERGY PREDICTED BY IDOCK:   -0.30 KCAL/MOL
REMARK 927      BINDING AFFINITY PREDICTED BY RF-SCORE:    0.00 PKD
ROOT
HETATM    1  O5* UNL     1      -9.629  10.665  69.729  1.00  0.00    -0.427 OA 
HETATM    2  H5* UNL     1      -9.958  11.547  69.848  1.00  0.00     0.000 HD 
HETATM    3  C5* UNL     1     -10.041  10.114  68.479  1.00  0.00    -0.169 C  
ENDROOT
BRANCH   3   4
HETATM    4  C4* UNL     1      -9.512   8.694  68.289  1.00  0.00    -0.141 C  
HETATM    5  O4* UNL     1      -8.747   8.261  69.429  1.00  0.00    -0.139 OA 
HETATM    6  C1* UNL     1      -8.728   6.827  69.346  1.00  0.00    -0.136 C  
HETATM    7  H3* UNL     1     -11.463   6.720  66.586  1.00  0.00     0.000 HD 
HETATM    8  C2* UNL     1     -10.110   6.426  68.839  1.00  0.00    -0.187 C  
HETATM    9  C3* UNL     1     -10.608   7.649  68.094  1.00  0.00    -0.130 C  
HETATM   10  O3* UNL     1     -10.782   7.370  66.708  1.00  0.00    -0.319 OA 
BRANCH   6  11
HETATM   11  N   UNL     1      -8.356   6.207  70.615  1.00  0.00    -0.124 N  
HETATM   12  C   UNL     1      -8.989   5.331  72.752  1.00  0.00    -0.121 C  
HETATM   13  C   UNL     1      -9.307   5.802  71.538  1.00  0.00    -0.146 C  
HETATM   14  I   UNL     1     -10.403   4.786  74.124  1.00  0.00    -0.324 I  
HETATM   15  C   UNL     1      -7.545   5.238  73.102  1.00  0.00    -0.096 C  
HETATM   16  O   UNL     1      -7.135   4.889  74.203  1.00  0.00    -0.078 OA 
HETATM   17  N   UNL     1      -6.671   5.583  72.107  1.00  0.00    -0.063 N  
HETATM   18  C   UNL     1      -6.998   6.124  70.894  1.00  0.00    -0.068 C  
HETATM   19  H   UNL     1      -5.680   5.421  72.287  1.00  0.00     0.000 HD 
HETATM   20  O   UNL     1      -6.113   6.510  70.133  1.00  0.00    -0.028 OA 
ENDBRANCH   6  11
ENDBRANCH   3   4
TORSDOF 2
ENDMDL
MODEL      229
REMARK 921   NORMALIZED FREE ENERGY PREDICTED BY IDOCK:   -2.38 KCAL/MOL
REMARK 922        TOTAL FREE ENERGY PREDICTED BY IDOCK:   -2.98 KCAL/MOL
REMARK 923 INTER-LIGAND FREE ENERGY PREDICTED BY IDOCK:   -2.56 KCAL/MOL
REMARK 924 INTRA-LIGAND FREE ENERGY PREDICTED BY IDOCK:   -0.42 KCAL/MOL
REMARK 927      BINDING AFFINITY PREDICTED BY RF-SCORE:    0.00 PKD
ROOT
HETATM    1  O5* UNL     1      -6.079  12.558  69.697  1.00  0.00    -0.113 OA 
HETATM    2  H5* UNL     1      -6.025  12.927  70.570  1.00  0.00     0.000 HD 
HETATM    3  C5* UNL     1      -5.833  11.152  69.706  1.00  0.00    -0.079 C  
ENDROOT
BRANCH   3   4
HETATM    4  C4* UNL     1      -5.919  10.558  68.301  1.00  0.00    -0.043 C  
HETATM    5  O4* UNL     1      -6.557   9.267  68.314  1.00  0.00    -0.058 OA 
HETATM    6  C1* UNL     1      -6.998   9.052  66.964  1.00  0.00    -0.078 C  
HETATM    7  H3* UNL     1      -6.334  12.736  65.916  1.00  0.00     0.000 HD 
HETATM    8  C2* UNL     1      -7.472  10.414  66.465  1.00  0.00    -0.119 C  
HETATM    9  C3* UNL     1      -6.717  11.413  67.320  1.00  0.00    -0.111 C  
HETATM   10  O3* UNL     1      -5.837  12.204  66.526  1.00  0.00    -0.212 OA 
BRANCH   6  11
HETATM   11  N   UNL     1      -8.007   8.000  66.876  1.00  0.00    -0.103 N  
HETATM   12  C   UNL     1      -9.693   6.661  67.923  1.00  0.00    -0.122 C  
HETATM   13  C   UNL     1      -8.836   7.690  67.943  1.00  0.00    -0.126 C  
HETATM   14  I   UNL     1     -10.872   6.180  69.522  1.00  0.00    -0.440 I  
HETATM   15  C   UNL     1      -9.750   5.831  66.687  1.00  0.00    -0.157 C  
HETATM   16  O   UNL     1     -10.443   4.826  66.576  1.00  0.00    -0.268 OA 
HETATM   17  N   UNL     1      -8.958   6.253  65.654  1.00  0.00    -0.328 N  
HETATM   18  C   UNL     1      -8.038   7.263  65.700  1.00  0.00    -0.133 C  
HETATM   19  H   UNL     1      -9.065   5.767  64.764  1.00  0.00     0.000 HD 
HETATM   20  O   UNL     1      -7.296   7.465  64.740  1.00  0.00    -0.068 OA 
ENDBRANCH   6  11
ENDBRANCH   3   4
TORSDOF 2
ENDMDL
MODEL      230
REMARK 921   NORMALIZED FREE ENERGY PREDICTED BY IDOCK:   -2.38 KCAL/MOL
REMARK 922        TOTAL FREE ENERGY PREDICTED BY IDOCK:   -2.97 KCAL/MOL
REMARK 923 INTER-LIGAND FREE ENERGY PREDICTED BY IDOCK:   -2.82 KCAL/MOL
REMARK 924 INTRA-LIGAND FREE ENERGY PREDICTED BY IDOCK:   -0.15 KCAL/MOL
REMARK 927      BINDING AFFINITY PREDICTED BY RF-SCORE:    0.00 PKD
ROOT
HETATM    1  O5* UNL     1      -7.559   7.372  72.400  1.00  0.00    -0.081 OA 
HETATM    2  H5* UNL     1      -6.928   7.379  73.110  1.00  0.00     0.000 HD 
HETATM    3  C5* UNL     1      -7.698   8.664  71.809  1.00  0.00    -0.088 C  
ENDROOT
BRANCH   3   4
HETATM    4  C4* UNL     1      -8.712   8.653  70.668  1.00  0.00    -0.165 C  
HETATM    5  O4* UNL     1      -8.401   7.635  69.697  1.00  0.00    -0.127 OA 
HETATM    6  C1* UNL     1      -9.627   7.411  68.982  1.00  0.00    -0.148 C  
HETATM    7  H3* UNL     1     -11.754   9.437  71.528  1.00  0.00     0.000 HD 
HETATM    8  C2* UNL     1     -10.736   7.515  70.025  1.00  0.00    -0.248 C  
HETATM    9  C3* UNL     1     -10.145   8.381  71.119  1.00  0.00    -0.196 C  
HETATM   10  O3* UNL     1     -10.862   9.606  71.247  1.00  0.00    -0.350 OA 
BRANCH   6  11
HETATM   11  N   UNL     1      -9.613   6.147  68.251  1.00  0.00    -0.120 N  
HETATM   12  C   UNL     1      -8.538   4.072  67.728  1.00  0.00    -0.097 C  
HETATM   13  C   UNL     1      -8.634   5.189  68.462  1.00  0.00    -0.094 C  
HETATM   14  I   UNL     1      -7.057   2.693  68.014  1.00  0.00    -0.049 I  
HETATM   15  C   UNL     1      -9.544   3.864  66.650  1.00  0.00    -0.193 C  
HETATM   16  O   UNL     1      -9.519   2.917  65.872  1.00  0.00    -0.093 OA 
HETATM   17  N   UNL     1     -10.523   4.816  66.561  1.00  0.00    -0.267 N  
HETATM   18  C   UNL     1     -10.580   5.986  67.266  1.00  0.00    -0.294 C  
HETATM   19  H   UNL     1     -11.283   4.636  65.905  1.00  0.00     0.000 HD 
HETATM   20  O   UNL     1     -11.444   6.821  67.006  1.00  0.00    -0.209 OA 
ENDBRANCH   6  11
ENDBRANCH   3   4
TORSDOF 2
ENDMDL
MODEL      231
REMARK 921   NORMALIZED FREE ENERGY PREDICTED BY IDOCK:   -2.36 KCAL/MOL
REMARK 922        TOTAL FREE ENERGY PREDICTED BY IDOCK:   -2.96 KCAL/MOL
REMARK 923 INTER-LIGAND FREE ENERGY PREDICTED BY IDOCK:   -2.62 KCAL/MOL
REMARK 924 INTRA-LIGAND FREE ENERGY PREDICTED BY IDOCK:   -0.34 KCAL/MOL
REMARK 927      BINDING AFFINITY PREDICTED BY RF-SCORE:    0.00 PKD
ROOT
HETATM    1  O5* UNL     1      -7.939   9.063  70.609  1.00  0.00    -0.108 OA 
HETATM    2  H5* UNL     1      -7.420   9.108  71.403  1.00  0.00     0.000 HD 
HETATM    3  C5* UNL     1      -7.970  10.319  69.932  1.00  0.00    -0.076 C  
ENDROOT
BRANCH   3   4
HETATM    4  C4* UNL     1      -8.804  10.248  68.654  1.00  0.00    -0.137 C  
HETATM    5  O4* UNL     1      -8.239   9.321  67.708  1.00  0.00    -0.114 OA 
HETATM    6  C1* UNL     1      -9.315   8.993  66.815  1.00  0.00    -0.165 C  
HETATM    7  H3* UNL     1     -12.009  10.634  69.087  1.00  0.00     0.000 HD 
HETATM    8  C2* UNL     1     -10.565   8.917  67.688  1.00  0.00    -0.292 C  
HETATM    9  C3* UNL     1     -10.243   9.791  68.883  1.00  0.00    -0.200 C  
HETATM   10  O3* UNL     1     -11.114  10.918  68.944  1.00  0.00    -0.212 OA 
BRANCH   6  11
HETATM   11  N   UNL     1      -9.046   7.776  66.053  1.00  0.00    -0.156 N  
HETATM   12  C   UNL     1      -8.905   5.388  65.953  1.00  0.00    -0.148 C  
HETATM   13  C   UNL     1      -9.246   6.515  66.592  1.00  0.00    -0.153 C  
HETATM   14  I   UNL     1      -9.156   3.536  66.782  1.00  0.00    -0.179 I  
HETATM   15  C   UNL     1      -8.295   5.516  64.601  1.00  0.00    -0.131 C  
HETATM   16  O   UNL     1      -7.881   4.564  63.950  1.00  0.00    -0.083 OA 
HETATM   17  N   UNL     1      -8.205   6.791  64.110  1.00  0.00    -0.323 N  
HETATM   18  C   UNL     1      -8.493   7.942  64.789  1.00  0.00     0.007 C  
HETATM   19  H   UNL     1      -7.894   6.891  63.144  1.00  0.00     0.000 HD 
HETATM   20  O   UNL     1      -8.252   9.034  64.280  1.00  0.00    -0.147 OA 
ENDBRANCH   6  11
ENDBRANCH   3   4
TORSDOF 2
ENDMDL
MODEL      232
REMARK 921   NORMALIZED FREE ENERGY PREDICTED BY IDOCK:   -2.35 KCAL/MOL
REMARK 922        TOTAL FREE ENERGY PREDICTED BY IDOCK:   -2.95 KCAL/MOL
REMARK 923 INTER-LIGAND FREE ENERGY PREDICTED BY IDOCK:   -3.73 KCAL/MOL
REMARK 924 INTRA-LIGAND FREE ENERGY PREDICTED BY IDOCK:    0.78 KCAL/MOL
REMARK 927      BINDING AFFINITY PREDICTED BY RF-SCORE:    0.00 PKD
ROOT
HETATM    1  O5* UNL     1      -7.453   7.658  71.628  1.00  0.00    -0.073 OA 
HETATM    2  H5* UNL     1      -7.086   7.793  72.493  1.00  0.00     0.000 HD 
HETATM    3  C5* UNL     1      -7.522   8.878  70.890  1.00  0.00    -0.102 C  
ENDROOT
BRANCH   3   4
HETATM    4  C4* UNL     1      -8.112   8.660  69.499  1.00  0.00    -0.110 C  
HETATM    5  O4* UNL     1      -9.294   9.458  69.298  1.00  0.00    -0.156 OA 
HETATM    6  C1* UNL     1      -9.457   9.536  67.873  1.00  0.00    -0.132 C  
HETATM    7  H3* UNL     1      -5.925   8.079  67.157  1.00  0.00     0.000 HD 
HETATM    8  C2* UNL     1      -8.045   9.651  67.304  1.00  0.00    -0.110 C  
HETATM    9  C3* UNL     1      -7.160   9.024  68.362  1.00  0.00    -0.076 C  
HETATM   10  O3* UNL     1      -6.517   7.853  67.864  1.00  0.00    -0.049 OA 
BRANCH   6  11
HETATM   11  N   UNL     1     -10.348  10.625  67.480  1.00  0.00    -0.202 N  
HETATM   12  C   UNL     1     -11.258  12.038  65.776  1.00  0.00    -0.334 C  
HETATM   13  C   UNL     1     -10.532  10.978  66.153  1.00  0.00    -0.244 C  
HETATM   14  I   UNL     1     -11.478  12.580  63.817  1.00  0.00    -0.593 I  
HETATM   15  C   UNL     1     -11.897  12.856  66.844  1.00  0.00    -0.379 C  
HETATM   16  O   UNL     1     -12.526  13.885  66.627  1.00  0.00    -0.407 OA 
HETATM   17  N   UNL     1     -11.732  12.393  68.122  1.00  0.00    -0.341 N  
HETATM   18  C   UNL     1     -10.937  11.350  68.509  1.00  0.00    -0.221 C  
HETATM   19  H   UNL     1     -12.252  12.873  68.856  1.00  0.00     0.000 HD 
HETATM   20  O   UNL     1     -10.773  11.110  69.703  1.00  0.00    -0.198 OA 
ENDBRANCH   6  11
ENDBRANCH   3   4
TORSDOF 2
ENDMDL
MODEL      233
REMARK 921   NORMALIZED FREE ENERGY PREDICTED BY IDOCK:   -2.35 KCAL/MOL
REMARK 922        TOTAL FREE ENERGY PREDICTED BY IDOCK:   -2.94 KCAL/MOL
REMARK 923 INTER-LIGAND FREE ENERGY PREDICTED BY IDOCK:   -3.18 KCAL/MOL
REMARK 924 INTRA-LIGAND FREE ENERGY PREDICTED BY IDOCK:    0.23 KCAL/MOL
REMARK 927      BINDING AFFINITY PREDICTED BY RF-SCORE:    0.00 PKD
ROOT
HETATM    1  O5* UNL     1     -10.361  11.981  66.990  1.00  0.00    -0.208 OA 
HETATM    2  H5* UNL     1     -10.818  12.617  66.453  1.00  0.00     0.000 HD 
HETATM    3  C5* UNL     1      -9.193  12.543  67.588  1.00  0.00    -0.190 C  
ENDROOT
BRANCH   3   4
HETATM    4  C4* UNL     1      -8.457  11.520  68.452  1.00  0.00    -0.159 C  
HETATM    5  O4* UNL     1      -9.322  10.963  69.460  1.00  0.00    -0.004 OA 
HETATM    6  C1* UNL     1      -8.694   9.734  69.856  1.00  0.00    -0.217 C  
HETATM    7  H3* UNL     1      -6.183   9.791  66.889  1.00  0.00     0.000 HD 
HETATM    8  C2* UNL     1      -8.110   9.139  68.577  1.00  0.00    -0.103 C  
HETATM    9  C3* UNL     1      -7.907  10.333  67.665  1.00  0.00    -0.098 C  
HETATM   10  O3* UNL     1      -6.525  10.529  67.378  1.00  0.00    -0.060 OA 
BRANCH   6  11
HETATM   11  N   UNL     1      -9.616   8.846  70.559  1.00  0.00    -0.187 N  
HETATM   12  C   UNL     1     -10.078   7.375  72.390  1.00  0.00    -0.187 C  
HETATM   13  C   UNL     1      -9.295   8.274  71.780  1.00  0.00    -0.202 C  
HETATM   14  I   UNL     1      -9.567   6.498  74.165  1.00  0.00    -0.340 I  
HETATM   15  C   UNL     1     -11.350   6.993  71.717  1.00  0.00    -0.258 C  
HETATM   16  O   UNL     1     -12.112   6.133  72.143  1.00  0.00    -0.327 OA 
HETATM   17  N   UNL     1     -11.629   7.662  70.556  1.00  0.00    -0.424 N  
HETATM   18  C   UNL     1     -10.799   8.531  69.903  1.00  0.00    -0.205 C  
HETATM   19  H   UNL     1     -12.545   7.497  70.139  1.00  0.00     0.000 HD 
HETATM   20  O   UNL     1     -11.115   8.972  68.800  1.00  0.00    -0.006 OA 
ENDBRANCH   6  11
ENDBRANCH   3   4
TORSDOF 2
ENDMDL
MODEL      234
REMARK 921   NORMALIZED FREE ENERGY PREDICTED BY IDOCK:   -2.31 KCAL/MOL
REMARK 922        TOTAL FREE ENERGY PREDICTED BY IDOCK:   -2.90 KCAL/MOL
REMARK 923 INTER-LIGAND FREE ENERGY PREDICTED BY IDOCK:   -2.67 KCAL/MOL
REMARK 924 INTRA-LIGAND FREE ENERGY PREDICTED BY IDOCK:   -0.24 KCAL/MOL
REMARK 927      BINDING AFFINITY PREDICTED BY RF-SCORE:    0.00 PKD
ROOT
HETATM    1  O5* UNL     1      -8.441   7.579  71.533  1.00  0.00    -0.113 OA 
HETATM    2  H5* UNL     1      -8.083   7.231  72.341  1.00  0.00     0.000 HD 
HETATM    3  C5* UNL     1      -8.919   8.913  71.703  1.00  0.00    -0.173 C  
ENDROOT
BRANCH   3   4
HETATM    4  C4* UNL     1      -9.494   9.473  70.404  1.00  0.00    -0.262 C  
HETATM    5  O4* UNL     1      -8.598   9.258  69.296  1.00  0.00    -0.130 OA 
HETATM    6  C1* UNL     1      -9.418   9.374  68.122  1.00  0.00    -0.133 C  
HETATM    7  H3* UNL     1     -12.735   9.287  70.147  1.00  0.00     0.000 HD 
HETATM    8  C2* UNL     1     -10.753   8.732  68.488  1.00  0.00    -0.108 C  
HETATM    9  C3* UNL     1     -10.824   8.843  69.998  1.00  0.00    -0.227 C  
HETATM   10  O3* UNL     1     -11.907   9.678  70.399  1.00  0.00    -0.240 OA 
BRANCH   6  11
HETATM   11  N   UNL     1      -8.778   8.792  66.946  1.00  0.00    -0.125 N  
HETATM   12  C   UNL     1      -7.068   7.414  65.991  1.00  0.00    -0.066 C  
HETATM   13  C   UNL     1      -7.740   7.879  67.053  1.00  0.00    -0.100 C  
HETATM   14  I   UNL     1      -5.504   6.110  66.166  1.00  0.00    -0.014 I  
HETATM   15  C   UNL     1      -7.475   7.904  64.645  1.00  0.00    -0.101 C  
HETATM   16  O   UNL     1      -6.892   7.604  63.609  1.00  0.00    -0.056 OA 
HETATM   17  N   UNL     1      -8.558   8.740  64.621  1.00  0.00    -0.307 N  
HETATM   18  C   UNL     1      -9.200   9.263  65.709  1.00  0.00    -0.224 C  
HETATM   19  H   UNL     1      -8.921   8.997  63.704  1.00  0.00     0.000 HD 
HETATM   20  O   UNL     1     -10.084  10.104  65.557  1.00  0.00    -0.289 OA 
ENDBRANCH   6  11
ENDBRANCH   3   4
TORSDOF 2
ENDMDL
MODEL      235
REMARK 921   NORMALIZED FREE ENERGY PREDICTED BY IDOCK:   -2.29 KCAL/MOL
REMARK 922        TOTAL FREE ENERGY PREDICTED BY IDOCK:   -2.88 KCAL/MOL
REMARK 923 INTER-LIGAND FREE ENERGY PREDICTED BY IDOCK:   -3.95 KCAL/MOL
REMARK 924 INTRA-LIGAND FREE ENERGY PREDICTED BY IDOCK:    1.07 KCAL/MOL
REMARK 927      BINDING AFFINITY PREDICTED BY RF-SCORE:    0.00 PKD
ROOT
HETATM    1  O5* UNL     1     -12.473   9.249  70.620  1.00  0.00    -0.497 OA 
HETATM    2  H5* UNL     1     -12.630   9.036  71.532  1.00  0.00     0.000 HD 
HETATM    3  C5* UNL     1     -11.518  10.301  70.484  1.00  0.00    -0.343 C  
ENDROOT
BRANCH   3   4
HETATM    4  C4* UNL     1     -11.265  10.643  69.017  1.00  0.00    -0.265 C  
HETATM    5  O4* UNL     1     -10.829  12.007  68.863  1.00  0.00    -0.220 OA 
HETATM    6  C1* UNL     1     -10.188  12.054  67.578  1.00  0.00    -0.198 C  
HETATM    7  H3* UNL     1     -10.125   8.184  67.212  1.00  0.00     0.000 HD 
HETATM    8  C2* UNL     1      -9.444  10.729  67.442  1.00  0.00    -0.171 C  
HETATM    9  C3* UNL     1     -10.191   9.781  68.360  1.00  0.00    -0.185 C  
HETATM   10  O3* UNL     1     -10.793   8.721  67.621  1.00  0.00    -0.190 OA 
BRANCH   6  11
HETATM   11  N   UNL     1      -9.339  13.233  67.430  1.00  0.00    -0.209 N  
HETATM   12  C   UNL     1      -9.117  15.587  67.054  1.00  0.00    -0.230 C  
HETATM   13  C   UNL     1      -9.870  14.506  67.299  1.00  0.00    -0.236 C  
HETATM   14  I   UNL     1      -9.918  17.452  66.809  1.00  0.00    -0.341 I  
HETATM   15  C   UNL     1      -7.646  15.392  66.932  1.00  0.00    -0.076 C  
HETATM   16  O   UNL     1      -6.864  16.291  66.642  1.00  0.00    -0.229 OA 
HETATM   17  N   UNL     1      -7.196  14.119  67.153  1.00  0.00    -0.259 N  
HETATM   18  C   UNL     1      -7.971  13.008  67.338  1.00  0.00    -0.172 C  
HETATM   19  H   UNL     1      -6.185  13.986  67.184  1.00  0.00     0.000 HD 
HETATM   20  O   UNL     1      -7.449  11.897  67.402  1.00  0.00    -0.128 OA 
ENDBRANCH   6  11
ENDBRANCH   3   4
TORSDOF 2
ENDMDL
MODEL      236
REMARK 921   NORMALIZED FREE ENERGY PREDICTED BY IDOCK:   -2.21 KCAL/MOL
REMARK 922        TOTAL FREE ENERGY PREDICTED BY IDOCK:   -2.79 KCAL/MOL
REMARK 923 INTER-LIGAND FREE ENERGY PREDICTED BY IDOCK:   -3.01 KCAL/MOL
REMARK 924 INTRA-LIGAND FREE ENERGY PREDICTED BY IDOCK:    0.23 KCAL/MOL
REMARK 927      BINDING AFFINITY PREDICTED BY RF-SCORE:    0.00 PKD
ROOT
HETATM    1  O5* UNL     1      -8.227   6.054  73.926  1.00  0.00    -0.111 OA 
HETATM    2  H5* UNL     1      -7.989   6.185  74.836  1.00  0.00     0.000 HD 
HETATM    3  C5* UNL     1      -7.697   7.084  73.092  1.00  0.00    -0.093 C  
ENDROOT
BRANCH   3   4
HETATM    4  C4* UNL     1      -8.079   6.873  71.629  1.00  0.00    -0.105 C  
HETATM    5  O4* UNL     1      -9.164   7.736  71.239  1.00  0.00    -0.140 OA 
HETATM    6  C1* UNL     1      -9.101   7.796  69.805  1.00  0.00    -0.147 C  
HETATM    7  H3* UNL     1      -5.598   6.116  69.659  1.00  0.00     0.000 HD 
HETATM    8  C2* UNL     1      -7.614   7.814  69.460  1.00  0.00    -0.100 C  
HETATM    9  C3* UNL     1      -6.943   7.156  70.649  1.00  0.00    -0.058 C  
HETATM   10  O3* UNL     1      -6.305   5.940  70.269  1.00  0.00    -0.029 OA 
BRANCH   6  11
HETATM   11  N   UNL     1      -9.852   8.927  69.268  1.00  0.00    -0.172 N  
HETATM   12  C   UNL     1     -11.435  10.695  69.585  1.00  0.00    -0.291 C  
HETATM   13  C   UNL     1     -10.655   9.721  70.072  1.00  0.00    -0.276 C  
HETATM   14  I   UNL     1     -12.657  11.823  70.775  1.00  0.00    -0.038 I  
HETATM   15  C   UNL     1     -11.418  10.926  68.114  1.00  0.00    -0.295 C  
HETATM   16  O   UNL     1     -12.137  11.740  67.546  1.00  0.00    -0.599 OA 
HETATM   17  N   UNL     1     -10.539  10.154  67.403  1.00  0.00    -0.256 N  
HETATM   18  C   UNL     1      -9.793   9.118  67.893  1.00  0.00    -0.169 C  
HETATM   19  H   UNL     1     -10.431  10.372  66.413  1.00  0.00     0.000 HD 
HETATM   20  O   UNL     1      -9.134   8.418  67.128  1.00  0.00    -0.134 OA 
ENDBRANCH   6  11
ENDBRANCH   3   4
TORSDOF 2
ENDMDL
MODEL      237
REMARK 921   NORMALIZED FREE ENERGY PREDICTED BY IDOCK:   -2.19 KCAL/MOL
REMARK 922        TOTAL FREE ENERGY PREDICTED BY IDOCK:   -2.76 KCAL/MOL
REMARK 923 INTER-LIGAND FREE ENERGY PREDICTED BY IDOCK:   -3.11 KCAL/MOL
REMARK 924 INTRA-LIGAND FREE ENERGY PREDICTED BY IDOCK:    0.35 KCAL/MOL
REMARK 927      BINDING AFFINITY PREDICTED BY RF-SCORE:    0.00 PKD
ROOT
HETATM    1  O5* UNL     1      -6.297   6.301  73.094  1.00  0.00    -0.061 OA 
HETATM    2  H5* UNL     1      -5.938   6.319  73.973  1.00  0.00     0.000 HD 
HETATM    3  C5* UNL     1      -7.287   7.312  72.911  1.00  0.00    -0.072 C  
ENDROOT
BRANCH   3   4
HETATM    4  C4* UNL     1      -7.865   7.283  71.498  1.00  0.00    -0.092 C  
HETATM    5  O4* UNL     1      -8.976   8.189  71.365  1.00  0.00    -0.132 OA 
HETATM    6  C1* UNL     1      -9.103   8.423  69.953  1.00  0.00    -0.146 C  
HETATM    7  H3* UNL     1      -5.683   6.765  69.136  1.00  0.00     0.000 HD 
HETATM    8  C2* UNL     1      -7.675   8.480  69.416  1.00  0.00    -0.092 C  
HETATM    9  C3* UNL     1      -6.864   7.680  70.416  1.00  0.00    -0.047 C  
HETATM   10  O3* UNL     1      -6.306   6.518  69.809  1.00  0.00    -0.039 OA 
BRANCH   6  11
HETATM   11  N   UNL     1      -9.897   9.614  69.662  1.00  0.00    -0.201 N  
HETATM   12  C   UNL     1     -10.245  11.603  68.377  1.00  0.00    -0.207 C  
HETATM   13  C   UNL     1      -9.599  10.451  68.599  1.00  0.00    -0.166 C  
HETATM   14  I   UNL     1      -9.760  12.856  66.836  1.00  0.00    -0.253 I  
HETATM   15  C   UNL     1     -11.335  11.979  69.319  1.00  0.00    -0.268 C  
HETATM   16  O   UNL     1     -11.949  13.038  69.259  1.00  0.00    -0.307 OA 
HETATM   17  N   UNL     1     -11.618  11.060  70.293  1.00  0.00    -0.363 N  
HETATM   18  C   UNL     1     -10.915   9.917  70.557  1.00  0.00    -0.326 C  
HETATM   19  H   UNL     1     -12.432  11.246  70.879  1.00  0.00     0.000 HD 
HETATM   20  O   UNL     1     -11.194   9.236  71.541  1.00  0.00    -0.337 OA 
ENDBRANCH   6  11
ENDBRANCH   3   4
TORSDOF 2
ENDMDL
MODEL      238
REMARK 921   NORMALIZED FREE ENERGY PREDICTED BY IDOCK:   -2.18 KCAL/MOL
REMARK 922        TOTAL FREE ENERGY PREDICTED BY IDOCK:   -2.76 KCAL/MOL
REMARK 923 INTER-LIGAND FREE ENERGY PREDICTED BY IDOCK:   -2.44 KCAL/MOL
REMARK 924 INTRA-LIGAND FREE ENERGY PREDICTED BY IDOCK:   -0.31 KCAL/MOL
REMARK 927      BINDING AFFINITY PREDICTED BY RF-SCORE:    0.00 PKD
ROOT
HETATM    1  O5* UNL     1     -13.389   8.131  72.447  1.00  0.00    -0.529 OA 
HETATM    2  H5* UNL     1     -14.317   8.333  72.447  1.00  0.00     0.000 HD 
HETATM    3  C5* UNL     1     -12.991   7.489  71.237  1.00  0.00    -0.278 C  
ENDROOT
BRANCH   3   4
HETATM    4  C4* UNL     1     -11.498   7.165  71.238  1.00  0.00    -0.282 C  
HETATM    5  O4* UNL     1     -11.204   6.037  70.392  1.00  0.00    -0.337 OA 
HETATM    6  C1* UNL     1      -9.800   6.138  70.105  1.00  0.00    -0.171 C  
HETATM    7  H3* UNL     1      -9.534   9.747  71.526  1.00  0.00     0.000 HD 
HETATM    8  C2* UNL     1      -9.521   7.630  69.942  1.00  0.00    -0.160 C  
HETATM    9  C3* UNL     1     -10.619   8.308  70.737  1.00  0.00    -0.210 C  
HETATM   10  O3* UNL     1     -10.081   9.035  71.838  1.00  0.00    -0.339 OA 
BRANCH   6  11
HETATM   11  N   UNL     1      -9.415   5.330  68.951  1.00  0.00    -0.121 N  
HETATM   12  C   UNL     1      -9.840   4.583  66.716  1.00  0.00    -0.221 C  
HETATM   13  C   UNL     1     -10.107   5.391  67.751  1.00  0.00    -0.171 C  
HETATM   14  I   UNL     1     -10.902   4.647  64.970  1.00  0.00     0.801 I  
HETATM   15  C   UNL     1      -8.743   3.590  66.878  1.00  0.00    -0.120 C  
HETATM   16  O   UNL     1      -8.453   2.754  66.029  1.00  0.00    -0.093 OA 
HETATM   17  N   UNL     1      -8.059   3.649  68.062  1.00  0.00    -0.082 N  
HETATM   18  C   UNL     1      -8.375   4.429  69.140  1.00  0.00    -0.078 C  
HETATM   19  H   UNL     1      -7.236   3.054  68.149  1.00  0.00     0.000 HD 
HETATM   20  O   UNL     1      -7.758   4.300  70.195  1.00  0.00    -0.052 OA 
ENDBRANCH   6  11
ENDBRANCH   3   4
TORSDOF 2
ENDMDL
MODEL      239
REMARK 921   NORMALIZED FREE ENERGY PREDICTED BY IDOCK:   -2.18 KCAL/MOL
REMARK 922        TOTAL FREE ENERGY PREDICTED BY IDOCK:   -2.75 KCAL/MOL
REMARK 923 INTER-LIGAND FREE ENERGY PREDICTED BY IDOCK:   -2.42 KCAL/MOL
REMARK 924 INTRA-LIGAND FREE ENERGY PREDICTED BY IDOCK:   -0.33 KCAL/MOL
REMARK 927      BINDING AFFINITY PREDICTED BY RF-SCORE:    0.00 PKD
ROOT
HETATM    1  O5* UNL     1      -5.406  15.284  69.231  1.00  0.00    -0.095 OA 
HETATM    2  H5* UNL     1      -5.151  16.161  69.490  1.00  0.00     0.000 HD 
HETATM    3  C5* UNL     1      -6.807  15.073  69.402  1.00  0.00    -0.165 C  
ENDROOT
BRANCH   3   4
HETATM    4  C4* UNL     1      -7.218  13.662  68.985  1.00  0.00    -0.049 C  
HETATM    5  O4* UNL     1      -8.532  13.648  68.396  1.00  0.00    -0.161 OA 
HETATM    6  C1* UNL     1      -8.593  12.428  67.641  1.00  0.00    -0.172 C  
HETATM    7  H3* UNL     1      -4.774  11.772  67.954  1.00  0.00     0.000 HD 
HETATM    8  C2* UNL     1      -7.205  12.251  67.031  1.00  0.00    -0.039 C  
HETATM    9  C3* UNL     1      -6.287  13.029  67.953  1.00  0.00    -0.134 C  
HETATM   10  O3* UNL     1      -5.353  12.165  68.595  1.00  0.00    -0.050 OA 
BRANCH   6  11
HETATM   11  N   UNL     1      -9.677  12.440  66.662  1.00  0.00    -0.220 N  
HETATM   12  C   UNL     1     -11.373  13.639  65.472  1.00  0.00    -0.298 C  
HETATM   13  C   UNL     1     -10.308  13.614  66.284  1.00  0.00    -0.293 C  
HETATM   14  I   UNL     1     -12.329  15.373  64.963  1.00  0.00     0.816 I  
HETATM   15  C   UNL     1     -11.880  12.337  64.955  1.00  0.00    -0.357 C  
HETATM   16  O   UNL     1     -12.885  12.227  64.262  1.00  0.00    -0.648 OA 
HETATM   17  N   UNL     1     -11.153  11.234  65.313  1.00  0.00    -0.142 N  
HETATM   18  C   UNL     1     -10.107  11.205  66.193  1.00  0.00    -0.238 C  
HETATM   19  H   UNL     1     -11.416  10.349  64.881  1.00  0.00     0.000 HD 
HETATM   20  O   UNL     1      -9.614  10.131  66.529  1.00  0.00    -0.172 OA 
ENDBRANCH   6  11
ENDBRANCH   3   4
TORSDOF 2
ENDMDL
MODEL      240
REMARK 921   NORMALIZED FREE ENERGY PREDICTED BY IDOCK:   -2.16 KCAL/MOL
REMARK 922        TOTAL FREE ENERGY PREDICTED BY IDOCK:   -2.74 KCAL/MOL
REMARK 923 INTER-LIGAND FREE ENERGY PREDICTED BY IDOCK:   -2.42 KCAL/MOL
REMARK 924 INTRA-LIGAND FREE ENERGY PREDICTED BY IDOCK:   -0.32 KCAL/MOL
REMARK 927      BINDING AFFINITY PREDICTED BY RF-SCORE:    0.00 PKD
ROOT
HETATM    1  O5* UNL     1      -7.892   6.255  72.977  1.00  0.00    -0.103 OA 
HETATM    2  H5* UNL     1      -7.612   6.731  73.750  1.00  0.00     0.000 HD 
HETATM    3  C5* UNL     1      -8.973   6.913  72.318  1.00  0.00    -0.134 C  
ENDROOT
BRANCH   3   4
HETATM    4  C4* UNL     1      -9.422   6.146  71.076  1.00  0.00    -0.171 C  
HETATM    5  O4* UNL     1      -9.344   6.967  69.895  1.00  0.00    -0.151 OA 
HETATM    6  C1* UNL     1      -9.318   6.042  68.796  1.00  0.00    -0.122 C  
HETATM    7  H3* UNL     1      -8.718   2.967  71.096  1.00  0.00     0.000 HD 
HETATM    8  C2* UNL     1      -8.473   4.863  69.271  1.00  0.00    -0.092 C  
HETATM    9  C3* UNL     1      -8.585   4.904  70.782  1.00  0.00    -0.113 C  
HETATM   10  O3* UNL     1      -9.239   3.740  71.279  1.00  0.00    -0.109 OA 
BRANCH   6  11
HETATM   11  N   UNL     1      -8.836   6.664  67.565  1.00  0.00    -0.117 N  
HETATM   12  C   UNL     1      -7.725   8.476  66.463  1.00  0.00    -0.092 C  
HETATM   13  C   UNL     1      -8.086   7.830  67.579  1.00  0.00    -0.124 C  
HETATM   14  I   UNL     1      -6.665  10.224  66.498  1.00  0.00    -0.111 I  
HETATM   15  C   UNL     1      -8.149   7.895  65.159  1.00  0.00    -0.144 C  
HETATM   16  O   UNL     1      -7.938   8.430  64.076  1.00  0.00    -0.139 OA 
HETATM   17  N   UNL     1      -8.816   6.702  65.230  1.00  0.00    -0.364 N  
HETATM   18  C   UNL     1      -9.240   6.079  66.372  1.00  0.00    -0.151 C  
HETATM   19  H   UNL     1      -9.017   6.233  64.348  1.00  0.00     0.000 HD 
HETATM   20  O   UNL     1      -9.941   5.073  66.300  1.00  0.00    -0.180 OA 
ENDBRANCH   6  11
ENDBRANCH   3   4
TORSDOF 2
ENDMDL
MODEL      241
REMARK 921   NORMALIZED FREE ENERGY PREDICTED BY IDOCK:   -2.15 KCAL/MOL
REMARK 922        TOTAL FREE ENERGY PREDICTED BY IDOCK:   -2.72 KCAL/MOL
REMARK 923 INTER-LIGAND FREE ENERGY PREDICTED BY IDOCK:   -2.97 KCAL/MOL
REMARK 924 INTRA-LIGAND FREE ENERGY PREDICTED BY IDOCK:    0.25 KCAL/MOL
REMARK 927      BINDING AFFINITY PREDICTED BY RF-SCORE:    0.00 PKD
ROOT
HETATM    1  O5* UNL     1      -7.328  11.445  66.169  1.00  0.00    -0.356 OA 
HETATM    2  H5* UNL     1      -7.223  11.794  65.292  1.00  0.00     0.000 HD 
HETATM    3  C5* UNL     1      -8.050  12.345  67.009  1.00  0.00    -0.124 C  
ENDROOT
BRANCH   3   4
HETATM    4  C4* UNL     1      -8.218  11.783  68.419  1.00  0.00    -0.154 C  
HETATM    5  O4* UNL     1      -9.096  10.642  68.430  1.00  0.00    -0.143 OA 
HETATM    6  C1* UNL     1      -8.796   9.948  69.652  1.00  0.00    -0.208 C  
HETATM    7  H3* UNL     1      -5.584  12.035  70.317  1.00  0.00     0.000 HD 
HETATM    8  C2* UNL     1      -7.285  10.070  69.833  1.00  0.00    -0.145 C  
HETATM    9  C3* UNL     1      -6.912  11.317  69.055  1.00  0.00    -0.104 C  
HETATM   10  O3* UNL     1      -6.397  12.325  69.921  1.00  0.00    -0.130 OA 
BRANCH   6  11
HETATM   11  N   UNL     1      -9.286   8.573  69.638  1.00  0.00    -0.156 N  
HETATM   12  C   UNL     1     -10.290   6.725  70.782  1.00  0.00    -0.204 C  
HETATM   13  C   UNL     1      -9.929   8.014  70.732  1.00  0.00    -0.188 C  
HETATM   14  I   UNL     1     -11.189   5.899  72.422  1.00  0.00    -0.293 I  
HETATM   15  C   UNL     1      -9.988   5.874  69.598  1.00  0.00    -0.180 C  
HETATM   16  O   UNL     1     -10.208   4.669  69.555  1.00  0.00    -0.203 OA 
HETATM   17  N   UNL     1      -9.425   6.521  68.532  1.00  0.00    -0.123 N  
HETATM   18  C   UNL     1      -8.998   7.820  68.507  1.00  0.00    -0.133 C  
HETATM   19  H   UNL     1      -9.313   5.982  67.673  1.00  0.00     0.000 HD 
HETATM   20  O   UNL     1      -8.392   8.250  67.528  1.00  0.00    -0.127 OA 
ENDBRANCH   6  11
ENDBRANCH   3   4
TORSDOF 2
ENDMDL
MODEL      242
REMARK 921   NORMALIZED FREE ENERGY PREDICTED BY IDOCK:   -2.14 KCAL/MOL
REMARK 922        TOTAL FREE ENERGY PREDICTED BY IDOCK:   -2.70 KCAL/MOL
REMARK 923 INTER-LIGAND FREE ENERGY PREDICTED BY IDOCK:   -3.11 KCAL/MOL
REMARK 924 INTRA-LIGAND FREE ENERGY PREDICTED BY IDOCK:    0.41 KCAL/MOL
REMARK 927      BINDING AFFINITY PREDICTED BY RF-SCORE:    0.00 PKD
ROOT
HETATM    1  O5* UNL     1      -9.565  12.116  64.027  1.00  0.00    -0.518 OA 
HETATM    2  H5* UNL     1      -9.085  12.465  63.286  1.00  0.00     0.000 HD 
HETATM    3  C5* UNL     1      -9.169  10.778  64.327  1.00  0.00    -0.218 C  
ENDROOT
BRANCH   3   4
HETATM    4  C4* UNL     1      -9.941  10.218  65.519  1.00  0.00    -0.296 C  
HETATM    5  O4* UNL     1      -9.095   9.416  66.365  1.00  0.00    -0.147 OA 
HETATM    6  C1* UNL     1      -9.771   9.363  67.631  1.00  0.00    -0.155 C  
HETATM    7  H3* UNL     1     -12.293  12.158  66.663  1.00  0.00     0.000 HD 
HETATM    8  C2* UNL     1     -10.385  10.746  67.828  1.00  0.00    -0.226 C  
HETATM    9  C3* UNL     1     -10.544  11.291  66.422  1.00  0.00    -0.266 C  
HETATM   10  O3* UNL     1     -11.918  11.490  66.102  1.00  0.00    -0.257 OA 
BRANCH   6  11
HETATM   11  N   UNL     1      -8.882   8.947  68.712  1.00  0.00    -0.137 N  
HETATM   12  C   UNL     1      -8.580   8.162  70.954  1.00  0.00    -0.135 C  
HETATM   13  C   UNL     1      -9.370   8.448  69.910  1.00  0.00    -0.155 C  
HETATM   14  I   UNL     1      -9.317   7.478  72.734  1.00  0.00    -0.296 I  
HETATM   15  C   UNL     1      -7.116   8.386  70.797  1.00  0.00    -0.050 C  
HETATM   16  O   UNL     1      -6.304   8.226  71.702  1.00  0.00    -0.041 OA 
HETATM   17  N   UNL     1      -6.710   8.803  69.559  1.00  0.00    -0.047 N  
HETATM   18  C   UNL     1      -7.523   9.157  68.517  1.00  0.00    -0.081 C  
HETATM   19  H   UNL     1      -5.705   8.856  69.397  1.00  0.00     0.000 HD 
HETATM   20  O   UNL     1      -7.039   9.637  67.495  1.00  0.00    -0.086 OA 
ENDBRANCH   6  11
ENDBRANCH   3   4
TORSDOF 2
ENDMDL
MODEL      243
REMARK 921   NORMALIZED FREE ENERGY PREDICTED BY IDOCK:   -2.09 KCAL/MOL
REMARK 922        TOTAL FREE ENERGY PREDICTED BY IDOCK:   -2.66 KCAL/MOL
REMARK 923 INTER-LIGAND FREE ENERGY PREDICTED BY IDOCK:   -2.36 KCAL/MOL
REMARK 924 INTRA-LIGAND FREE ENERGY PREDICTED BY IDOCK:   -0.30 KCAL/MOL
REMARK 927      BINDING AFFINITY PREDICTED BY RF-SCORE:    0.00 PKD
ROOT
HETATM    1  O5* UNL     1     -11.507   6.328  66.897  1.00  0.00    -0.619 OA 
HETATM    2  H5* UNL     1     -12.231   5.813  67.231  1.00  0.00     0.000 HD 
HETATM    3  C5* UNL     1     -10.323   6.132  67.669  1.00  0.00    -0.201 C  
ENDROOT
BRANCH   3   4
HETATM    4  C4* UNL     1      -9.159   6.961  67.131  1.00  0.00    -0.131 C  
HETATM    5  O4* UNL     1      -8.889   8.098  67.973  1.00  0.00    -0.131 OA 
HETATM    6  C1* UNL     1      -7.544   8.490  67.656  1.00  0.00    -0.098 C  
HETATM    7  H3* UNL     1      -6.827   5.244  65.640  1.00  0.00     0.000 HD 
HETATM    8  C2* UNL     1      -6.779   7.189  67.431  1.00  0.00    -0.068 C  
HETATM    9  C3* UNL     1      -7.846   6.188  67.034  1.00  0.00    -0.101 C  
HETATM   10  O3* UNL     1      -7.644   5.725  65.701  1.00  0.00    -0.082 OA 
BRANCH   6  11
HETATM   11  N   UNL     1      -6.965   9.352  68.683  1.00  0.00    -0.064 N  
HETATM   12  C   UNL     1      -5.959   9.608  70.840  1.00  0.00    -0.081 C  
HETATM   13  C   UNL     1      -6.397   8.836  69.837  1.00  0.00    -0.037 C  
HETATM   14  I   UNL     1      -5.172   8.833  72.561  1.00  0.00    -0.064 I  
HETATM   15  C   UNL     1      -6.086  11.083  70.685  1.00  0.00    -0.033 C  
HETATM   16  O   UNL     1      -5.784  11.887  71.561  1.00  0.00    -0.356 OA 
HETATM   17  N   UNL     1      -6.584  11.512  69.485  1.00  0.00    -0.123 N  
HETATM   18  C   UNL     1      -7.091  10.722  68.490  1.00  0.00    -0.070 C  
HETATM   19  H   UNL     1      -6.576  12.518  69.315  1.00  0.00     0.000 HD 
HETATM   20  O   UNL     1      -7.625  11.234  67.509  1.00  0.00    -0.102 OA 
ENDBRANCH   6  11
ENDBRANCH   3   4
TORSDOF 2
ENDMDL
MODEL      244
REMARK 921   NORMALIZED FREE ENERGY PREDICTED BY IDOCK:   -2.09 KCAL/MOL
REMARK 922        TOTAL FREE ENERGY PREDICTED BY IDOCK:   -2.65 KCAL/MOL
REMARK 923 INTER-LIGAND FREE ENERGY PREDICTED BY IDOCK:   -2.36 KCAL/MOL
REMARK 924 INTRA-LIGAND FREE ENERGY PREDICTED BY IDOCK:   -0.29 KCAL/MOL
REMARK 927      BINDING AFFINITY PREDICTED BY RF-SCORE:    0.00 PKD
ROOT
HETATM    1  O5* UNL     1     -11.382   6.601  66.881  1.00  0.00    -0.738 OA 
HETATM    2  H5* UNL     1     -12.330   6.599  66.831  1.00  0.00     0.000 HD 
HETATM    3  C5* UNL     1     -10.904   5.669  67.850  1.00  0.00    -0.080 C  
ENDROOT
BRANCH   3   4
HETATM    4  C4* UNL     1      -9.379   5.674  67.929  1.00  0.00    -0.107 C  
HETATM    5  O4* UNL     1      -8.899   6.744  68.764  1.00  0.00    -0.131 OA 
HETATM    6  C1* UNL     1      -7.565   6.362  69.136  1.00  0.00    -0.100 C  
HETATM    7  H3* UNL     1      -7.992   2.729  67.819  1.00  0.00     0.000 HD 
HETATM    8  C2* UNL     1      -7.616   4.851  69.350  1.00  0.00    -0.060 C  
HETATM    9  C3* UNL     1      -8.789   4.390  68.509  1.00  0.00    -0.104 C  
HETATM   10  O3* UNL     1      -8.359   3.528  67.459  1.00  0.00    -0.088 OA 
BRANCH   6  11
HETATM   11  N   UNL     1      -7.080   7.112  70.291  1.00  0.00    -0.065 N  
HETATM   12  C   UNL     1      -7.274   7.699  72.604  1.00  0.00    -0.079 C  
HETATM   13  C   UNL     1      -7.628   6.947  71.554  1.00  0.00    -0.087 C  
HETATM   14  I   UNL     1      -8.128   7.483  74.449  1.00  0.00    -0.253 I  
HETATM   15  C   UNL     1      -6.237   8.746  72.388  1.00  0.00    -0.055 C  
HETATM   16  O   UNL     1      -5.882   9.539  73.253  1.00  0.00    -0.310 OA 
HETATM   17  N   UNL     1      -5.691   8.790  71.134  1.00  0.00    -0.036 N  
HETATM   18  C   UNL     1      -6.100   8.066  70.048  1.00  0.00    -0.029 C  
HETATM   19  H   UNL     1      -4.904   9.423  70.996  1.00  0.00     0.000 HD 
HETATM   20  O   UNL     1      -5.612   8.285  68.942  1.00  0.00    -0.037 OA 
ENDBRANCH   6  11
ENDBRANCH   3   4
TORSDOF 2
ENDMDL
MODEL      245
REMARK 921   NORMALIZED FREE ENERGY PREDICTED BY IDOCK:   -1.98 KCAL/MOL
REMARK 922        TOTAL FREE ENERGY PREDICTED BY IDOCK:   -2.53 KCAL/MOL
REMARK 923 INTER-LIGAND FREE ENERGY PREDICTED BY IDOCK:   -2.19 KCAL/MOL
REMARK 924 INTRA-LIGAND FREE ENERGY PREDICTED BY IDOCK:   -0.34 KCAL/MOL
REMARK 927      BINDING AFFINITY PREDICTED BY RF-SCORE:    0.00 PKD
ROOT
HETATM    1  O5* UNL     1      -5.548   5.147  64.886  1.00  0.00    -0.013 OA 
HETATM    2  H5* UNL     1      -4.924   4.552  64.489  1.00  0.00     0.000 HD 
HETATM    3  C5* UNL     1      -6.187   5.966  63.908  1.00  0.00    -0.025 C  
ENDROOT
BRANCH   3   4
HETATM    4  C4* UNL     1      -7.192   6.923  64.546  1.00  0.00    -0.073 C  
HETATM    5  O4* UNL     1      -7.925   6.284  65.608  1.00  0.00    -0.103 OA 
HETATM    6  C1* UNL     1      -8.447   7.360  66.404  1.00  0.00    -0.129 C  
HETATM    7  H3* UNL     1      -6.247  10.038  64.645  1.00  0.00     0.000 HD 
HETATM    8  C2* UNL     1      -7.355   8.425  66.422  1.00  0.00    -0.083 C  
HETATM    9  C3* UNL     1      -6.553   8.165  65.163  1.00  0.00    -0.052 C  
HETATM   10  O3* UNL     1      -6.644   9.265  64.261  1.00  0.00    -0.083 OA 
BRANCH   6  11
HETATM   11  N   UNL     1      -8.864   6.911  67.730  1.00  0.00    -0.120 N  
HETATM   12  C   UNL     1      -8.299   6.229  69.954  1.00  0.00    -0.129 C  
HETATM   13  C   UNL     1      -7.957   6.741  68.764  1.00  0.00    -0.119 C  
HETATM   14  I   UNL     1      -6.941   5.934  71.454  1.00  0.00    -0.077 I  
HETATM   15  C   UNL     1      -9.721   5.839  70.158  1.00  0.00    -0.170 C  
HETATM   16  O   UNL     1     -10.138   5.298  71.176  1.00  0.00    -0.197 OA 
HETATM   17  N   UNL     1     -10.566   6.112  69.116  1.00  0.00    -0.248 N  
HETATM   18  C   UNL     1     -10.203   6.575  67.881  1.00  0.00    -0.168 C  
HETATM   19  H   UNL     1     -11.561   5.956  69.277  1.00  0.00     0.000 HD 
HETATM   20  O   UNL     1     -11.041   6.661  66.986  1.00  0.00    -0.403 OA 
ENDBRANCH   6  11
ENDBRANCH   3   4
TORSDOF 2
ENDMDL
MODEL      246
REMARK 921   NORMALIZED FREE ENERGY PREDICTED BY IDOCK:   -1.87 KCAL/MOL
REMARK 922        TOTAL FREE ENERGY PREDICTED BY IDOCK:   -2.41 KCAL/MOL
REMARK 923 INTER-LIGAND FREE ENERGY PREDICTED BY IDOCK:   -2.08 KCAL/MOL
REMARK 924 INTRA-LIGAND FREE ENERGY PREDICTED BY IDOCK:   -0.32 KCAL/MOL
REMARK 927      BINDING AFFINITY PREDICTED BY RF-SCORE:    0.00 PKD
ROOT
HETATM    1  O5* UNL     1      -9.686   9.290  64.115  1.00  0.00    -0.273 OA 
HETATM    2  H5* UNL     1      -9.998   8.841  63.339  1.00  0.00     0.000 HD 
HETATM    3  C5* UNL     1      -8.302   9.622  64.008  1.00  0.00    -0.171 C  
ENDROOT
BRANCH   3   4
HETATM    4  C4* UNL     1      -7.801  10.344  65.257  1.00  0.00    -0.137 C  
HETATM    5  O4* UNL     1      -8.830  10.440  66.259  1.00  0.00    -0.146 OA 
HETATM    6  C1* UNL     1      -8.134  10.678  67.492  1.00  0.00    -0.111 C  
HETATM    7  H3* UNL     1      -4.660   9.847  65.959  1.00  0.00     0.000 HD 
HETATM    8  C2* UNL     1      -6.865   9.834  67.418  1.00  0.00    -0.083 C  
HETATM    9  C3* UNL     1      -6.617   9.656  65.933  1.00  0.00    -0.080 C  
HETATM   10  O3* UNL     1      -5.396  10.275  65.539  1.00  0.00    -0.057 OA 
BRANCH   6  11
HETATM   11  N   UNL     1      -8.968  10.399  68.658  1.00  0.00    -0.139 N  
HETATM   12  C   UNL     1     -10.010   8.818  70.123  1.00  0.00    -0.184 C  
HETATM   13  C   UNL     1      -9.166   9.109  69.124  1.00  0.00    -0.144 C  
HETATM   14  I   UNL     1     -10.334   6.904  70.766  1.00  0.00    -0.248 I  
HETATM   15  C   UNL     1     -10.752   9.945  70.753  1.00  0.00    -0.280 C  
HETATM   16  O   UNL     1     -11.600   9.795  71.626  1.00  0.00    -0.375 OA 
HETATM   17  N   UNL     1     -10.440  11.194  70.288  1.00  0.00     0.063 N  
HETATM   18  C   UNL     1      -9.627  11.481  69.226  1.00  0.00     0.329 C  
HETATM   19  H   UNL     1     -10.853  11.985  70.781  1.00  0.00     0.000 HD 
HETATM   20  O   UNL     1      -9.525  12.639  68.826  1.00  0.00    -0.047 OA 
ENDBRANCH   6  11
ENDBRANCH   3   4
TORSDOF 2
ENDMDL
MODEL      247
REMARK 921   NORMALIZED FREE ENERGY PREDICTED BY IDOCK:   -1.83 KCAL/MOL
REMARK 922        TOTAL FREE ENERGY PREDICTED BY IDOCK:   -2.36 KCAL/MOL
REMARK 923 INTER-LIGAND FREE ENERGY PREDICTED BY IDOCK:   -2.47 KCAL/MOL
REMARK 924 INTRA-LIGAND FREE ENERGY PREDICTED BY IDOCK:    0.11 KCAL/MOL
REMARK 927      BINDING AFFINITY PREDICTED BY RF-SCORE:    0.00 PKD
ROOT
HETATM    1  O5* UNL     1      -8.095   9.350  70.270  1.00  0.00    -0.129 OA 
HETATM    2  H5* UNL     1      -7.871   9.058  71.145  1.00  0.00     0.000 HD 
HETATM    3  C5* UNL     1      -7.433  10.570  69.937  1.00  0.00    -0.080 C  
ENDROOT
BRANCH   3   4
HETATM    4  C4* UNL     1      -7.794  11.038  68.529  1.00  0.00    -0.129 C  
HETATM    5  O4* UNL     1      -7.340  10.105  67.531  1.00  0.00    -0.088 OA 
HETATM    6  C1* UNL     1      -8.126  10.391  66.363  1.00  0.00    -0.129 C  
HETATM    7  H3* UNL     1     -10.602  12.672  68.306  1.00  0.00     0.000 HD 
HETATM    8  C2* UNL     1      -9.522  10.725  66.880  1.00  0.00    -0.192 C  
HETATM    9  C3* UNL     1      -9.295  11.203  68.301  1.00  0.00    -0.176 C  
HETATM   10  O3* UNL     1      -9.669  12.570  68.448  1.00  0.00    -0.221 OA 
BRANCH   6  11
HETATM   11  N   UNL     1      -8.094   9.296  65.397  1.00  0.00    -0.118 N  
HETATM   12  C   UNL     1      -7.176   7.208  64.669  1.00  0.00    -0.073 C  
HETATM   13  C   UNL     1      -7.304   8.173  65.589  1.00  0.00    -0.076 C  
HETATM   14  I   UNL     1      -5.966   5.583  64.942  1.00  0.00    -0.023 I  
HETATM   15  C   UNL     1      -7.931   7.361  63.395  1.00  0.00    -0.078 C  
HETATM   16  O   UNL     1      -7.840   6.581  62.454  1.00  0.00    -0.089 OA 
HETATM   17  N   UNL     1      -8.748   8.457  63.318  1.00  0.00    -0.410 N  
HETATM   18  C   UNL     1      -8.827   9.472  64.231  1.00  0.00    -0.213 C  
HETATM   19  H   UNL     1      -9.356   8.522  62.503  1.00  0.00     0.000 HD 
HETATM   20  O   UNL     1      -9.508  10.466  63.988  1.00  0.00    -0.252 OA 
ENDBRANCH   6  11
ENDBRANCH   3   4
TORSDOF 2
ENDMDL
MODEL      248
REMARK 921   NORMALIZED FREE ENERGY PREDICTED BY IDOCK:   -1.77 KCAL/MOL
REMARK 922        TOTAL FREE ENERGY PREDICTED BY IDOCK:   -2.29 KCAL/MOL
REMARK 923 INTER-LIGAND FREE ENERGY PREDICTED BY IDOCK:   -2.58 KCAL/MOL
REMARK 924 INTRA-LIGAND FREE ENERGY PREDICTED BY IDOCK:    0.28 KCAL/MOL
REMARK 927      BINDING AFFINITY PREDICTED BY RF-SCORE:    0.00 PKD
ROOT
HETATM    1  O5* UNL     1      -6.269   6.044  65.524  1.00  0.00    -0.035 OA 
HETATM    2  H5* UNL     1      -5.920   5.363  66.085  1.00  0.00     0.000 HD 
HETATM    3  C5* UNL     1      -6.798   7.130  66.284  1.00  0.00    -0.057 C  
ENDROOT
BRANCH   3   4
HETATM    4  C4* UNL     1      -7.360   8.226  65.381  1.00  0.00    -0.083 C  
HETATM    5  O4* UNL     1      -8.386   8.984  66.049  1.00  0.00    -0.115 OA 
HETATM    6  C1* UNL     1      -8.476  10.219  65.320  1.00  0.00    -0.163 C  
HETATM    7  H3* UNL     1      -5.205   9.551  63.329  1.00  0.00     0.000 HD 
HETATM    8  C2* UNL     1      -7.044  10.572  64.931  1.00  0.00     0.028 C  
HETATM    9  C3* UNL     1      -6.316   9.242  64.923  1.00  0.00    -0.067 C  
HETATM   10  O3* UNL     1      -5.854   8.919  63.614  1.00  0.00    -0.074 OA 
BRANCH   6  11
HETATM   11  N   UNL     1      -9.161  11.259  66.083  1.00  0.00    -0.200 N  
HETATM   12  C   UNL     1     -10.689  13.100  66.158  1.00  0.00    -0.278 C  
HETATM   13  C   UNL     1     -10.126  12.072  65.510  1.00  0.00    -0.252 C  
HETATM   14  I   UNL     1     -12.073  14.326  65.284  1.00  0.00    -0.371 I  
HETATM   15  C   UNL     1     -10.252  13.360  67.558  1.00  0.00    -0.226 C  
HETATM   16  O   UNL     1     -10.644  14.310  68.226  1.00  0.00    -0.235 OA 
HETATM   17  N   UNL     1      -9.356  12.464  68.074  1.00  0.00    -0.198 N  
HETATM   18  C   UNL     1      -8.735  11.455  67.391  1.00  0.00    -0.145 C  
HETATM   19  H   UNL     1      -9.129  12.558  69.064  1.00  0.00     0.000 HD 
HETATM   20  O   UNL     1      -7.853  10.795  67.935  1.00  0.00    -0.105 OA 
ENDBRANCH   6  11
ENDBRANCH   3   4
TORSDOF 2
ENDMDL
MODEL      249
REMARK 921   NORMALIZED FREE ENERGY PREDICTED BY IDOCK:   -1.72 KCAL/MOL
REMARK 922        TOTAL FREE ENERGY PREDICTED BY IDOCK:   -2.24 KCAL/MOL
REMARK 923 INTER-LIGAND FREE ENERGY PREDICTED BY IDOCK:   -3.00 KCAL/MOL
REMARK 924 INTRA-LIGAND FREE ENERGY PREDICTED BY IDOCK:    0.76 KCAL/MOL
REMARK 927      BINDING AFFINITY PREDICTED BY RF-SCORE:    0.00 PKD
ROOT
HETATM    1  O5* UNL     1     -11.094   5.702  66.420  1.00  0.00    -0.704 OA 
HETATM    2  H5* UNL     1     -11.930   5.265  66.309  1.00  0.00     0.000 HD 
HETATM    3  C5* UNL     1     -10.624   5.602  67.763  1.00  0.00    -0.200 C  
ENDROOT
BRANCH   3   4
HETATM    4  C4* UNL     1      -9.279   6.305  67.941  1.00  0.00    -0.116 C  
HETATM    5  O4* UNL     1      -9.284   7.611  67.334  1.00  0.00    -0.130 OA 
HETATM    6  C1* UNL     1      -8.204   8.321  67.961  1.00  0.00    -0.128 C  
HETATM    7  H3* UNL     1      -7.739   5.633  70.731  1.00  0.00     0.000 HD 
HETATM    8  C2* UNL     1      -8.217   7.880  69.422  1.00  0.00    -0.130 C  
HETATM    9  C3* UNL     1      -8.885   6.520  69.400  1.00  0.00    -0.133 C  
HETATM   10  O3* UNL     1      -7.985   5.499  69.823  1.00  0.00    -0.087 OA 
BRANCH   6  11
HETATM   11  N   UNL     1      -8.313   9.765  67.773  1.00  0.00    -0.114 N  
HETATM   12  C   UNL     1      -7.511  11.975  68.227  1.00  0.00    -0.106 C  
HETATM   13  C   UNL     1      -7.376  10.644  68.294  1.00  0.00    -0.089 C  
HETATM   14  I   UNL     1      -6.148  13.260  69.046  1.00  0.00    -0.107 I  
HETATM   15  C   UNL     1      -8.723  12.515  67.551  1.00  0.00    -0.182 C  
HETATM   16  O   UNL     1      -8.989  13.710  67.489  1.00  0.00    -0.188 OA 
HETATM   17  N   UNL     1      -9.557  11.583  66.996  1.00  0.00    -0.184 N  
HETATM   18  C   UNL     1      -9.450  10.225  67.122  1.00  0.00    -0.158 C  
HETATM   19  H   UNL     1     -10.331  11.934  66.434  1.00  0.00     0.000 HD 
HETATM   20  O   UNL     1     -10.334   9.495  66.680  1.00  0.00    -0.243 OA 
ENDBRANCH   6  11
ENDBRANCH   3   4
TORSDOF 2
ENDMDL
MODEL      250
REMARK 921   NORMALIZED FREE ENERGY PREDICTED BY IDOCK:   -1.71 KCAL/MOL
REMARK 922        TOTAL FREE ENERGY PREDICTED BY IDOCK:   -2.23 KCAL/MOL
REMARK 923 INTER-LIGAND FREE ENERGY PREDICTED BY IDOCK:   -3.19 KCAL/MOL
REMARK 924 INTRA-LIGAND FREE ENERGY PREDICTED BY IDOCK:    0.96 KCAL/MOL
REMARK 927      BINDING AFFINITY PREDICTED BY RF-SCORE:    0.00 PKD
ROOT
HETATM    1  O5* UNL     1      -9.553  14.118  68.578  1.00  0.00    -0.217 OA 
HETATM    2  H5* UNL     1      -9.937  14.976  68.443  1.00  0.00     0.000 HD 
HETATM    3  C5* UNL     1      -8.167  14.104  68.239  1.00  0.00    -0.148 C  
ENDROOT
BRANCH   3   4
HETATM    4  C4* UNL     1      -7.550  12.724  68.457  1.00  0.00    -0.120 C  
HETATM    5  O4* UNL     1      -8.563  11.723  68.671  1.00  0.00    -0.142 OA 
HETATM    6  C1* UNL     1      -7.920  10.471  68.384  1.00  0.00    -0.116 C  
HETATM    7  H3* UNL     1      -4.808  12.169  66.791  1.00  0.00     0.000 HD 
HETATM    8  C2* UNL     1      -6.997  10.745  67.200  1.00  0.00    -0.091 C  
HETATM    9  C3* UNL     1      -6.712  12.231  67.280  1.00  0.00    -0.143 C  
HETATM   10  O3* UNL     1      -5.329  12.476  67.523  1.00  0.00    -0.105 OA 
BRANCH   6  11
HETATM   11  N   UNL     1      -8.884   9.398  68.152  1.00  0.00    -0.125 N  
HETATM   12  C   UNL     1     -10.303   7.673  69.014  1.00  0.00    -0.213 C  
HETATM   13  C   UNL     1      -9.500   8.729  69.199  1.00  0.00    -0.157 C  
HETATM   14  I   UNL     1     -11.164   6.662  70.568  1.00  0.00    -0.455 I  
HETATM   15  C   UNL     1     -10.540   7.219  67.616  1.00  0.00    -0.246 C  
HETATM   16  O   UNL     1     -11.199   6.226  67.327  1.00  0.00    -0.332 OA 
HETATM   17  N   UNL     1      -9.959   7.981  66.639  1.00  0.00    -0.327 N  
HETATM   18  C   UNL     1      -9.089   9.018  66.832  1.00  0.00    -0.132 C  
HETATM   19  H   UNL     1     -10.199   7.755  65.674  1.00  0.00     0.000 HD 
HETATM   20  O   UNL     1      -8.535   9.545  65.870  1.00  0.00    -0.120 OA 
ENDBRANCH   6  11
ENDBRANCH   3   4
TORSDOF 2
ENDMDL
MODEL      251
REMARK 921   NORMALIZED FREE ENERGY PREDICTED BY IDOCK:   -1.64 KCAL/MOL
REMARK 922        TOTAL FREE ENERGY PREDICTED BY IDOCK:   -2.15 KCAL/MOL
REMARK 923 INTER-LIGAND FREE ENERGY PREDICTED BY IDOCK:   -1.85 KCAL/MOL
REMARK 924 INTRA-LIGAND FREE ENERGY PREDICTED BY IDOCK:   -0.30 KCAL/MOL
REMARK 927      BINDING AFFINITY PREDICTED BY RF-SCORE:    0.00 PKD
ROOT
HETATM    1  O5* UNL     1      -6.485   5.663  74.043  1.00  0.00    -0.070 OA 
HETATM    2  H5* UNL     1      -5.803   5.708  74.702  1.00  0.00     0.000 HD 
HETATM    3  C5* UNL     1      -5.976   5.210  72.790  1.00  0.00    -0.026 C  
ENDROOT
BRANCH   3   4
HETATM    4  C4* UNL     1      -7.073   5.137  71.731  1.00  0.00    -0.074 C  
HETATM    5  O4* UNL     1      -7.676   6.425  71.508  1.00  0.00    -0.097 OA 
HETATM    6  C1* UNL     1      -8.306   6.329  70.221  1.00  0.00    -0.126 C  
HETATM    7  H3* UNL     1      -6.545   2.973  69.354  1.00  0.00     0.000 HD 
HETATM    8  C2* UNL     1      -7.364   5.487  69.365  1.00  0.00    -0.066 C  
HETATM    9  C3* UNL     1      -6.582   4.660  70.366  1.00  0.00    -0.035 C  
HETATM   10  O3* UNL     1      -6.850   3.270  70.203  1.00  0.00    -0.033 OA 
BRANCH   6  11
HETATM   11  N   UNL     1      -8.611   7.641  69.657  1.00  0.00    -0.135 N  
HETATM   12  C   UNL     1      -7.879   9.643  68.567  1.00  0.00    -0.085 C  
HETATM   13  C   UNL     1      -7.653   8.394  68.996  1.00  0.00    -0.092 C  
HETATM   14  I   UNL     1      -6.442  10.764  67.641  1.00  0.00    -0.062 I  
HETATM   15  C   UNL     1      -9.227  10.226  68.811  1.00  0.00    -0.166 C  
HETATM   16  O   UNL     1      -9.530  11.380  68.526  1.00  0.00    -0.182 OA 
HETATM   17  N   UNL     1     -10.138   9.389  69.398  1.00  0.00    -0.189 N  
HETATM   18  C   UNL     1      -9.886   8.140  69.893  1.00  0.00    -0.186 C  
HETATM   19  H   UNL     1     -11.096   9.730  69.473  1.00  0.00     0.000 HD 
HETATM   20  O   UNL     1     -10.759   7.535  70.512  1.00  0.00    -0.225 OA 
ENDBRANCH   6  11
ENDBRANCH   3   4
TORSDOF 2
ENDMDL
MODEL      252
REMARK 921   NORMALIZED FREE ENERGY PREDICTED BY IDOCK:   -1.43 KCAL/MOL
REMARK 922        TOTAL FREE ENERGY PREDICTED BY IDOCK:   -1.91 KCAL/MOL
REMARK 923 INTER-LIGAND FREE ENERGY PREDICTED BY IDOCK:   -1.60 KCAL/MOL
REMARK 924 INTRA-LIGAND FREE ENERGY PREDICTED BY IDOCK:   -0.32 KCAL/MOL
REMARK 927      BINDING AFFINITY PREDICTED BY RF-SCORE:    0.00 PKD
ROOT
HETATM    1  O5* UNL     1      -8.725   2.724  67.499  1.00  0.00    -0.095 OA 
HETATM    2  H5* UNL     1      -9.321   2.006  67.325  1.00  0.00     0.000 HD 
HETATM    3  C5* UNL     1      -7.835   2.419  68.572  1.00  0.00    -0.053 C  
ENDROOT
BRANCH   3   4
HETATM    4  C4* UNL     1      -6.875   3.574  68.852  1.00  0.00    -0.045 C  
HETATM    5  O4* UNL     1      -7.357   4.807  68.284  1.00  0.00    -0.064 OA 
HETATM    6  C1* UNL     1      -6.664   5.844  68.996  1.00  0.00    -0.060 C  
HETATM    7  H3* UNL     1      -5.321   3.404  71.708  1.00  0.00     0.000 HD 
HETATM    8  C2* UNL     1      -6.570   5.359  70.440  1.00  0.00    -0.039 C  
HETATM    9  C3* UNL     1      -6.660   3.850  70.338  1.00  0.00    -0.032 C  
HETATM   10  O3* UNL     1      -5.455   3.233  70.784  1.00  0.00    -0.011 OA 
BRANCH   6  11
HETATM   11  N   UNL     1      -7.313   7.144  68.845  1.00  0.00    -0.090 N  
HETATM   12  C   UNL     1      -9.094   8.642  69.405  1.00  0.00    -0.149 C  
HETATM   13  C   UNL     1      -8.417   7.503  69.601  1.00  0.00    -0.135 C  
HETATM   14  I   UNL     1     -10.754   9.136  70.492  1.00  0.00    -0.370 I  
HETATM   15  C   UNL     1      -8.616   9.555  68.330  1.00  0.00    -0.120 C  
HETATM   16  O   UNL     1      -9.192  10.590  68.012  1.00  0.00    -0.138 OA 
HETATM   17  N   UNL     1      -7.474   9.164  67.684  1.00  0.00    -0.084 N  
HETATM   18  C   UNL     1      -6.824   7.971  67.841  1.00  0.00    -0.073 C  
HETATM   19  H   UNL     1      -7.069   9.826  67.023  1.00  0.00     0.000 HD 
HETATM   20  O   UNL     1      -5.878   7.685  67.111  1.00  0.00    -0.037 OA 
ENDBRANCH   6  11
ENDBRANCH   3   4
TORSDOF 2
ENDMDL
MODEL      253
REMARK 921   NORMALIZED FREE ENERGY PREDICTED BY IDOCK:   -1.36 KCAL/MOL
REMARK 922        TOTAL FREE ENERGY PREDICTED BY IDOCK:   -1.84 KCAL/MOL
REMARK 923 INTER-LIGAND FREE ENERGY PREDICTED BY IDOCK:   -2.51 KCAL/MOL
REMARK 924 INTRA-LIGAND FREE ENERGY PREDICTED BY IDOCK:    0.67 KCAL/MOL
REMARK 927      BINDING AFFINITY PREDICTED BY RF-SCORE:    0.00 PKD
ROOT
HETATM    1  O5* UNL     1      -9.692   5.200  65.898  1.00  0.00    -0.163 OA 
HETATM    2  H5* UNL     1     -10.166   4.529  66.374  1.00  0.00     0.000 HD 
HETATM    3  C5* UNL     1      -8.864   5.973  66.767  1.00  0.00    -0.120 C  
ENDROOT
BRANCH   3   4
HETATM    4  C4* UNL     1      -8.100   7.052  66.002  1.00  0.00    -0.122 C  
HETATM    5  O4* UNL     1      -8.744   8.335  66.119  1.00  0.00    -0.133 OA 
HETATM    6  C1* UNL     1      -7.727   9.296  65.794  1.00  0.00    -0.098 C  
HETATM    7  H3* UNL     1      -4.867   6.668  65.951  1.00  0.00     0.000 HD 
HETATM    8  C2* UNL     1      -6.436   8.749  66.397  1.00  0.00    -0.062 C  
HETATM    9  C3* UNL     1      -6.667   7.253  66.487  1.00  0.00    -0.060 C  
HETATM   10  O3* UNL     1      -5.758   6.543  65.649  1.00  0.00    -0.024 OA 
BRANCH   6  11
HETATM   11  N   UNL     1      -8.074  10.640  66.250  1.00  0.00    -0.146 N  
HETATM   12  C   UNL     1      -9.735  12.306  66.695  1.00  0.00    -0.222 C  
HETATM   13  C   UNL     1      -9.392  11.049  66.384  1.00  0.00    -0.183 C  
HETATM   14  I   UNL     1     -11.683  12.911  66.837  1.00  0.00    -0.346 I  
HETATM   15  C   UNL     1      -8.638  13.289  66.913  1.00  0.00    -0.105 C  
HETATM   16  O   UNL     1      -8.828  14.480  67.135  1.00  0.00    -0.205 OA 
HETATM   17  N   UNL     1      -7.367  12.786  66.841  1.00  0.00    -0.363 N  
HETATM   18  C   UNL     1      -7.020  11.519  66.459  1.00  0.00    -0.009 C  
HETATM   19  H   UNL     1      -6.607  13.415  67.096  1.00  0.00     0.000 HD 
HETATM   20  O   UNL     1      -5.836  11.224  66.311  1.00  0.00    -0.145 OA 
ENDBRANCH   6  11
ENDBRANCH   3   4
TORSDOF 2
ENDMDL
MODEL      254
REMARK 921   NORMALIZED FREE ENERGY PREDICTED BY IDOCK:   -0.90 KCAL/MOL
REMARK 922        TOTAL FREE ENERGY PREDICTED BY IDOCK:   -1.33 KCAL/MOL
REMARK 923 INTER-LIGAND FREE ENERGY PREDICTED BY IDOCK:   -0.91 KCAL/MOL
REMARK 924 INTRA-LIGAND FREE ENERGY PREDICTED BY IDOCK:   -0.42 KCAL/MOL
REMARK 927      BINDING AFFINITY PREDICTED BY RF-SCORE:    0.00 PKD
ROOT
HETATM    1  O5* UNL     1      -5.706   5.302  73.540  1.00  0.00    -0.022 OA 
HETATM    2  H5* UNL     1      -4.972   5.075  74.097  1.00  0.00     0.000 HD 
HETATM    3  C5* UNL     1      -5.345   5.282  72.160  1.00  0.00    -0.012 C  
ENDROOT
BRANCH   3   4
HETATM    4  C4* UNL     1      -6.527   5.647  71.265  1.00  0.00    -0.044 C  
HETATM    5  O4* UNL     1      -6.144   5.686  69.877  1.00  0.00    -0.023 OA 
HETATM    6  C1* UNL     1      -7.373   5.558  69.144  1.00  0.00    -0.077 C  
HETATM    7  H3* UNL     1      -9.417   4.554  72.295  1.00  0.00     0.000 HD 
HETATM    8  C2* UNL     1      -8.222   4.568  69.936  1.00  0.00    -0.070 C  
HETATM    9  C3* UNL     1      -7.693   4.666  71.353  1.00  0.00    -0.086 C  
HETATM   10  O3* UNL     1      -8.691   5.165  72.240  1.00  0.00    -0.124 OA 
BRANCH   6  11
HETATM   11  N   UNL     1      -7.146   5.171  67.754  1.00  0.00    -0.065 N  
HETATM   12  C   UNL     1      -6.618   3.486  66.138  1.00  0.00    -0.037 C  
HETATM   13  C   UNL     1      -6.934   3.851  67.387  1.00  0.00    -0.055 C  
HETATM   14  I   UNL     1      -6.254   1.542  65.620  1.00  0.00    -0.023 I  
HETATM   15  C   UNL     1      -6.505   4.557  65.110  1.00  0.00    -0.036 C  
HETATM   16  O   UNL     1      -6.156   4.354  63.953  1.00  0.00    -0.017 OA 
HETATM   17  N   UNL     1      -6.808   5.822  65.537  1.00  0.00    -0.057 N  
HETATM   18  C   UNL     1      -7.066   6.201  66.826  1.00  0.00    -0.073 C  
HETATM   19  H   UNL     1      -6.844   6.552  64.826  1.00  0.00     0.000 HD 
HETATM   20  O   UNL     1      -7.200   7.390  67.103  1.00  0.00    -0.084 OA 
ENDBRANCH   6  11
ENDBRANCH   3   4
TORSDOF 2
ENDMDL
MODEL      255
REMARK 921   NORMALIZED FREE ENERGY PREDICTED BY IDOCK:   -0.47 KCAL/MOL
REMARK 922        TOTAL FREE ENERGY PREDICTED BY IDOCK:   -0.85 KCAL/MOL
REMARK 923 INTER-LIGAND FREE ENERGY PREDICTED BY IDOCK:   -0.65 KCAL/MOL
REMARK 924 INTRA-LIGAND FREE ENERGY PREDICTED BY IDOCK:   -0.20 KCAL/MOL
REMARK 927      BINDING AFFINITY PREDICTED BY RF-SCORE:    0.00 PKD
ROOT
HETATM    1  O5* UNL     1     -10.314  14.859  73.553  1.00  0.00     2.733 OA 
HETATM    2  H5* UNL     1      -9.926  14.700  74.405  1.00  0.00     0.000 HD 
HETATM    3  C5* UNL     1     -11.737  14.756  73.597  1.00  0.00     0.102 C  
ENDROOT
BRANCH   3   4
HETATM    4  C4* UNL     1     -12.361  15.011  72.227  1.00  0.00    -0.353 C  
HETATM    5  O4* UNL     1     -11.386  15.501  71.287  1.00  0.00    -0.344 OA 
HETATM    6  C1* UNL     1     -11.950  15.244  69.992  1.00  0.00    -0.343 C  
HETATM    7  H3* UNL     1     -14.762  12.967  71.412  1.00  0.00     0.000 HD 
HETATM    8  C2* UNL     1     -12.656  13.897  70.111  1.00  0.00    -0.285 C  
HETATM    9  C3* UNL     1     -12.973  13.767  71.588  1.00  0.00    -0.364 C  
HETATM   10  O3* UNL     1     -14.381  13.741  71.809  1.00  0.00    -0.293 OA 
BRANCH   6  11
HETATM   11  N   UNL     1     -10.944  15.298  68.934  1.00  0.00    -0.248 N  
HETATM   12  C   UNL     1      -9.468  14.168  67.426  1.00  0.00    -0.220 C  
HETATM   13  C   UNL     1     -10.465  14.151  68.320  1.00  0.00    -0.249 C  
HETATM   14  I   UNL     1      -8.733  12.464  66.567  1.00  0.00     0.214 I  
HETATM   15  C   UNL     1      -8.867  15.486  67.082  1.00  0.00    -0.212 C  
HETATM   16  O   UNL     1      -7.907  15.620  66.332  1.00  0.00    -0.111 OA 
HETATM   17  N   UNL     1      -9.450  16.575  67.672  1.00  0.00    -0.224 N  
HETATM   18  C   UNL     1     -10.424  16.550  68.632  1.00  0.00    -0.304 C  
HETATM   19  H   UNL     1      -9.128  17.493  67.365  1.00  0.00     0.000 HD 
HETATM   20  O   UNL     1     -10.778  17.593  69.176  1.00  0.00    -0.146 OA 
ENDBRANCH   6  11
ENDBRANCH   3   4
TORSDOF 2
ENDMDL
MODEL      256
REMARK 921   NORMALIZED FREE ENERGY PREDICTED BY IDOCK:    0.17 KCAL/MOL
REMARK 922        TOTAL FREE ENERGY PREDICTED BY IDOCK:   -0.13 KCAL/MOL
REMARK 923 INTER-LIGAND FREE ENERGY PREDICTED BY IDOCK:   -0.25 KCAL/MOL
REMARK 924 INTRA-LIGAND FREE ENERGY PREDICTED BY IDOCK:    0.11 KCAL/MOL
REMARK 927      BINDING AFFINITY PREDICTED BY RF-SCORE:    0.00 PKD
ROOT
HETATM    1  O5* UNL     1     -11.998  15.865  64.092  1.00  0.00    -0.836 OA 
HETATM    2  H5* UNL     1     -11.906  15.322  63.319  1.00  0.00     0.000 HD 
HETATM    3  C5* UNL     1     -10.744  16.411  64.501  1.00  0.00     0.351 C  
ENDROOT
BRANCH   3   4
HETATM    4  C4* UNL     1     -10.891  17.285  65.745  1.00  0.00    -0.023 C  
HETATM    5  O4* UNL     1     -11.438  16.540  66.850  1.00  0.00     0.332 OA 
HETATM    6  C1* UNL     1     -11.083  17.291  68.022  1.00  0.00    -0.065 C  
HETATM    7  H3* UNL     1      -8.603  19.576  66.089  1.00  0.00     0.000 HD 
HETATM    8  C2* UNL     1      -9.680  17.830  67.756  1.00  0.00    -0.285 C  
HETATM    9  C3* UNL     1      -9.573  17.872  66.244  1.00  0.00    -0.241 C  
HETATM   10  O3* UNL     1      -9.423  19.211  65.779  1.00  0.00    -0.398 OA 
BRANCH   6  11
HETATM   11  N   UNL     1     -11.194  16.493  69.240  1.00  0.00    -0.266 N  
HETATM   12  C   UNL     1     -11.859  14.469  70.333  1.00  0.00    -0.311 C  
HETATM   13  C   UNL     1     -11.646  15.183  69.219  1.00  0.00    -0.324 C  
HETATM   14  I   UNL     1     -12.577  12.555  70.291  1.00  0.00     0.332 I  
HETATM   15  C   UNL     1     -11.582  15.126  71.640  1.00  0.00    -0.400 C  
HETATM   16  O   UNL     1     -11.802  14.599  72.725  1.00  0.00    -0.131 OA 
HETATM   17  N   UNL     1     -11.063  16.391  71.570  1.00  0.00     0.143 N  
HETATM   18  C   UNL     1     -10.909  17.140  70.436  1.00  0.00     0.664 C  
HETATM   19  H   UNL     1     -10.763  16.815  72.447  1.00  0.00     0.000 HD 
HETATM   20  O   UNL     1     -10.549  18.312  70.517  1.00  0.00     1.213 OA 
ENDBRANCH   6  11
ENDBRANCH   3   4
TORSDOF 2
ENDMDL
MODEL      257
REMARK 921   NORMALIZED FREE ENERGY PREDICTED BY IDOCK:    1.77 KCAL/MOL
REMARK 922        TOTAL FREE ENERGY PREDICTED BY IDOCK:    1.66 KCAL/MOL
REMARK 923 INTER-LIGAND FREE ENERGY PREDICTED BY IDOCK:    0.64 KCAL/MOL
REMARK 924 INTRA-LIGAND FREE ENERGY PREDICTED BY IDOCK:    1.02 KCAL/MOL
REMARK 927      BINDING AFFINITY PREDICTED BY RF-SCORE:    0.00 PKD
ROOT
HETATM    1  O5* UNL     1      -6.356  14.268  70.087  1.00  0.00    -0.152 OA 
HETATM    2  H5* UNL     1      -5.732  13.605  70.356  1.00  0.00     0.000 HD 
HETATM    3  C5* UNL     1      -7.610  14.107  70.748  1.00  0.00     2.204 C  
ENDROOT
BRANCH   3   4
HETATM    4  C4* UNL     1      -8.614  15.174  70.316  1.00  0.00     0.856 C  
HETATM    5  O4* UNL     1      -7.958  16.281  69.669  1.00  0.00    -0.042 OA 
HETATM    6  C1* UNL     1      -8.989  16.939  68.914  1.00  0.00    -0.215 C  
HETATM    7  H3* UNL     1     -11.521  14.029  69.397  1.00  0.00     0.000 HD 
HETATM    8  C2* UNL     1      -9.873  15.822  68.367  1.00  0.00    -0.206 C  
HETATM    9  C3* UNL     1      -9.662  14.669  69.327  1.00  0.00    -0.041 C  
HETATM   10  O3* UNL     1     -10.869  14.344  70.011  1.00  0.00    -0.087 OA 
BRANCH   6  11
HETATM   11  N   UNL     1      -8.440  17.822  67.888  1.00  0.00    -0.240 N  
HETATM   12  C   UNL     1      -7.018  19.649  67.278  1.00  0.00    -0.207 C  
HETATM   13  C   UNL     1      -7.458  18.757  68.175  1.00  0.00    -0.266 C  
HETATM   14  I   UNL     1      -5.608  21.058  67.730  1.00  0.00    -0.386 I  
HETATM   15  C   UNL     1      -7.614  19.611  65.914  1.00  0.00    -0.310 C  
HETATM   16  O   UNL     1      -7.342  20.417  65.032  1.00  0.00    -0.138 OA 
HETATM   17  N   UNL     1      -8.518  18.608  65.690  1.00  0.00     0.416 N  
HETATM   18  C   UNL     1      -9.013  17.741  66.625  1.00  0.00    -0.266 C  
HETATM   19  H   UNL     1      -8.854  18.495  64.734  1.00  0.00     0.000 HD 
HETATM   20  O   UNL     1      -9.917  16.963  66.326  1.00  0.00    -0.282 OA 
ENDBRANCH   6  11
ENDBRANCH   3   4
TORSDOF 2
ENDMDL
MODEL      258
REMARK 921   NORMALIZED FREE ENERGY PREDICTED BY IDOCK:    2.43 KCAL/MOL
REMARK 922        TOTAL FREE ENERGY PREDICTED BY IDOCK:    2.39 KCAL/MOL
REMARK 923 INTER-LIGAND FREE ENERGY PREDICTED BY IDOCK:    2.06 KCAL/MOL
REMARK 924 INTRA-LIGAND FREE ENERGY PREDICTED BY IDOCK:    0.33 KCAL/MOL
REMARK 927      BINDING AFFINITY PREDICTED BY RF-SCORE:    0.00 PKD
ROOT
HETATM    1  O5* UNL     1     -12.498   7.330  66.622  1.00  0.00     3.461 OA 
HETATM    2  H5* UNL     1     -12.544   8.095  66.061  1.00  0.00     0.000 HD 
HETATM    3  C5* UNL     1     -11.321   7.339  67.428  1.00  0.00     0.361 C  
ENDROOT
BRANCH   3   4
HETATM    4  C4* UNL     1     -11.247   6.109  68.329  1.00  0.00    -0.086 C  
HETATM    5  O4* UNL     1     -10.308   5.141  67.823  1.00  0.00    -0.159 OA 
HETATM    6  C1* UNL     1      -9.983   4.309  68.947  1.00  0.00     0.039 C  
HETATM    7  H3* UNL     1     -11.667   6.706  71.503  1.00  0.00     0.000 HD 
HETATM    8  C2* UNL     1      -9.926   5.247  70.150  1.00  0.00    -0.313 C  
HETATM    9  C3* UNL     1     -10.806   6.417  69.757  1.00  0.00    -0.314 C  
HETATM   10  O3* UNL     1     -11.941   6.514  70.614  1.00  0.00    -0.386 OA 
BRANCH   6  11
HETATM   11  N   UNL     1      -8.758   3.544  68.730  1.00  0.00    -0.091 N  
HETATM   12  C   UNL     1      -6.618   2.803  69.506  1.00  0.00    -0.033 C  
HETATM   13  C   UNL     1      -7.795   3.408  69.717  1.00  0.00    -0.049 C  
HETATM   14  I   UNL     1      -5.183   2.656  70.956  1.00  0.00    -0.004 I  
HETATM   15  C   UNL     1      -6.356   2.252  68.148  1.00  0.00    -0.029 C  
HETATM   16  O   UNL     1      -5.292   1.740  67.817  1.00  0.00    -0.012 OA 
HETATM   17  N   UNL     1      -7.388   2.358  67.256  1.00  0.00    -0.056 N  
HETATM   18  C   UNL     1      -8.562   3.032  67.454  1.00  0.00    -0.104 C  
HETATM   19  H   UNL     1      -7.271   1.889  66.358  1.00  0.00     0.000 HD 
HETATM   20  O   UNL     1      -9.360   3.161  66.528  1.00  0.00    -0.159 OA 
ENDBRANCH   6  11
ENDBRANCH   3   4
TORSDOF 2
ENDMDL
MODEL      259
REMARK 921   NORMALIZED FREE ENERGY PREDICTED BY IDOCK:    6.61 KCAL/MOL
REMARK 922        TOTAL FREE ENERGY PREDICTED BY IDOCK:    7.06 KCAL/MOL
REMARK 923 INTER-LIGAND FREE ENERGY PREDICTED BY IDOCK:    7.50 KCAL/MOL
REMARK 924 INTRA-LIGAND FREE ENERGY PREDICTED BY IDOCK:   -0.44 KCAL/MOL
REMARK 927      BINDING AFFINITY PREDICTED BY RF-SCORE:    0.00 PKD
ROOT
HETATM    1  O5* UNL     1     -12.650  19.709  65.629  1.00  0.00     4.943 OA 
HETATM    2  H5* UNL     1     -12.975  20.595  65.526  1.00  0.00     0.000 HD 
HETATM    3  C5* UNL     1     -11.476  19.672  66.439  1.00  0.00     0.799 C  
ENDROOT
BRANCH   3   4
HETATM    4  C4* UNL     1     -10.953  18.246  66.605  1.00  0.00     0.169 C  
HETATM    5  O4* UNL     1     -10.742  17.921  67.992  1.00  0.00    -0.378 OA 
HETATM    6  C1* UNL     1     -10.728  16.486  68.043  1.00  0.00    -0.343 C  
HETATM    7  H3* UNL     1     -12.074  16.112  64.416  1.00  0.00     0.000 HD 
HETATM    8  C2* UNL     1     -11.785  16.028  67.042  1.00  0.00     0.603 C  
HETATM    9  C3* UNL     1     -11.896  17.177  66.060  1.00  0.00     2.502 C  
HETATM   10  O3* UNL     1     -11.487  16.777  64.755  1.00  0.00    -0.425 OA 
BRANCH   6  11
HETATM   11  N   UNL     1     -10.933  15.982  69.399  1.00  0.00    -0.296 N  
HETATM   12  C   UNL     1     -12.386  15.590  71.261  1.00  0.00    -0.408 C  
HETATM   13  C   UNL     1     -12.189  15.946  69.984  1.00  0.00    -0.188 C  
HETATM   14  I   UNL     1     -14.237  15.592  72.129  1.00  0.00    -0.100 I  
HETATM   15  C   UNL     1     -11.193  15.211  72.067  1.00  0.00    -0.146 C  
HETATM   16  O   UNL     1     -11.239  14.935  73.260  1.00  0.00     0.160 OA 
HETATM   17  N   UNL     1     -10.002  15.197  71.392  1.00  0.00     0.789 N  
HETATM   18  C   UNL     1      -9.794  15.623  70.109  1.00  0.00     0.052 C  
HETATM   19  H   UNL     1      -9.192  14.834  71.894  1.00  0.00     0.000 HD 
HETATM   20  O   UNL     1      -8.653  15.678  69.656  1.00  0.00    -0.230 OA 
ENDBRANCH   6  11
ENDBRANCH   3   4
TORSDOF 2
ENDMDL
MODEL      260
REMARK 921   NORMALIZED FREE ENERGY PREDICTED BY IDOCK:   12.93 KCAL/MOL
REMARK 922        TOTAL FREE ENERGY PREDICTED BY IDOCK:   14.12 KCAL/MOL
REMARK 923 INTER-LIGAND FREE ENERGY PREDICTED BY IDOCK:   13.54 KCAL/MOL
REMARK 924 INTRA-LIGAND FREE ENERGY PREDICTED BY IDOCK:    0.59 KCAL/MOL
REMARK 927      BINDING AFFINITY PREDICTED BY RF-SCORE:    0.00 PKD
ROOT
HETATM    1  O5* UNL     1      -5.174  16.008  70.876  1.00  0.00    -0.176 OA 
HETATM    2  H5* UNL     1      -4.369  16.498  70.994  1.00  0.00     0.000 HD 
HETATM    3  C5* UNL     1      -6.316  16.776  71.253  1.00  0.00     2.200 C  
ENDROOT
BRANCH   3   4
HETATM    4  C4* UNL     1      -7.610  15.988  71.063  1.00  0.00     3.459 C  
HETATM    5  O4* UNL     1      -8.183  16.223  69.763  1.00  0.00     0.149 OA 
HETATM    6  C1* UNL     1      -9.068  15.115  69.536  1.00  0.00    -0.128 C  
HETATM    7  H3* UNL     1      -7.684  13.094  72.555  1.00  0.00     0.000 HD 
HETATM    8  C2* UNL     1      -8.363  13.898  70.130  1.00  0.00     2.152 C  
HETATM    9  C3* UNL     1      -7.433  14.476  71.178  1.00  0.00     2.262 C  
HETATM   10  O3* UNL     1      -7.795  14.035  72.484  1.00  0.00     5.056 OA 
BRANCH   6  11
HETATM   11  N   UNL     1      -9.419  14.971  68.126  1.00  0.00    -0.192 N  
HETATM   12  C   UNL     1     -10.033  13.575  66.280  1.00  0.00    -0.298 C  
HETATM   13  C   UNL     1      -9.811  13.755  67.589  1.00  0.00    -0.234 C  
HETATM   14  I   UNL     1     -10.559  11.762  65.494  1.00  0.00    -0.341 I  
HETATM   15  C   UNL     1      -9.856  14.747  65.380  1.00  0.00    -0.260 C  
HETATM   16  O   UNL     1      -9.963  14.689  64.160  1.00  0.00     0.643 OA 
HETATM   17  N   UNL     1      -9.545  15.928  65.999  1.00  0.00    -0.326 N  
HETATM   18  C   UNL     1      -9.256  16.094  67.325  1.00  0.00    -0.208 C  
HETATM   19  H   UNL     1      -9.529  16.764  65.415  1.00  0.00     0.000 HD 
HETATM   20  O   UNL     1      -8.868  17.185  67.739  1.00  0.00    -0.219 OA 
ENDBRANCH   6  11
ENDBRANCH   3   4
TORSDOF 2
ENDMDL
MODEL      261
REMARK 921   NORMALIZED FREE ENERGY PREDICTED BY IDOCK:   56.63 KCAL/MOL
REMARK 922        TOTAL FREE ENERGY PREDICTED BY IDOCK:   62.94 KCAL/MOL
REMARK 923 INTER-LIGAND FREE ENERGY PREDICTED BY IDOCK:   62.70 KCAL/MOL
REMARK 924 INTRA-LIGAND FREE ENERGY PREDICTED BY IDOCK:    0.24 KCAL/MOL
REMARK 927      BINDING AFFINITY PREDICTED BY RF-SCORE:    0.00 PKD
ROOT
HETATM    1  O5* UNL     1      -7.076  12.036  72.676  1.00  0.00     6.997 OA 
HETATM    2  H5* UNL     1      -6.621  11.487  73.304  1.00  0.00     0.000 HD 
HETATM    3  C5* UNL     1      -8.346  12.458  73.171  1.00  0.00    21.639 C  
ENDROOT
BRANCH   3   4
HETATM    4  C4* UNL     1      -9.078  13.339  72.161  1.00  0.00    16.722 C  
HETATM    5  O4* UNL     1      -8.199  14.328  71.592  1.00  0.00     4.007 OA 
HETATM    6  C1* UNL     1      -8.836  14.741  70.373  1.00  0.00     1.419 C  
HETATM    7  H3* UNL     1     -11.413  11.832  70.463  1.00  0.00     0.000 HD 
HETATM    8  C2* UNL     1      -9.457  13.477  69.785  1.00  0.00     1.772 C  
HETATM    9  C3* UNL     1      -9.663  12.568  70.980  1.00  0.00     9.509 C  
HETATM   10  O3* UNL     1     -11.048  12.312  71.197  1.00  0.00     2.310 OA 
BRANCH   6  11
HETATM   11  N   UNL     1      -7.911  15.425  69.473  1.00  0.00    -0.228 N  
HETATM   12  C   UNL     1      -7.464  17.192  67.921  1.00  0.00    -0.177 C  
HETATM   13  C   UNL     1      -8.252  16.605  68.831  1.00  0.00    -0.231 C  
HETATM   14  I   UNL     1      -8.002  18.904  66.942  1.00  0.00    -0.314 I  
HETATM   15  C   UNL     1      -6.164  16.538  67.605  1.00  0.00    -0.144 C  
HETATM   16  O   UNL     1      -5.392  16.942  66.743  1.00  0.00    -0.217 OA 
HETATM   17  N   UNL     1      -5.869  15.421  68.339  1.00  0.00    -0.100 N  
HETATM   18  C   UNL     1      -6.703  14.789  69.220  1.00  0.00    -0.137 C  
HETATM   19  H   UNL     1      -4.939  15.022  68.218  1.00  0.00     0.000 HD 
HETATM   20  O   UNL     1      -6.368  13.719  69.725  1.00  0.00    -0.126 OA 
ENDBRANCH   6  11
ENDBRANCH   3   4
TORSDOF 2
ENDMDL
