MODEL        1
REMARK 921   NORMALIZED FREE ENERGY PREDICTED BY IDOCK:   -5.22 KCAL/MOL
REMARK 922        TOTAL FREE ENERGY PREDICTED BY IDOCK:   -6.07 KCAL/MOL
REMARK 923 INTER-LIGAND FREE ENERGY PREDICTED BY IDOCK:   -6.14 KCAL/MOL
REMARK 924 INTRA-LIGAND FREE ENERGY PREDICTED BY IDOCK:    0.07 KCAL/MOL
REMARK 927      BINDING AFFINITY PREDICTED BY RF-SCORE:    0.00 PKD
ROOT
HETATM    1 CL   UNL     1     -12.664  11.723  63.210  1.00  0.00    -0.553 Cl 
HETATM    2  C   UNL     1     -12.122  13.309  63.818  1.00  0.00    -0.482 C  
HETATM    3  C   UNL     1     -10.709  13.200  64.375  1.00  0.00    -0.407 C  
ENDROOT
BRANCH   3   4
HETATM    4  N   UNL     1     -10.084  14.497  64.529  1.00  0.00    -0.586 NA 
HETATM    5  H   UNL     1      -9.088  14.571  64.322  1.00  0.00     0.000 HD 
BRANCH   4   6
HETATM    6  P   UNL     1     -10.860  15.849  65.009  1.00  0.00    -0.191 P  
HETATM    7  O   UNL     1     -11.647  15.392  66.340  1.00  0.00    -0.099 OA 
HETATM    8  O   UNL     1     -11.772  16.472  64.002  1.00  0.00    -1.111 OA 
HETATM    9  C   UNL     1     -10.916  14.797  67.399  1.00  0.00    -0.313 C  
HETATM   10  C   UNL     1      -9.539  15.416  67.698  1.00  0.00    -0.210 C  
HETATM   11  C   UNL     1      -8.797  16.081  66.534  1.00  0.00    -0.305 C  
HETATM   12  N   UNL     1      -9.688  16.829  65.649  1.00  0.00    -0.553 NA 
BRANCH  12  13
HETATM   13  C   UNL     1     -10.200  18.064  66.300  1.00  0.00    -0.381 C  
HETATM   14  C   UNL     1      -9.179  19.208  66.397  1.00  0.00    -0.343 C  
HETATM   15 CL   UNL     1      -9.870  20.590  67.288  1.00  0.00    -0.605 Cl 
ENDBRANCH  12  13
ENDBRANCH   4   6
ENDBRANCH   3   4
TORSDOF 3
ENDMDL
MODEL        2
REMARK 921   NORMALIZED FREE ENERGY PREDICTED BY IDOCK:   -4.81 KCAL/MOL
REMARK 922        TOTAL FREE ENERGY PREDICTED BY IDOCK:   -5.59 KCAL/MOL
REMARK 923 INTER-LIGAND FREE ENERGY PREDICTED BY IDOCK:   -5.40 KCAL/MOL
REMARK 924 INTRA-LIGAND FREE ENERGY PREDICTED BY IDOCK:   -0.19 KCAL/MOL
REMARK 927      BINDING AFFINITY PREDICTED BY RF-SCORE:    0.00 PKD
ROOT
HETATM    1 CL   UNL     1      -8.579  17.061  66.162  1.00  0.00    -0.286 Cl 
HETATM    2  C   UNL     1      -9.562  15.581  66.022  1.00  0.00    -0.345 C  
HETATM    3  C   UNL     1     -10.725  15.815  65.065  1.00  0.00    -0.421 C  
ENDROOT
BRANCH   3   4
HETATM    4  N   UNL     1     -11.322  14.572  64.623  1.00  0.00    -0.511 NA 
HETATM    5  H   UNL     1     -11.406  14.417  63.618  1.00  0.00     0.000 HD 
BRANCH   4   6
HETATM    6  P   UNL     1     -11.870  13.401  65.618  1.00  0.00    -0.421 P  
HETATM    7  O   UNL     1     -12.992  12.644  64.743  1.00  0.00    -0.816 OA 
HETATM    8  O   UNL     1     -12.400  13.860  66.938  1.00  0.00    -0.410 OA 
HETATM    9  C   UNL     1     -12.639  12.133  63.468  1.00  0.00    -0.506 C  
HETATM   10  C   UNL     1     -11.252  11.473  63.368  1.00  0.00    -0.342 C  
HETATM   11  C   UNL     1     -10.163  11.974  64.320  1.00  0.00    -0.318 C  
HETATM   12  N   UNL     1     -10.671  12.259  65.661  1.00  0.00    -0.259 NA 
BRANCH  12  13
HETATM   13  C   UNL     1     -11.027  11.013  66.391  1.00  0.00    -0.137 C  
HETATM   14  C   UNL     1      -9.984   9.890  66.288  1.00  0.00    -0.256 C  
HETATM   15 CL   UNL     1     -10.567   8.417  67.108  1.00  0.00    -0.373 Cl 
ENDBRANCH  12  13
ENDBRANCH   4   6
ENDBRANCH   3   4
TORSDOF 3
ENDMDL
MODEL        3
REMARK 921   NORMALIZED FREE ENERGY PREDICTED BY IDOCK:   -4.80 KCAL/MOL
REMARK 922        TOTAL FREE ENERGY PREDICTED BY IDOCK:   -5.58 KCAL/MOL
REMARK 923 INTER-LIGAND FREE ENERGY PREDICTED BY IDOCK:   -5.44 KCAL/MOL
REMARK 924 INTRA-LIGAND FREE ENERGY PREDICTED BY IDOCK:   -0.14 KCAL/MOL
REMARK 927      BINDING AFFINITY PREDICTED BY RF-SCORE:    0.00 PKD
ROOT
HETATM    1 CL   UNL     1      -9.831  20.957  67.567  1.00  0.00    -0.461 Cl 
HETATM    2  C   UNL     1     -10.561  19.548  66.756  1.00  0.00    -0.488 C  
HETATM    3  C   UNL     1      -9.963  18.260  67.308  1.00  0.00    -0.335 C  
ENDROOT
BRANCH   3   4
HETATM    4  N   UNL     1     -10.765  17.102  66.974  1.00  0.00    -0.215 NA 
HETATM    5  H   UNL     1     -11.467  16.800  67.651  1.00  0.00     0.000 HD 
BRANCH   4   6
HETATM    6  P   UNL     1     -10.629  16.246  65.592  1.00  0.00    -0.215 P  
HETATM    7  O   UNL     1      -9.056  15.905  65.502  1.00  0.00    -0.286 OA 
HETATM    8  O   UNL     1     -11.131  16.918  64.355  1.00  0.00    -1.128 OA 
HETATM    9  C   UNL     1      -8.433  15.249  66.595  1.00  0.00    -0.229 C  
HETATM   10  C   UNL     1      -9.252  14.135  67.268  1.00  0.00    -0.222 C  
HETATM   11  C   UNL     1     -10.778  14.251  67.216  1.00  0.00    -0.277 C  
HETATM   12  N   UNL     1     -11.263  14.754  65.931  1.00  0.00    -0.339 NA 
BRANCH  12  13
HETATM   13  C   UNL     1     -11.095  13.748  64.849  1.00  0.00    -0.362 C  
HETATM   14  C   UNL     1     -12.327  12.865  64.599  1.00  0.00    -0.439 C  
HETATM   15 CL   UNL     1     -11.971  11.632  63.358  1.00  0.00    -0.444 Cl 
ENDBRANCH  12  13
ENDBRANCH   4   6
ENDBRANCH   3   4
TORSDOF 3
ENDMDL
MODEL        4
REMARK 921   NORMALIZED FREE ENERGY PREDICTED BY IDOCK:   -4.79 KCAL/MOL
REMARK 922        TOTAL FREE ENERGY PREDICTED BY IDOCK:   -5.57 KCAL/MOL
REMARK 923 INTER-LIGAND FREE ENERGY PREDICTED BY IDOCK:   -5.37 KCAL/MOL
REMARK 924 INTRA-LIGAND FREE ENERGY PREDICTED BY IDOCK:   -0.19 KCAL/MOL
REMARK 927      BINDING AFFINITY PREDICTED BY RF-SCORE:    0.00 PKD
ROOT
HETATM    1 CL   UNL     1     -13.860  15.776  72.795  1.00  0.00    -0.655 Cl 
HETATM    2  C   UNL     1     -13.370  15.123  71.211  1.00  0.00    -0.477 C  
HETATM    3  C   UNL     1     -11.854  15.179  71.070  1.00  0.00    -0.333 C  
ENDROOT
BRANCH   3   4
HETATM    4  N   UNL     1     -11.377  14.334  69.995  1.00  0.00    -0.428 NA 
HETATM    5  H   UNL     1     -11.172  13.359  70.214  1.00  0.00     0.000 HD 
BRANCH   4   6
HETATM    6  P   UNL     1     -11.146  14.830  68.458  1.00  0.00    -0.294 P  
HETATM    7  O   UNL     1      -9.630  14.390  68.134  1.00  0.00    -0.205 OA 
HETATM    8  O   UNL     1     -11.379  16.283  68.199  1.00  0.00    -0.337 OA 
HETATM    9  C   UNL     1      -9.254  13.035  68.315  1.00  0.00    -0.191 C  
HETATM   10  C   UNL     1     -10.291  11.985  67.878  1.00  0.00    -0.209 C  
HETATM   11  C   UNL     1     -11.768  12.384  67.938  1.00  0.00    -0.360 C  
HETATM   12  N   UNL     1     -11.998  13.765  67.516  1.00  0.00    -0.383 NA 
BRANCH  12  13
HETATM   13  C   UNL     1     -11.797  13.935  66.053  1.00  0.00    -0.393 C  
HETATM   14  C   UNL     1     -12.477  12.865  65.185  1.00  0.00    -0.501 C  
HETATM   15 CL   UNL     1     -12.078  13.109  63.463  1.00  0.00    -0.605 Cl 
ENDBRANCH  12  13
ENDBRANCH   4   6
ENDBRANCH   3   4
TORSDOF 3
ENDMDL
MODEL        5
REMARK 921   NORMALIZED FREE ENERGY PREDICTED BY IDOCK:   -4.78 KCAL/MOL
REMARK 922        TOTAL FREE ENERGY PREDICTED BY IDOCK:   -5.55 KCAL/MOL
REMARK 923 INTER-LIGAND FREE ENERGY PREDICTED BY IDOCK:   -5.33 KCAL/MOL
REMARK 924 INTRA-LIGAND FREE ENERGY PREDICTED BY IDOCK:   -0.22 KCAL/MOL
REMARK 927      BINDING AFFINITY PREDICTED BY RF-SCORE:    0.00 PKD
ROOT
HETATM    1 CL   UNL     1     -12.607  11.845  63.494  1.00  0.00    -0.655 Cl 
HETATM    2  C   UNL     1     -11.495  12.675  64.613  1.00  0.00    -0.330 C  
HETATM    3  C   UNL     1     -12.270  13.647  65.494  1.00  0.00    -0.443 C  
ENDROOT
BRANCH   3   4
HETATM    4  N   UNL     1     -11.504  14.058  66.652  1.00  0.00    -0.348 NA 
HETATM    5  H   UNL     1     -10.872  14.852  66.545  1.00  0.00     0.000 HD 
BRANCH   4   6
HETATM    6  P   UNL     1     -11.578  13.342  68.116  1.00  0.00    -0.370 P  
HETATM    7  O   UNL     1     -10.053  13.368  68.637  1.00  0.00    -0.225 OA 
HETATM    8  O   UNL     1     -12.158  11.964  68.140  1.00  0.00    -0.516 OA 
HETATM    9  C   UNL     1      -9.366  14.607  68.689  1.00  0.00    -0.206 C  
HETATM   10  C   UNL     1     -10.189  15.813  69.177  1.00  0.00    -0.231 C  
HETATM   11  C   UNL     1     -11.699  15.784  68.925  1.00  0.00    -0.394 C  
HETATM   12  N   UNL     1     -12.280  14.457  69.120  1.00  0.00    -0.269 NA 
BRANCH  12  13
HETATM   13  C   UNL     1     -12.302  14.071  70.556  1.00  0.00    -0.367 C  
HETATM   14  C   UNL     1     -13.196  14.952  71.441  1.00  0.00    -0.389 C  
HETATM   15 CL   UNL     1     -13.059  14.463  73.152  1.00  0.00    -0.588 Cl 
ENDBRANCH  12  13
ENDBRANCH   4   6
ENDBRANCH   3   4
TORSDOF 3
ENDMDL
MODEL        6
REMARK 921   NORMALIZED FREE ENERGY PREDICTED BY IDOCK:   -4.67 KCAL/MOL
REMARK 922        TOTAL FREE ENERGY PREDICTED BY IDOCK:   -5.42 KCAL/MOL
REMARK 923 INTER-LIGAND FREE ENERGY PREDICTED BY IDOCK:   -5.16 KCAL/MOL
REMARK 924 INTRA-LIGAND FREE ENERGY PREDICTED BY IDOCK:   -0.26 KCAL/MOL
REMARK 927      BINDING AFFINITY PREDICTED BY RF-SCORE:    0.00 PKD
ROOT
HETATM    1 CL   UNL     1      -8.187  17.281  66.001  1.00  0.00    -0.244 Cl 
HETATM    2  C   UNL     1      -9.228  15.835  65.976  1.00  0.00    -0.344 C  
HETATM    3  C   UNL     1     -10.445  16.082  65.092  1.00  0.00    -0.303 C  
ENDROOT
BRANCH   3   4
HETATM    4  N   UNL     1     -11.113  14.850  64.732  1.00  0.00    -0.532 NA 
HETATM    5  H   UNL     1     -11.161  14.608  63.742  1.00  0.00     0.000 HD 
BRANCH   4   6
HETATM    6  P   UNL     1     -11.796  13.819  65.797  1.00  0.00    -0.421 P  
HETATM    7  O   UNL     1     -12.889  13.024  64.920  1.00  0.00    -0.706 OA 
HETATM    8  O   UNL     1     -12.397  14.442  67.016  1.00  0.00    -0.353 OA 
HETATM    9  C   UNL     1     -12.471  12.363  63.737  1.00  0.00    -0.492 C  
HETATM   10  C   UNL     1     -11.118  11.633  63.816  1.00  0.00    -0.499 C  
HETATM   11  C   UNL     1     -10.076  12.184  64.795  1.00  0.00    -0.251 C  
HETATM   12  N   UNL     1     -10.666  12.635  66.054  1.00  0.00    -0.264 NA 
BRANCH  12  13
HETATM   13  C   UNL     1     -11.142  11.493  66.879  1.00  0.00    -0.307 C  
HETATM   14  C   UNL     1     -10.721  11.550  68.355  1.00  0.00    -0.208 C  
HETATM   15 CL   UNL     1     -11.256  10.081  69.216  1.00  0.00    -0.238 Cl 
ENDBRANCH  12  13
ENDBRANCH   4   6
ENDBRANCH   3   4
TORSDOF 3
ENDMDL
MODEL        7
REMARK 921   NORMALIZED FREE ENERGY PREDICTED BY IDOCK:   -4.67 KCAL/MOL
REMARK 922        TOTAL FREE ENERGY PREDICTED BY IDOCK:   -5.42 KCAL/MOL
REMARK 923 INTER-LIGAND FREE ENERGY PREDICTED BY IDOCK:   -5.36 KCAL/MOL
REMARK 924 INTRA-LIGAND FREE ENERGY PREDICTED BY IDOCK:   -0.06 KCAL/MOL
REMARK 927      BINDING AFFINITY PREDICTED BY RF-SCORE:    0.00 PKD
ROOT
HETATM    1 CL   UNL     1      -9.025   9.540  62.474  1.00  0.00    -0.263 Cl 
HETATM    2  C   UNL     1      -9.407  10.694  63.778  1.00  0.00    -0.271 C  
HETATM    3  C   UNL     1     -10.605  11.549  63.384  1.00  0.00    -0.395 C  
ENDROOT
BRANCH   3   4
HETATM    4  N   UNL     1     -11.187  12.224  64.525  1.00  0.00    -0.312 NA 
HETATM    5  H   UNL     1     -11.209  11.722  65.413  1.00  0.00     0.000 HD 
BRANCH   4   6
HETATM    6  P   UNL     1     -11.813  13.730  64.491  1.00  0.00    -0.439 P  
HETATM    7  O   UNL     1     -12.714  13.804  65.826  1.00  0.00    -0.490 OA 
HETATM    8  O   UNL     1     -12.591  14.087  63.266  1.00  0.00    -0.801 OA 
HETATM    9  C   UNL     1     -12.114  13.508  67.076  1.00  0.00    -0.354 C  
HETATM   10  C   UNL     1     -10.688  14.047  67.283  1.00  0.00    -0.278 C  
HETATM   11  C   UNL     1      -9.814  14.226  66.039  1.00  0.00    -0.314 C  
HETATM   12  N   UNL     1     -10.561  14.739  64.891  1.00  0.00    -0.428 NA 
BRANCH  12  13
HETATM   13  C   UNL     1     -10.948  16.162  65.079  1.00  0.00    -0.344 C  
HETATM   14  C   UNL     1      -9.944  16.997  65.888  1.00  0.00    -0.217 C  
HETATM   15 CL   UNL     1     -10.564  18.652  66.138  1.00  0.00    -0.457 Cl 
ENDBRANCH  12  13
ENDBRANCH   4   6
ENDBRANCH   3   4
TORSDOF 3
ENDMDL
MODEL        8
REMARK 921   NORMALIZED FREE ENERGY PREDICTED BY IDOCK:   -4.65 KCAL/MOL
REMARK 922        TOTAL FREE ENERGY PREDICTED BY IDOCK:   -5.40 KCAL/MOL
REMARK 923 INTER-LIGAND FREE ENERGY PREDICTED BY IDOCK:   -5.20 KCAL/MOL
REMARK 924 INTRA-LIGAND FREE ENERGY PREDICTED BY IDOCK:   -0.21 KCAL/MOL
REMARK 927      BINDING AFFINITY PREDICTED BY RF-SCORE:    0.00 PKD
ROOT
HETATM    1 CL   UNL     1     -13.312   9.491  72.448  1.00  0.00    -0.506 Cl 
HETATM    2  C   UNL     1     -12.261   9.945  71.081  1.00  0.00    -0.373 C  
HETATM    3  C   UNL     1     -12.390  11.436  70.796  1.00  0.00    -0.386 C  
ENDROOT
BRANCH   3   4
HETATM    4  N   UNL     1     -11.306  11.926  69.971  1.00  0.00    -0.510 NA 
HETATM    5  H   UNL     1     -10.384  11.510  70.104  1.00  0.00     0.000 HD 
BRANCH   4   6
HETATM    6  P   UNL     1     -11.454  13.096  68.844  1.00  0.00    -0.332 P  
HETATM    7  O   UNL     1      -9.932  13.513  68.517  1.00  0.00    -0.234 OA 
HETATM    8  O   UNL     1     -12.289  14.274  69.230  1.00  0.00    -0.293 OA 
HETATM    9  C   UNL     1      -9.015  12.507  68.118  1.00  0.00    -0.199 C  
HETATM   10  C   UNL     1      -9.565  11.437  67.158  1.00  0.00    -0.193 C  
HETATM   11  C   UNL     1     -11.062  11.122  67.236  1.00  0.00    -0.302 C  
HETATM   12  N   UNL     1     -11.881  12.315  67.447  1.00  0.00    -0.536 NA 
BRANCH  12  13
HETATM   13  C   UNL     1     -11.915  13.179  66.238  1.00  0.00    -0.415 C  
HETATM   14  C   UNL     1     -12.277  12.448  64.937  1.00  0.00    -0.418 C  
HETATM   15 CL   UNL     1     -12.180  13.560  63.545  1.00  0.00    -0.501 Cl 
ENDBRANCH  12  13
ENDBRANCH   4   6
ENDBRANCH   3   4
TORSDOF 3
ENDMDL
MODEL        9
REMARK 921   NORMALIZED FREE ENERGY PREDICTED BY IDOCK:   -4.60 KCAL/MOL
REMARK 922        TOTAL FREE ENERGY PREDICTED BY IDOCK:   -5.34 KCAL/MOL
REMARK 923 INTER-LIGAND FREE ENERGY PREDICTED BY IDOCK:   -5.21 KCAL/MOL
REMARK 924 INTRA-LIGAND FREE ENERGY PREDICTED BY IDOCK:   -0.13 KCAL/MOL
REMARK 927      BINDING AFFINITY PREDICTED BY RF-SCORE:    0.00 PKD
ROOT
HETATM    1 CL   UNL     1     -13.553  14.518  72.759  1.00  0.00    -0.559 Cl 
HETATM    2  C   UNL     1     -13.009  13.402  71.480  1.00  0.00    -0.341 C  
HETATM    3  C   UNL     1     -12.180  14.156  70.447  1.00  0.00    -0.356 C  
ENDROOT
BRANCH   3   4
HETATM    4  N   UNL     1     -11.409  13.260  69.612  1.00  0.00    -0.465 NA 
HETATM    5  H   UNL     1     -10.982  12.446  70.056  1.00  0.00     0.000 HD 
BRANCH   4   6
HETATM    6  P   UNL     1     -11.173  13.457  68.009  1.00  0.00    -0.306 P  
HETATM    7  O   UNL     1      -9.584  13.260  67.825  1.00  0.00    -0.201 OA 
HETATM    8  O   UNL     1     -11.650  14.752  67.434  1.00  0.00    -0.353 OA 
HETATM    9  C   UNL     1      -8.980  12.070  68.306  1.00  0.00    -0.186 C  
HETATM   10  C   UNL     1      -9.778  10.772  68.083  1.00  0.00    -0.169 C  
HETATM   11  C   UNL     1     -11.303  10.885  68.020  1.00  0.00    -0.312 C  
HETATM   12  N   UNL     1     -11.754  12.076  67.302  1.00  0.00    -0.548 NA 
BRANCH  12  13
HETATM   13  C   UNL     1     -11.493  11.971  65.842  1.00  0.00    -0.333 C  
HETATM   14  C   UNL     1     -12.521  12.689  64.955  1.00  0.00    -0.494 C  
HETATM   15 CL   UNL     1     -12.166  12.402  63.229  1.00  0.00    -0.586 Cl 
ENDBRANCH  12  13
ENDBRANCH   4   6
ENDBRANCH   3   4
TORSDOF 3
ENDMDL
MODEL       10
REMARK 921   NORMALIZED FREE ENERGY PREDICTED BY IDOCK:   -4.60 KCAL/MOL
REMARK 922        TOTAL FREE ENERGY PREDICTED BY IDOCK:   -5.34 KCAL/MOL
REMARK 923 INTER-LIGAND FREE ENERGY PREDICTED BY IDOCK:   -5.15 KCAL/MOL
REMARK 924 INTRA-LIGAND FREE ENERGY PREDICTED BY IDOCK:   -0.19 KCAL/MOL
REMARK 927      BINDING AFFINITY PREDICTED BY RF-SCORE:    0.00 PKD
ROOT
HETATM    1 CL   UNL     1     -12.154  13.170  66.971  1.00  0.00    -0.408 Cl 
HETATM    2  C   UNL     1     -11.283  14.558  67.673  1.00  0.00    -0.322 C  
HETATM    3  C   UNL     1     -10.874  15.529  66.572  1.00  0.00    -0.284 C  
ENDROOT
BRANCH   3   4
HETATM    4  N   UNL     1     -10.511  16.827  67.100  1.00  0.00    -0.317 NA 
HETATM    5  H   UNL     1     -11.152  17.266  67.761  1.00  0.00     0.000 HD 
BRANCH   4   6
HETATM    6  P   UNL     1      -9.148  17.637  66.715  1.00  0.00    -0.272 P  
HETATM    7  O   UNL     1      -9.679  18.907  65.876  1.00  0.00    -0.474 OA 
HETATM    8  O   UNL     1      -8.116  16.859  65.966  1.00  0.00    -0.430 OA 
HETATM    9  C   UNL     1     -10.652  19.757  66.460  1.00  0.00    -0.467 C  
HETATM   10  C   UNL     1     -10.472  20.059  67.958  1.00  0.00    -0.448 C  
HETATM   11  C   UNL     1      -9.772  18.997  68.812  1.00  0.00    -0.416 C  
HETATM   12  N   UNL     1      -8.652  18.363  68.119  1.00  0.00    -0.277 NA 
BRANCH  12  13
HETATM   13  C   UNL     1      -7.503  19.294  67.963  1.00  0.00    -0.277 C  
HETATM   14  C   UNL     1      -6.833  19.710  69.281  1.00  0.00    -0.355 C  
HETATM   15 CL   UNL     1      -5.544  20.906  68.977  1.00  0.00    -0.403 Cl 
ENDBRANCH  12  13
ENDBRANCH   4   6
ENDBRANCH   3   4
TORSDOF 3
ENDMDL
MODEL       11
REMARK 921   NORMALIZED FREE ENERGY PREDICTED BY IDOCK:   -4.59 KCAL/MOL
REMARK 922        TOTAL FREE ENERGY PREDICTED BY IDOCK:   -5.33 KCAL/MOL
REMARK 923 INTER-LIGAND FREE ENERGY PREDICTED BY IDOCK:   -5.12 KCAL/MOL
REMARK 924 INTRA-LIGAND FREE ENERGY PREDICTED BY IDOCK:   -0.21 KCAL/MOL
REMARK 927      BINDING AFFINITY PREDICTED BY RF-SCORE:    0.00 PKD
ROOT
HETATM    1 CL   UNL     1     -10.066  20.330  68.084  1.00  0.00    -0.491 Cl 
HETATM    2  C   UNL     1     -10.673  18.824  67.348  1.00  0.00    -0.424 C  
HETATM    3  C   UNL     1     -10.199  17.621  68.154  1.00  0.00    -0.371 C  
ENDROOT
BRANCH   3   4
HETATM    4  N   UNL     1     -10.954  16.427  67.840  1.00  0.00    -0.328 NA 
HETATM    5  H   UNL     1     -11.741  16.189  68.445  1.00  0.00     0.000 HD 
BRANCH   4   6
HETATM    6  P   UNL     1     -10.638  15.432  66.586  1.00  0.00    -0.302 P  
HETATM    7  O   UNL     1      -9.316  14.635  67.049  1.00  0.00    -0.213 OA 
HETATM    8  O   UNL     1     -10.461  16.092  65.257  1.00  0.00    -0.499 OA 
HETATM    9  C   UNL     1      -9.331  13.940  68.284  1.00  0.00    -0.209 C  
HETATM   10  C   UNL     1     -10.633  13.191  68.620  1.00  0.00    -0.259 C  
HETATM   11  C   UNL     1     -11.936  13.746  68.039  1.00  0.00    -0.355 C  
HETATM   12  N   UNL     1     -11.781  14.236  66.669  1.00  0.00    -0.384 NA 
BRANCH  12  13
HETATM   13  C   UNL     1     -11.583  13.120  65.706  1.00  0.00    -0.347 C  
HETATM   14  C   UNL     1     -12.322  13.290  64.370  1.00  0.00    -0.348 C  
HETATM   15 CL   UNL     1     -12.098  11.847  63.344  1.00  0.00    -0.592 Cl 
ENDBRANCH  12  13
ENDBRANCH   4   6
ENDBRANCH   3   4
TORSDOF 3
ENDMDL
MODEL       12
REMARK 921   NORMALIZED FREE ENERGY PREDICTED BY IDOCK:   -4.54 KCAL/MOL
REMARK 922        TOTAL FREE ENERGY PREDICTED BY IDOCK:   -5.28 KCAL/MOL
REMARK 923 INTER-LIGAND FREE ENERGY PREDICTED BY IDOCK:   -5.29 KCAL/MOL
REMARK 924 INTRA-LIGAND FREE ENERGY PREDICTED BY IDOCK:    0.02 KCAL/MOL
REMARK 927      BINDING AFFINITY PREDICTED BY RF-SCORE:    0.00 PKD
ROOT
HETATM    1 CL   UNL     1     -12.511  13.194  71.128  1.00  0.00    -0.429 Cl 
HETATM    2  C   UNL     1     -12.148  14.317  69.792  1.00  0.00    -0.347 C  
HETATM    3  C   UNL     1     -12.103  13.559  68.471  1.00  0.00    -0.268 C  
ENDROOT
BRANCH   3   4
HETATM    4  N   UNL     1     -12.190  14.449  67.332  1.00  0.00    -0.617 NA 
HETATM    5  H   UNL     1     -12.347  15.441  67.516  1.00  0.00     0.000 HD 
BRANCH   4   6
HETATM    6  P   UNL     1     -12.057  13.980  65.775  1.00  0.00    -0.456 P  
HETATM    7  O   UNL     1     -11.659  15.334  64.997  1.00  0.00    -0.323 OA 
HETATM    8  O   UNL     1     -13.263  13.325  65.185  1.00  0.00    -0.658 OA 
HETATM    9  C   UNL     1     -10.523  16.066  65.428  1.00  0.00    -0.392 C  
HETATM   10  C   UNL     1      -9.300  15.228  65.842  1.00  0.00    -0.308 C  
HETATM   11  C   UNL     1      -9.561  13.824  66.394  1.00  0.00    -0.272 C  
HETATM   12  N   UNL     1     -10.638  13.130  65.689  1.00  0.00    -0.273 NA 
BRANCH  12  13
HETATM   13  C   UNL     1     -10.232  12.739  64.313  1.00  0.00    -0.327 C  
HETATM   14  C   UNL     1      -9.670  11.315  64.191  1.00  0.00    -0.261 C  
HETATM   15 CL   UNL     1      -9.119  11.000  62.523  1.00  0.00    -0.361 Cl 
ENDBRANCH  12  13
ENDBRANCH   4   6
ENDBRANCH   3   4
TORSDOF 3
ENDMDL
MODEL       13
REMARK 921   NORMALIZED FREE ENERGY PREDICTED BY IDOCK:   -4.52 KCAL/MOL
REMARK 922        TOTAL FREE ENERGY PREDICTED BY IDOCK:   -5.25 KCAL/MOL
REMARK 923 INTER-LIGAND FREE ENERGY PREDICTED BY IDOCK:   -5.04 KCAL/MOL
REMARK 924 INTRA-LIGAND FREE ENERGY PREDICTED BY IDOCK:   -0.21 KCAL/MOL
REMARK 927      BINDING AFFINITY PREDICTED BY RF-SCORE:    0.00 PKD
ROOT
HETATM    1 CL   UNL     1     -12.781  11.891  63.381  1.00  0.00    -0.655 Cl 
HETATM    2  C   UNL     1     -11.470  12.794  64.182  1.00  0.00    -0.393 C  
HETATM    3  C   UNL     1     -11.899  13.200  65.587  1.00  0.00    -0.387 C  
ENDROOT
BRANCH   3   4
HETATM    4  N   UNL     1     -10.771  13.591  66.407  1.00  0.00    -0.286 NA 
HETATM    5  H   UNL     1      -9.865  13.168  66.200  1.00  0.00     0.000 HD 
BRANCH   4   6
HETATM    6  P   UNL     1     -10.845  14.659  67.638  1.00  0.00    -0.301 P  
HETATM    7  O   UNL     1      -9.391  14.556  68.327  1.00  0.00    -0.190 OA 
HETATM    8  O   UNL     1     -11.950  14.446  68.621  1.00  0.00    -0.326 OA 
HETATM    9  C   UNL     1      -8.237  14.750  67.526  1.00  0.00    -0.185 C  
HETATM   10  C   UNL     1      -8.327  15.872  66.476  1.00  0.00    -0.330 C  
HETATM   11  C   UNL     1      -9.713  16.203  65.914  1.00  0.00    -0.340 C  
HETATM   12  N   UNL     1     -10.762  16.155  66.932  1.00  0.00    -0.290 NA 
BRANCH  12  13
HETATM   13  C   UNL     1     -10.651  17.287  67.890  1.00  0.00    -0.384 C  
HETATM   14  C   UNL     1     -10.641  18.678  67.239  1.00  0.00    -0.430 C  
HETATM   15 CL   UNL     1     -10.397  19.945  68.472  1.00  0.00    -0.542 Cl 
ENDBRANCH  12  13
ENDBRANCH   4   6
ENDBRANCH   3   4
TORSDOF 3
ENDMDL
MODEL       14
REMARK 921   NORMALIZED FREE ENERGY PREDICTED BY IDOCK:   -4.52 KCAL/MOL
REMARK 922        TOTAL FREE ENERGY PREDICTED BY IDOCK:   -5.25 KCAL/MOL
REMARK 923 INTER-LIGAND FREE ENERGY PREDICTED BY IDOCK:   -5.06 KCAL/MOL
REMARK 924 INTRA-LIGAND FREE ENERGY PREDICTED BY IDOCK:   -0.18 KCAL/MOL
REMARK 927      BINDING AFFINITY PREDICTED BY RF-SCORE:    0.00 PKD
ROOT
HETATM    1 CL   UNL     1     -12.743  15.510  71.677  1.00  0.00    -0.460 Cl 
HETATM    2  C   UNL     1     -12.139  15.548  70.000  1.00  0.00    -0.368 C  
HETATM    3  C   UNL     1     -12.066  14.133  69.439  1.00  0.00    -0.328 C  
ENDROOT
BRANCH   3   4
HETATM    4  N   UNL     1     -11.951  14.127  67.996  1.00  0.00    -0.477 NA 
HETATM    5  H   UNL     1     -12.017  15.023  67.511  1.00  0.00     0.000 HD 
BRANCH   4   6
HETATM    6  P   UNL     1     -11.725  12.790  67.089  1.00  0.00    -0.308 P  
HETATM    7  O   UNL     1     -12.651  13.040  65.794  1.00  0.00    -0.500 OA 
HETATM    8  O   UNL     1     -12.031  11.488  67.756  1.00  0.00    -0.623 OA 
HETATM    9  C   UNL     1     -12.471  14.228  65.040  1.00  0.00    -0.400 C  
HETATM   10  C   UNL     1     -11.014  14.680  64.834  1.00  0.00    -0.419 C  
HETATM   11  C   UNL     1      -9.998  14.296  65.913  1.00  0.00    -0.319 C  
HETATM   12  N   UNL     1     -10.210  12.948  66.437  1.00  0.00    -0.261 NA 
BRANCH  12  13
HETATM   13  C   UNL     1      -9.854  11.907  65.437  1.00  0.00    -0.233 C  
HETATM   14  C   UNL     1      -9.068  10.715  66.005  1.00  0.00    -0.180 C  
HETATM   15 CL   UNL     1      -8.606   9.590  64.700  1.00  0.00    -0.187 Cl 
ENDBRANCH  12  13
ENDBRANCH   4   6
ENDBRANCH   3   4
TORSDOF 3
ENDMDL
MODEL       15
REMARK 921   NORMALIZED FREE ENERGY PREDICTED BY IDOCK:   -4.51 KCAL/MOL
REMARK 922        TOTAL FREE ENERGY PREDICTED BY IDOCK:   -5.24 KCAL/MOL
REMARK 923 INTER-LIGAND FREE ENERGY PREDICTED BY IDOCK:   -4.96 KCAL/MOL
REMARK 924 INTRA-LIGAND FREE ENERGY PREDICTED BY IDOCK:   -0.27 KCAL/MOL
REMARK 927      BINDING AFFINITY PREDICTED BY RF-SCORE:    0.00 PKD
ROOT
HETATM    1 CL   UNL     1     -12.840  11.980  63.373  1.00  0.00    -0.587 Cl 
HETATM    2  C   UNL     1     -11.779  12.396  64.743  1.00  0.00    -0.368 C  
HETATM    3  C   UNL     1     -10.560  13.163  64.245  1.00  0.00    -0.412 C  
ENDROOT
BRANCH   3   4
HETATM    4  N   UNL     1      -9.872  13.845  65.321  1.00  0.00    -0.572 NA 
HETATM    5  H   UNL     1      -9.073  13.373  65.747  1.00  0.00     0.000 HD 
BRANCH   4   6
HETATM    6  P   UNL     1     -10.282  15.313  65.902  1.00  0.00    -0.393 P  
HETATM    7  O   UNL     1     -11.189  14.979  67.192  1.00  0.00    -0.331 OA 
HETATM    8  O   UNL     1     -10.980  16.223  64.943  1.00  0.00    -0.565 OA 
HETATM    9  C   UNL     1     -10.660  14.139  68.204  1.00  0.00    -0.246 C  
HETATM   10  C   UNL     1      -9.176  14.356  68.552  1.00  0.00    -0.198 C  
HETATM   11  C   UNL     1      -8.263  14.889  67.444  1.00  0.00    -0.197 C  
HETATM   12  N   UNL     1      -8.911  15.906  66.617  1.00  0.00    -0.252 NA 
BRANCH  12  13
HETATM   13  C   UNL     1      -9.100  17.180  67.360  1.00  0.00    -0.224 C  
HETATM   14  C   UNL     1      -7.798  17.850  67.824  1.00  0.00    -0.221 C  
HETATM   15 CL   UNL     1      -8.154  19.306  68.792  1.00  0.00    -0.399 Cl 
ENDBRANCH  12  13
ENDBRANCH   4   6
ENDBRANCH   3   4
TORSDOF 3
ENDMDL
MODEL       16
REMARK 921   NORMALIZED FREE ENERGY PREDICTED BY IDOCK:   -4.48 KCAL/MOL
REMARK 922        TOTAL FREE ENERGY PREDICTED BY IDOCK:   -5.20 KCAL/MOL
REMARK 923 INTER-LIGAND FREE ENERGY PREDICTED BY IDOCK:   -5.01 KCAL/MOL
REMARK 924 INTRA-LIGAND FREE ENERGY PREDICTED BY IDOCK:   -0.19 KCAL/MOL
REMARK 927      BINDING AFFINITY PREDICTED BY RF-SCORE:    0.00 PKD
ROOT
HETATM    1 CL   UNL     1     -12.399  10.512  71.313  1.00  0.00    -0.486 Cl 
HETATM    2  C   UNL     1     -12.034  11.672  70.009  1.00  0.00    -0.351 C  
HETATM    3  C   UNL     1     -11.650  10.925  68.738  1.00  0.00    -0.309 C  
ENDROOT
BRANCH   3   4
HETATM    4  N   UNL     1     -11.713  11.776  67.569  1.00  0.00    -0.573 NA 
HETATM    5  H   UNL     1     -12.488  11.634  66.919  1.00  0.00     0.000 HD 
BRANCH   4   6
HETATM    6  P   UNL     1     -10.635  12.948  67.214  1.00  0.00    -0.236 P  
HETATM    7  O   UNL     1      -9.996  12.474  65.812  1.00  0.00    -0.261 OA 
HETATM    8  O   UNL     1      -9.590  13.209  68.250  1.00  0.00    -0.222 OA 
HETATM    9  C   UNL     1     -10.860  12.203  64.721  1.00  0.00    -0.307 C  
HETATM   10  C   UNL     1     -12.047  13.167  64.546  1.00  0.00    -0.462 C  
HETATM   11  C   UNL     1     -12.593  13.849  65.803  1.00  0.00    -0.494 C  
HETATM   12  N   UNL     1     -11.538  14.251  66.732  1.00  0.00    -0.374 NA 
BRANCH  12  13
HETATM   13  C   UNL     1     -10.746  15.393  66.205  1.00  0.00    -0.314 C  
HETATM   14  C   UNL     1     -10.527  16.537  67.206  1.00  0.00    -0.304 C  
HETATM   15 CL   UNL     1      -9.661  17.891  66.430  1.00  0.00    -0.322 Cl 
ENDBRANCH  12  13
ENDBRANCH   4   6
ENDBRANCH   3   4
TORSDOF 3
ENDMDL
MODEL       17
REMARK 921   NORMALIZED FREE ENERGY PREDICTED BY IDOCK:   -4.47 KCAL/MOL
REMARK 922        TOTAL FREE ENERGY PREDICTED BY IDOCK:   -5.19 KCAL/MOL
REMARK 923 INTER-LIGAND FREE ENERGY PREDICTED BY IDOCK:   -5.00 KCAL/MOL
REMARK 924 INTRA-LIGAND FREE ENERGY PREDICTED BY IDOCK:   -0.19 KCAL/MOL
REMARK 927      BINDING AFFINITY PREDICTED BY RF-SCORE:    0.00 PKD
ROOT
HETATM    1 CL   UNL     1     -10.351  20.303  67.271  1.00  0.00    -0.490 Cl 
HETATM    2  C   UNL     1     -10.427  18.916  66.153  1.00  0.00    -0.457 C  
HETATM    3  C   UNL     1     -10.234  17.615  66.922  1.00  0.00    -0.334 C  
ENDROOT
BRANCH   3   4
HETATM    4  N   UNL     1     -10.657  16.463  66.154  1.00  0.00    -0.291 NA 
HETATM    5  H   UNL     1     -11.468  16.571  65.544  1.00  0.00     0.000 HD 
BRANCH   4   6
HETATM    6  P   UNL     1      -9.928  15.004  66.192  1.00  0.00    -0.334 P  
HETATM    7  O   UNL     1     -10.751  14.190  67.314  1.00  0.00    -0.275 OA 
HETATM    8  O   UNL     1      -8.459  15.014  66.469  1.00  0.00    -0.217 OA 
HETATM    9  C   UNL     1     -12.159  14.075  67.183  1.00  0.00    -0.401 C  
HETATM   10  C   UNL     1     -12.686  13.834  65.757  1.00  0.00    -0.494 C  
HETATM   11  C   UNL     1     -11.852  14.382  64.596  1.00  0.00    -0.451 C  
HETATM   12  N   UNL     1     -10.413  14.229  64.811  1.00  0.00    -0.434 NA 
BRANCH  12  13
HETATM   13  C   UNL     1      -9.991  12.807  64.716  1.00  0.00    -0.135 C  
HETATM   14  C   UNL     1     -10.416  12.097  63.422  1.00  0.00    -0.412 C  
HETATM   15 CL   UNL     1      -9.949  10.375  63.470  1.00  0.00    -0.274 Cl 
ENDBRANCH  12  13
ENDBRANCH   4   6
ENDBRANCH   3   4
TORSDOF 3
ENDMDL
MODEL       18
REMARK 921   NORMALIZED FREE ENERGY PREDICTED BY IDOCK:   -4.46 KCAL/MOL
REMARK 922        TOTAL FREE ENERGY PREDICTED BY IDOCK:   -5.18 KCAL/MOL
REMARK 923 INTER-LIGAND FREE ENERGY PREDICTED BY IDOCK:   -4.97 KCAL/MOL
REMARK 924 INTRA-LIGAND FREE ENERGY PREDICTED BY IDOCK:   -0.21 KCAL/MOL
REMARK 927      BINDING AFFINITY PREDICTED BY RF-SCORE:    0.00 PKD
ROOT
HETATM    1 CL   UNL     1     -11.784  15.864  72.049  1.00  0.00    -0.551 Cl 
HETATM    2  C   UNL     1     -12.611  15.295  70.576  1.00  0.00    -0.399 C  
HETATM    3  C   UNL     1     -11.744  15.565  69.353  1.00  0.00    -0.367 C  
ENDROOT
BRANCH   3   4
HETATM    4  N   UNL     1     -12.178  14.801  68.202  1.00  0.00    -0.589 NA 
HETATM    5  H   UNL     1     -12.931  15.188  67.632  1.00  0.00     0.000 HD 
BRANCH   4   6
HETATM    6  P   UNL     1     -11.547  13.366  67.750  1.00  0.00    -0.369 P  
HETATM    7  O   UNL     1     -12.402  12.962  66.444  1.00  0.00    -0.463 OA 
HETATM    8  O   UNL     1     -11.562  12.290  68.787  1.00  0.00    -0.281 OA 
HETATM    9  C   UNL     1     -12.472  13.874  65.361  1.00  0.00    -0.501 C  
HETATM   10  C   UNL     1     -11.168  14.615  65.019  1.00  0.00    -0.388 C  
HETATM   11  C   UNL     1     -10.175  14.857  66.159  1.00  0.00    -0.300 C  
HETATM   12  N   UNL     1     -10.077  13.721  67.074  1.00  0.00    -0.252 NA 
BRANCH  12  13
HETATM   13  C   UNL     1      -9.389  12.563  66.442  1.00  0.00    -0.209 C  
HETATM   14  C   UNL     1      -8.296  11.918  67.307  1.00  0.00    -0.169 C  
HETATM   15 CL   UNL     1      -7.473  10.616  66.406  1.00  0.00    -0.132 Cl 
ENDBRANCH  12  13
ENDBRANCH   4   6
ENDBRANCH   3   4
TORSDOF 3
ENDMDL
MODEL       19
REMARK 921   NORMALIZED FREE ENERGY PREDICTED BY IDOCK:   -4.46 KCAL/MOL
REMARK 922        TOTAL FREE ENERGY PREDICTED BY IDOCK:   -5.18 KCAL/MOL
REMARK 923 INTER-LIGAND FREE ENERGY PREDICTED BY IDOCK:   -4.95 KCAL/MOL
REMARK 924 INTRA-LIGAND FREE ENERGY PREDICTED BY IDOCK:   -0.23 KCAL/MOL
REMARK 927      BINDING AFFINITY PREDICTED BY RF-SCORE:    0.00 PKD
ROOT
HETATM    1 CL   UNL     1     -13.494   8.788  72.002  1.00  0.00    -0.418 Cl 
HETATM    2  C   UNL     1     -12.629  10.311  71.673  1.00  0.00    -0.432 C  
HETATM    3  C   UNL     1     -13.517  11.501  72.018  1.00  0.00    -0.193 C  
ENDROOT
BRANCH   3   4
HETATM    4  N   UNL     1     -12.758  12.728  72.133  1.00  0.00    -0.058 NA 
HETATM    5  H   UNL     1     -12.260  12.898  73.007  1.00  0.00     0.000 HD 
BRANCH   4   6
HETATM    6  P   UNL     1     -12.642  13.860  70.963  1.00  0.00    -0.349 P  
HETATM    7  O   UNL     1     -14.032  14.670  71.070  1.00  0.00    -0.303 OA 
HETATM    8  O   UNL     1     -12.393  13.349  69.582  1.00  0.00    -0.247 OA 
HETATM    9  C   UNL     1     -14.404  15.234  72.317  1.00  0.00    -0.494 C  
HETATM   10  C   UNL     1     -13.268  15.879  73.130  1.00  0.00    -0.692 C  
HETATM   11  C   UNL     1     -11.855  15.322  72.933  1.00  0.00    -0.403 C  
HETATM   12  N   UNL     1     -11.570  14.984  71.539  1.00  0.00    -0.361 NA 
BRANCH  12  13
HETATM   13  C   UNL     1     -11.433  16.200  70.695  1.00  0.00    -0.361 C  
HETATM   14  C   UNL     1     -10.289  16.143  69.671  1.00  0.00    -0.271 C  
HETATM   15 CL   UNL     1     -10.155  17.692  68.795  1.00  0.00    -0.366 Cl 
ENDBRANCH  12  13
ENDBRANCH   4   6
ENDBRANCH   3   4
TORSDOF 3
ENDMDL
MODEL       20
REMARK 921   NORMALIZED FREE ENERGY PREDICTED BY IDOCK:   -4.44 KCAL/MOL
REMARK 922        TOTAL FREE ENERGY PREDICTED BY IDOCK:   -5.16 KCAL/MOL
REMARK 923 INTER-LIGAND FREE ENERGY PREDICTED BY IDOCK:   -4.95 KCAL/MOL
REMARK 924 INTRA-LIGAND FREE ENERGY PREDICTED BY IDOCK:   -0.20 KCAL/MOL
REMARK 927      BINDING AFFINITY PREDICTED BY RF-SCORE:    0.00 PKD
ROOT
HETATM    1 CL   UNL     1     -12.435  14.428  71.372  1.00  0.00    -0.408 Cl 
HETATM    2  C   UNL     1     -11.580  15.894  70.825  1.00  0.00    -0.410 C  
HETATM    3  C   UNL     1     -11.060  15.696  69.407  1.00  0.00    -0.303 C  
ENDROOT
BRANCH   3   4
HETATM    4  N   UNL     1     -10.701  16.951  68.781  1.00  0.00    -0.341 NA 
HETATM    5  H   UNL     1     -11.456  17.596  68.545  1.00  0.00     0.000 HD 
BRANCH   4   6
HETATM    6  P   UNL     1      -9.176  17.408  68.425  1.00  0.00    -0.280 P  
HETATM    7  O   UNL     1      -9.157  17.468  66.814  1.00  0.00    -0.246 OA 
HETATM    8  O   UNL     1      -8.090  16.538  68.969  1.00  0.00    -0.235 OA 
HETATM    9  C   UNL     1     -10.118  18.268  66.146  1.00  0.00    -0.346 C  
HETATM   10  C   UNL     1     -10.432  19.628  66.794  1.00  0.00    -0.605 C  
HETATM   11  C   UNL     1     -10.266  19.740  68.312  1.00  0.00    -0.447 C  
HETATM   12  N   UNL     1      -9.095  19.018  68.808  1.00  0.00    -0.352 NA 
BRANCH  12  13
HETATM   13  C   UNL     1      -7.827  19.686  68.411  1.00  0.00    -0.327 C  
HETATM   14  C   UNL     1      -6.790  19.813  69.537  1.00  0.00    -0.305 C  
HETATM   15 CL   UNL     1      -5.362  20.723  68.974  1.00  0.00    -0.348 Cl 
ENDBRANCH  12  13
ENDBRANCH   4   6
ENDBRANCH   3   4
TORSDOF 3
ENDMDL
MODEL       21
REMARK 921   NORMALIZED FREE ENERGY PREDICTED BY IDOCK:   -4.44 KCAL/MOL
REMARK 922        TOTAL FREE ENERGY PREDICTED BY IDOCK:   -5.15 KCAL/MOL
REMARK 923 INTER-LIGAND FREE ENERGY PREDICTED BY IDOCK:   -4.96 KCAL/MOL
REMARK 924 INTRA-LIGAND FREE ENERGY PREDICTED BY IDOCK:   -0.19 KCAL/MOL
REMARK 927      BINDING AFFINITY PREDICTED BY RF-SCORE:    0.00 PKD
ROOT
HETATM    1 CL   UNL     1     -12.663  11.069  71.418  1.00  0.00    -0.529 Cl 
HETATM    2  C   UNL     1     -12.034  11.978  70.019  1.00  0.00    -0.324 C  
HETATM    3  C   UNL     1     -12.222  13.474  70.241  1.00  0.00    -0.347 C  
ENDROOT
BRANCH   3   4
HETATM    4  N   UNL     1     -11.408  14.262  69.339  1.00  0.00    -0.271 NA 
HETATM    5  H   UNL     1     -11.184  13.860  68.429  1.00  0.00     0.000 HD 
BRANCH   4   6
HETATM    6  P   UNL     1     -10.824  15.747  69.676  1.00  0.00    -0.362 P  
HETATM    7  O   UNL     1      -9.226  15.537  69.703  1.00  0.00    -0.275 OA 
HETATM    8  O   UNL     1     -11.330  16.379  70.932  1.00  0.00    -0.373 OA 
HETATM    9  C   UNL     1      -8.590  14.962  68.574  1.00  0.00    -0.162 C  
HETATM   10  C   UNL     1      -9.113  15.420  67.200  1.00  0.00    -0.236 C  
HETATM   11  C   UNL     1     -10.578  15.857  67.114  1.00  0.00    -0.316 C  
HETATM   12  N   UNL     1     -11.010  16.623  68.282  1.00  0.00    -0.359 NA 
BRANCH  12  13
HETATM   13  C   UNL     1     -10.392  17.975  68.312  1.00  0.00    -0.380 C  
HETATM   14  C   UNL     1     -10.729  18.860  67.103  1.00  0.00    -0.432 C  
HETATM   15 CL   UNL     1      -9.849  20.410  67.197  1.00  0.00    -0.597 Cl 
ENDBRANCH  12  13
ENDBRANCH   4   6
ENDBRANCH   3   4
TORSDOF 3
ENDMDL
MODEL       22
REMARK 921   NORMALIZED FREE ENERGY PREDICTED BY IDOCK:   -4.41 KCAL/MOL
REMARK 922        TOTAL FREE ENERGY PREDICTED BY IDOCK:   -5.12 KCAL/MOL
REMARK 923 INTER-LIGAND FREE ENERGY PREDICTED BY IDOCK:   -4.95 KCAL/MOL
REMARK 924 INTRA-LIGAND FREE ENERGY PREDICTED BY IDOCK:   -0.17 KCAL/MOL
REMARK 927      BINDING AFFINITY PREDICTED BY RF-SCORE:    0.00 PKD
ROOT
HETATM    1 CL   UNL     1     -13.633  13.569  72.559  1.00  0.00    -0.685 Cl 
HETATM    2  C   UNL     1     -12.792  12.757  71.213  1.00  0.00    -0.262 C  
HETATM    3  C   UNL     1     -12.096  13.789  70.334  1.00  0.00    -0.350 C  
ENDROOT
BRANCH   3   4
HETATM    4  N   UNL     1     -11.105  13.185  69.469  1.00  0.00    -0.461 NA 
HETATM    5  H   UNL     1     -10.144  13.138  69.809  1.00  0.00     0.000 HD 
BRANCH   4   6
HETATM    6  P   UNL     1     -11.415  12.573  67.989  1.00  0.00    -0.355 P  
HETATM    7  O   UNL     1     -12.148  13.783  67.216  1.00  0.00    -0.389 OA 
HETATM    8  O   UNL     1     -12.222  11.315  67.958  1.00  0.00    -0.621 OA 
HETATM    9  C   UNL     1     -11.500  15.043  67.143  1.00  0.00    -0.297 C  
HETATM   10  C   UNL     1      -9.981  15.006  66.899  1.00  0.00    -0.247 C  
HETATM   11  C   UNL     1      -9.215  13.780  67.404  1.00  0.00    -0.221 C  
HETATM   12  N   UNL     1      -9.953  12.532  67.210  1.00  0.00    -0.209 NA 
BRANCH  12  13
HETATM   13  C   UNL     1     -10.026  12.154  65.774  1.00  0.00    -0.249 C  
HETATM   14  C   UNL     1      -9.768  10.666  65.490  1.00  0.00    -0.237 C  
HETATM   15 CL   UNL     1      -9.774  10.354  63.734  1.00  0.00    -0.363 Cl 
ENDBRANCH  12  13
ENDBRANCH   4   6
ENDBRANCH   3   4
TORSDOF 3
ENDMDL
MODEL       23
REMARK 921   NORMALIZED FREE ENERGY PREDICTED BY IDOCK:   -4.39 KCAL/MOL
REMARK 922        TOTAL FREE ENERGY PREDICTED BY IDOCK:   -5.09 KCAL/MOL
REMARK 923 INTER-LIGAND FREE ENERGY PREDICTED BY IDOCK:   -5.10 KCAL/MOL
REMARK 924 INTRA-LIGAND FREE ENERGY PREDICTED BY IDOCK:    0.00 KCAL/MOL
REMARK 927      BINDING AFFINITY PREDICTED BY RF-SCORE:    0.00 PKD
ROOT
HETATM    1 CL   UNL     1      -6.851  21.013  66.908  1.00  0.00    -0.378 Cl 
HETATM    2  C   UNL     1      -8.445  20.334  67.330  1.00  0.00    -0.347 C  
HETATM    3  C   UNL     1      -9.107  19.746  66.090  1.00  0.00    -0.343 C  
ENDROOT
BRANCH   3   4
HETATM    4  N   UNL     1     -10.203  18.863  66.427  1.00  0.00    -0.401 NA 
HETATM    5  H   UNL     1     -10.928  19.223  67.049  1.00  0.00     0.000 HD 
BRANCH   4   6
HETATM    6  P   UNL     1     -10.363  17.333  65.885  1.00  0.00    -0.077 P  
HETATM    7  O   UNL     1      -8.851  16.773  65.857  1.00  0.00    -0.499 OA 
HETATM    8  O   UNL     1     -11.046  17.175  64.565  1.00  0.00    -1.105 OA 
HETATM    9  C   UNL     1      -8.074  16.836  67.042  1.00  0.00    -0.194 C  
HETATM   10  C   UNL     1      -8.813  16.507  68.351  1.00  0.00    -0.218 C  
HETATM   11  C   UNL     1     -10.316  16.798  68.405  1.00  0.00    -0.319 C  
HETATM   12  N   UNL     1     -10.999  16.477  67.153  1.00  0.00    -0.132 NA 
BRANCH  12  13
HETATM   13  C   UNL     1     -11.081  15.009  66.931  1.00  0.00    -0.331 C  
HETATM   14  C   UNL     1     -11.837  14.238  68.024  1.00  0.00    -0.344 C  
HETATM   15 CL   UNL     1     -11.776  12.483  67.707  1.00  0.00    -0.411 Cl 
ENDBRANCH  12  13
ENDBRANCH   4   6
ENDBRANCH   3   4
TORSDOF 3
ENDMDL
MODEL       24
REMARK 921   NORMALIZED FREE ENERGY PREDICTED BY IDOCK:   -4.36 KCAL/MOL
REMARK 922        TOTAL FREE ENERGY PREDICTED BY IDOCK:   -5.05 KCAL/MOL
REMARK 923 INTER-LIGAND FREE ENERGY PREDICTED BY IDOCK:   -4.88 KCAL/MOL
REMARK 924 INTRA-LIGAND FREE ENERGY PREDICTED BY IDOCK:   -0.17 KCAL/MOL
REMARK 927      BINDING AFFINITY PREDICTED BY RF-SCORE:    0.00 PKD
ROOT
HETATM    1 CL   UNL     1     -11.762  15.985  72.129  1.00  0.00    -0.578 Cl 
HETATM    2  C   UNL     1     -12.361  15.475  70.530  1.00  0.00    -0.418 C  
HETATM    3  C   UNL     1     -11.605  16.212  69.430  1.00  0.00    -0.261 C  
ENDROOT
BRANCH   3   4
HETATM    4  N   UNL     1     -11.773  15.579  68.139  1.00  0.00    -0.392 NA 
HETATM    5  H   UNL     1     -12.725  15.408  67.815  1.00  0.00     0.000 HD 
BRANCH   4   6
HETATM    6  P   UNL     1     -10.547  15.117  67.166  1.00  0.00    -0.304 P  
HETATM    7  O   UNL     1      -9.837  13.921  67.980  1.00  0.00    -0.220 OA 
HETATM    8  O   UNL     1      -9.580  16.190  66.781  1.00  0.00    -0.225 OA 
HETATM    9  C   UNL     1     -10.621  12.818  68.402  1.00  0.00    -0.248 C  
HETATM   10  C   UNL     1     -11.677  12.319  67.399  1.00  0.00    -0.405 C  
HETATM   11  C   UNL     1     -12.260  13.343  66.422  1.00  0.00    -0.376 C  
HETATM   12  N   UNL     1     -11.258  14.284  65.923  1.00  0.00    -0.313 NA 
BRANCH  12  13
HETATM   13  C   UNL     1     -10.304  13.628  64.991  1.00  0.00    -0.374 C  
HETATM   14  C   UNL     1     -10.944  12.624  64.020  1.00  0.00    -0.406 C  
HETATM   15 CL   UNL     1      -9.693  11.826  63.029  1.00  0.00    -0.361 Cl 
ENDBRANCH  12  13
ENDBRANCH   4   6
ENDBRANCH   3   4
TORSDOF 3
ENDMDL
MODEL       25
REMARK 921   NORMALIZED FREE ENERGY PREDICTED BY IDOCK:   -4.35 KCAL/MOL
REMARK 922        TOTAL FREE ENERGY PREDICTED BY IDOCK:   -5.05 KCAL/MOL
REMARK 923 INTER-LIGAND FREE ENERGY PREDICTED BY IDOCK:   -4.86 KCAL/MOL
REMARK 924 INTRA-LIGAND FREE ENERGY PREDICTED BY IDOCK:   -0.18 KCAL/MOL
REMARK 927      BINDING AFFINITY PREDICTED BY RF-SCORE:    0.00 PKD
ROOT
HETATM    1 CL   UNL     1      -8.676   9.101  62.359  1.00  0.00    -0.226 Cl 
HETATM    2  C   UNL     1      -9.101  10.822  62.545  1.00  0.00    -0.312 C  
HETATM    3  C   UNL     1      -9.973  11.014  63.779  1.00  0.00    -0.350 C  
ENDROOT
BRANCH   3   4
HETATM    4  N   UNL     1     -10.032  12.401  64.191  1.00  0.00    -0.553 NA 
HETATM    5  H   UNL     1     -10.065  13.112  63.460  1.00  0.00     0.000 HD 
BRANCH   4   6
HETATM    6  P   UNL     1     -10.050  12.909  65.742  1.00  0.00    -0.236 P  
HETATM    7  O   UNL     1     -10.034  14.516  65.622  1.00  0.00    -0.330 OA 
HETATM    8  O   UNL     1      -8.945  12.398  66.609  1.00  0.00    -0.212 OA 
HETATM    9  C   UNL     1     -11.032  15.156  64.845  1.00  0.00    -0.419 C  
HETATM   10  C   UNL     1     -12.453  14.575  64.962  1.00  0.00    -0.307 C  
HETATM   11  C   UNL     1     -12.581  13.086  65.296  1.00  0.00    -0.457 C  
HETATM   12  N   UNL     1     -11.594  12.640  66.278  1.00  0.00    -0.364 NA 
BRANCH  12  13
HETATM   13  C   UNL     1     -11.882  13.181  67.633  1.00  0.00    -0.359 C  
HETATM   14  C   UNL     1     -11.712  12.170  68.776  1.00  0.00    -0.321 C  
HETATM   15 CL   UNL     1     -12.188  12.900  70.333  1.00  0.00    -0.419 Cl 
ENDBRANCH  12  13
ENDBRANCH   4   6
ENDBRANCH   3   4
TORSDOF 3
ENDMDL
MODEL       26
REMARK 921   NORMALIZED FREE ENERGY PREDICTED BY IDOCK:   -4.34 KCAL/MOL
REMARK 922        TOTAL FREE ENERGY PREDICTED BY IDOCK:   -5.03 KCAL/MOL
REMARK 923 INTER-LIGAND FREE ENERGY PREDICTED BY IDOCK:   -4.78 KCAL/MOL
REMARK 924 INTRA-LIGAND FREE ENERGY PREDICTED BY IDOCK:   -0.25 KCAL/MOL
REMARK 927      BINDING AFFINITY PREDICTED BY RF-SCORE:    0.00 PKD
ROOT
HETATM    1 CL   UNL     1     -12.278  10.230  71.047  1.00  0.00    -0.446 Cl 
HETATM    2  C   UNL     1     -12.228  11.238  69.578  1.00  0.00    -0.256 C  
HETATM    3  C   UNL     1     -11.317  10.599  68.537  1.00  0.00    -0.284 C  
ENDROOT
BRANCH   3   4
HETATM    4  N   UNL     1     -11.530  11.154  67.217  1.00  0.00    -0.501 NA 
HETATM    5  H   UNL     1     -12.424  10.966  66.762  1.00  0.00     0.000 HD 
BRANCH   4   6
HETATM    6  P   UNL     1     -10.442  12.058  66.404  1.00  0.00    -0.252 P  
HETATM    7  O   UNL     1     -11.068  12.179  64.924  1.00  0.00    -0.303 OA 
HETATM    8  O   UNL     1      -9.043  11.533  66.382  1.00  0.00    -0.190 OA 
HETATM    9  C   UNL     1     -12.387  12.679  64.776  1.00  0.00    -0.489 C  
HETATM   10  C   UNL     1     -12.767  13.859  65.689  1.00  0.00    -0.534 C  
HETATM   11  C   UNL     1     -12.058  13.960  67.042  1.00  0.00    -0.415 C  
HETATM   12  N   UNL     1     -10.641  13.603  66.966  1.00  0.00    -0.272 NA 
BRANCH  12  13
HETATM   13  C   UNL     1      -9.852  14.634  66.241  1.00  0.00    -0.300 C  
HETATM   14  C   UNL     1      -8.738  15.289  67.071  1.00  0.00    -0.234 C  
HETATM   15 CL   UNL     1      -7.935  16.578  66.134  1.00  0.00    -0.301 Cl 
ENDBRANCH  12  13
ENDBRANCH   4   6
ENDBRANCH   3   4
TORSDOF 3
ENDMDL
MODEL       27
REMARK 921   NORMALIZED FREE ENERGY PREDICTED BY IDOCK:   -4.32 KCAL/MOL
REMARK 922        TOTAL FREE ENERGY PREDICTED BY IDOCK:   -5.01 KCAL/MOL
REMARK 923 INTER-LIGAND FREE ENERGY PREDICTED BY IDOCK:   -4.84 KCAL/MOL
REMARK 924 INTRA-LIGAND FREE ENERGY PREDICTED BY IDOCK:   -0.17 KCAL/MOL
REMARK 927      BINDING AFFINITY PREDICTED BY RF-SCORE:    0.00 PKD
ROOT
HETATM    1 CL   UNL     1     -12.661  14.584  70.281  1.00  0.00    -0.394 Cl 
HETATM    2  C   UNL     1     -11.539  15.910  69.880  1.00  0.00    -0.336 C  
HETATM    3  C   UNL     1     -11.229  15.899  68.388  1.00  0.00    -0.368 C  
ENDROOT
BRANCH   3   4
HETATM    4  N   UNL     1     -10.645  17.148  67.946  1.00  0.00    -0.370 NA 
HETATM    5  H   UNL     1     -10.834  17.983  68.502  1.00  0.00     0.000 HD 
BRANCH   4   6
HETATM    6  P   UNL     1      -9.704  17.316  66.624  1.00  0.00    -0.313 P  
HETATM    7  O   UNL     1     -10.415  18.499  65.792  1.00  0.00    -0.598 OA 
HETATM    8  O   UNL     1      -9.512  16.084  65.799  1.00  0.00    -0.334 OA 
HETATM    9  C   UNL     1     -10.652  19.742  66.432  1.00  0.00    -0.464 C  
HETATM   10  C   UNL     1      -9.532  20.246  67.360  1.00  0.00    -0.547 C  
HETATM   11  C   UNL     1      -8.647  19.195  68.034  1.00  0.00    -0.310 C  
HETATM   12  N   UNL     1      -8.329  18.073  67.151  1.00  0.00    -0.229 NA 
BRANCH  12  13
HETATM   13  C   UNL     1      -7.388  18.473  66.071  1.00  0.00    -0.240 C  
HETATM   14  C   UNL     1      -6.130  19.209  66.557  1.00  0.00    -0.166 C  
HETATM   15 CL   UNL     1      -5.136  19.731  65.171  1.00  0.00    -0.174 Cl 
ENDBRANCH  12  13
ENDBRANCH   4   6
ENDBRANCH   3   4
TORSDOF 3
ENDMDL
MODEL       28
REMARK 921   NORMALIZED FREE ENERGY PREDICTED BY IDOCK:   -4.28 KCAL/MOL
REMARK 922        TOTAL FREE ENERGY PREDICTED BY IDOCK:   -4.97 KCAL/MOL
REMARK 923 INTER-LIGAND FREE ENERGY PREDICTED BY IDOCK:   -5.01 KCAL/MOL
REMARK 924 INTRA-LIGAND FREE ENERGY PREDICTED BY IDOCK:    0.04 KCAL/MOL
REMARK 927      BINDING AFFINITY PREDICTED BY RF-SCORE:    0.00 PKD
ROOT
HETATM    1 CL   UNL     1     -12.336  12.659  64.533  1.00  0.00    -0.518 Cl 
HETATM    2  C   UNL     1     -11.351  13.517  65.745  1.00  0.00    -0.305 C  
HETATM    3  C   UNL     1     -10.815  14.816  65.158  1.00  0.00    -0.404 C  
ENDROOT
BRANCH   3   4
HETATM    4  N   UNL     1     -10.339  15.720  66.184  1.00  0.00    -0.304 NA 
HETATM    5  H   UNL     1     -10.033  15.314  67.069  1.00  0.00     0.000 HD 
BRANCH   4   6
HETATM    6  P   UNL     1     -10.257  17.342  66.027  1.00  0.00    -0.154 P  
HETATM    7  O   UNL     1     -10.839  17.895  67.425  1.00  0.00    -0.339 OA 
HETATM    8  O   UNL     1     -10.974  17.921  64.850  1.00  0.00    -0.827 OA 
HETATM    9  C   UNL     1     -10.251  17.451  68.636  1.00  0.00    -0.361 C  
HETATM   10  C   UNL     1      -8.718  17.319  68.633  1.00  0.00    -0.268 C  
HETATM   11  C   UNL     1      -8.040  17.010  67.295  1.00  0.00    -0.181 C  
HETATM   12  N   UNL     1      -8.651  17.721  66.173  1.00  0.00    -0.488 NA 
BRANCH  12  13
HETATM   13  C   UNL     1      -8.360  19.178  66.221  1.00  0.00    -0.299 C  
HETATM   14  C   UNL     1      -7.049  19.546  66.932  1.00  0.00    -0.207 C  
HETATM   15 CL   UNL     1      -6.861  21.318  67.021  1.00  0.00    -0.357 Cl 
ENDBRANCH  12  13
ENDBRANCH   4   6
ENDBRANCH   3   4
TORSDOF 3
ENDMDL
MODEL       29
REMARK 921   NORMALIZED FREE ENERGY PREDICTED BY IDOCK:   -4.25 KCAL/MOL
REMARK 922        TOTAL FREE ENERGY PREDICTED BY IDOCK:   -4.93 KCAL/MOL
REMARK 923 INTER-LIGAND FREE ENERGY PREDICTED BY IDOCK:   -4.76 KCAL/MOL
REMARK 924 INTRA-LIGAND FREE ENERGY PREDICTED BY IDOCK:   -0.17 KCAL/MOL
REMARK 927      BINDING AFFINITY PREDICTED BY RF-SCORE:    0.00 PKD
ROOT
HETATM    1 CL   UNL     1      -6.012  20.948  64.998  1.00  0.00    -0.284 Cl 
HETATM    2  C   UNL     1      -6.645  19.289  65.156  1.00  0.00    -0.214 C  
HETATM    3  C   UNL     1      -7.788  19.260  66.164  1.00  0.00    -0.300 C  
ENDROOT
BRANCH   3   4
HETATM    4  N   UNL     1      -8.575  18.050  66.056  1.00  0.00    -0.517 NA 
HETATM    5  H   UNL     1      -8.160  17.256  65.567  1.00  0.00     0.000 HD 
BRANCH   4   6
HETATM    6  P   UNL     1     -10.079  17.865  66.660  1.00  0.00    -0.380 P  
HETATM    7  O   UNL     1     -10.823  16.941  65.569  1.00  0.00    -0.336 OA 
HETATM    8  O   UNL     1     -10.831  19.126  66.938  1.00  0.00    -0.439 OA 
HETATM    9  C   UNL     1     -10.241  15.699  65.210  1.00  0.00    -0.324 C  
HETATM   10  C   UNL     1      -9.620  14.888  66.361  1.00  0.00    -0.317 C  
HETATM   11  C   UNL     1      -9.077  15.669  67.561  1.00  0.00    -0.193 C  
HETATM   12  N   UNL     1      -9.921  16.806  67.925  1.00  0.00    -0.260 NA 
BRANCH  12  13
HETATM   13  C   UNL     1     -11.207  16.365  68.529  1.00  0.00    -0.334 C  
HETATM   14  C   UNL     1     -11.161  16.154  70.049  1.00  0.00    -0.363 C  
HETATM   15 CL   UNL     1     -12.722  15.526  70.642  1.00  0.00    -0.497 Cl 
ENDBRANCH  12  13
ENDBRANCH   4   6
ENDBRANCH   3   4
TORSDOF 3
ENDMDL
MODEL       30
REMARK 921   NORMALIZED FREE ENERGY PREDICTED BY IDOCK:   -4.24 KCAL/MOL
REMARK 922        TOTAL FREE ENERGY PREDICTED BY IDOCK:   -4.91 KCAL/MOL
REMARK 923 INTER-LIGAND FREE ENERGY PREDICTED BY IDOCK:   -4.76 KCAL/MOL
REMARK 924 INTRA-LIGAND FREE ENERGY PREDICTED BY IDOCK:   -0.15 KCAL/MOL
REMARK 927      BINDING AFFINITY PREDICTED BY RF-SCORE:    0.00 PKD
ROOT
HETATM    1 CL   UNL     1     -11.719   8.659  71.955  1.00  0.00    -0.394 Cl 
HETATM    2  C   UNL     1     -12.205  10.004  70.891  1.00  0.00    -0.346 C  
HETATM    3  C   UNL     1     -11.345  10.012  69.633  1.00  0.00    -0.202 C  
ENDROOT
BRANCH   3   4
HETATM    4  N   UNL     1     -11.926  10.822  68.584  1.00  0.00    -0.756 NA 
HETATM    5  H   UNL     1     -12.550  10.361  67.920  1.00  0.00     0.000 HD 
BRANCH   4   6
HETATM    6  P   UNL     1     -11.656  12.418  68.386  1.00  0.00    -0.340 P  
HETATM    7  O   UNL     1     -10.049  12.541  68.384  1.00  0.00    -0.220 OA 
HETATM    8  O   UNL     1     -12.288  13.318  69.398  1.00  0.00    -0.210 OA 
HETATM    9  C   UNL     1      -9.302  11.760  67.466  1.00  0.00    -0.174 C  
HETATM   10  C   UNL     1      -9.897  11.631  66.052  1.00  0.00    -0.258 C  
HETATM   11  C   UNL     1     -11.419  11.724  65.917  1.00  0.00    -0.207 C  
HETATM   12  N   UNL     1     -12.005  12.734  66.798  1.00  0.00    -0.466 NA 
BRANCH  12  13
HETATM   13  C   UNL     1     -11.672  14.113  66.351  1.00  0.00    -0.390 C  
HETATM   14  C   UNL     1     -11.994  14.404  64.878  1.00  0.00    -0.426 C  
HETATM   15 CL   UNL     1     -11.455  16.046  64.433  1.00  0.00    -0.372 Cl 
ENDBRANCH  12  13
ENDBRANCH   4   6
ENDBRANCH   3   4
TORSDOF 3
ENDMDL
MODEL       31
REMARK 921   NORMALIZED FREE ENERGY PREDICTED BY IDOCK:   -4.22 KCAL/MOL
REMARK 922        TOTAL FREE ENERGY PREDICTED BY IDOCK:   -4.89 KCAL/MOL
REMARK 923 INTER-LIGAND FREE ENERGY PREDICTED BY IDOCK:   -4.69 KCAL/MOL
REMARK 924 INTRA-LIGAND FREE ENERGY PREDICTED BY IDOCK:   -0.20 KCAL/MOL
REMARK 927      BINDING AFFINITY PREDICTED BY RF-SCORE:    0.00 PKD
ROOT
HETATM    1 CL   UNL     1     -10.228   4.699  70.538  1.00  0.00    -0.266 Cl 
HETATM    2  C   UNL     1     -11.082   6.120  69.885  1.00  0.00    -0.410 C  
HETATM    3  C   UNL     1     -12.092   6.636  70.903  1.00  0.00    -0.320 C  
ENDROOT
BRANCH   3   4
HETATM    4  N   UNL     1     -12.533   7.981  70.596  1.00  0.00    -0.467 NA 
HETATM    5  H   UNL     1     -12.979   8.139  69.692  1.00  0.00     0.000 HD 
BRANCH   4   6
HETATM    6  P   UNL     1     -12.367   9.262  71.592  1.00  0.00    -0.411 P  
HETATM    7  O   UNL     1     -10.774   9.383  71.804  1.00  0.00    -0.334 OA 
HETATM    8  O   UNL     1     -13.103   9.179  72.890  1.00  0.00    -0.304 OA 
HETATM    9  C   UNL     1      -9.936   9.488  70.665  1.00  0.00    -0.276 C  
HETATM   10  C   UNL     1     -10.460  10.376  69.522  1.00  0.00    -0.274 C  
HETATM   11  C   UNL     1     -11.978  10.506  69.370  1.00  0.00    -0.158 C  
HETATM   12  N   UNL     1     -12.670  10.594  70.655  1.00  0.00    -0.364 NA 
BRANCH  12  13
HETATM   13  C   UNL     1     -12.417  11.896  71.328  1.00  0.00    -0.213 C  
HETATM   14  C   UNL     1     -13.630  12.481  72.067  1.00  0.00    -0.291 C  
HETATM   15 CL   UNL     1     -13.237  14.087  72.739  1.00  0.00    -0.603 Cl 
ENDBRANCH  12  13
ENDBRANCH   4   6
ENDBRANCH   3   4
TORSDOF 3
ENDMDL
MODEL       32
REMARK 921   NORMALIZED FREE ENERGY PREDICTED BY IDOCK:   -4.21 KCAL/MOL
REMARK 922        TOTAL FREE ENERGY PREDICTED BY IDOCK:   -4.88 KCAL/MOL
REMARK 923 INTER-LIGAND FREE ENERGY PREDICTED BY IDOCK:   -4.64 KCAL/MOL
REMARK 924 INTRA-LIGAND FREE ENERGY PREDICTED BY IDOCK:   -0.24 KCAL/MOL
REMARK 927      BINDING AFFINITY PREDICTED BY RF-SCORE:    0.00 PKD
ROOT
HETATM    1 CL   UNL     1     -10.635  18.781  65.939  1.00  0.00    -0.493 Cl 
HETATM    2  C   UNL     1     -10.405  17.020  65.786  1.00  0.00    -0.261 C  
HETATM    3  C   UNL     1     -10.034  16.422  67.137  1.00  0.00    -0.260 C  
ENDROOT
BRANCH   3   4
HETATM    4  N   UNL     1     -10.204  14.985  67.160  1.00  0.00    -0.247 NA 
HETATM    5  H   UNL     1      -9.522  14.418  66.656  1.00  0.00     0.000 HD 
BRANCH   4   6
HETATM    6  P   UNL     1     -11.410  14.206  67.936  1.00  0.00    -0.331 P  
HETATM    7  O   UNL     1     -12.499  13.931  66.780  1.00  0.00    -0.381 OA 
HETATM    8  O   UNL     1     -12.001  14.919  69.108  1.00  0.00    -0.304 OA 
HETATM    9  C   UNL     1     -12.096  13.246  65.606  1.00  0.00    -0.441 C  
HETATM   10  C   UNL     1     -11.128  12.067  65.812  1.00  0.00    -0.371 C  
HETATM   11  C   UNL     1     -10.192  12.127  67.022  1.00  0.00    -0.207 C  
HETATM   12  N   UNL     1     -10.842  12.674  68.213  1.00  0.00    -0.229 NA 
BRANCH  12  13
HETATM   13  C   UNL     1     -11.846  11.732  68.774  1.00  0.00    -0.320 C  
HETATM   14  C   UNL     1     -11.820  11.606  70.304  1.00  0.00    -0.326 C  
HETATM   15 CL   UNL     1     -12.990  10.373  70.850  1.00  0.00    -0.475 Cl 
ENDBRANCH  12  13
ENDBRANCH   4   6
ENDBRANCH   3   4
TORSDOF 3
ENDMDL
MODEL       33
REMARK 921   NORMALIZED FREE ENERGY PREDICTED BY IDOCK:   -4.20 KCAL/MOL
REMARK 922        TOTAL FREE ENERGY PREDICTED BY IDOCK:   -4.87 KCAL/MOL
REMARK 923 INTER-LIGAND FREE ENERGY PREDICTED BY IDOCK:   -4.94 KCAL/MOL
REMARK 924 INTRA-LIGAND FREE ENERGY PREDICTED BY IDOCK:    0.08 KCAL/MOL
REMARK 927      BINDING AFFINITY PREDICTED BY RF-SCORE:    0.00 PKD
ROOT
HETATM    1 CL   UNL     1      -9.496  10.443  62.338  1.00  0.00    -0.288 Cl 
HETATM    2  C   UNL     1     -10.197  11.815  63.235  1.00  0.00    -0.416 C  
HETATM    3  C   UNL     1     -10.106  11.560  64.734  1.00  0.00    -0.269 C  
ENDROOT
BRANCH   3   4
HETATM    4  N   UNL     1     -10.303  12.770  65.503  1.00  0.00    -0.281 NA 
HETATM    5  H   UNL     1      -9.581  13.489  65.449  1.00  0.00     0.000 HD 
BRANCH   4   6
HETATM    6  P   UNL     1     -11.597  13.067  66.451  1.00  0.00    -0.401 P  
HETATM    7  O   UNL     1     -11.975  11.620  67.053  1.00  0.00    -0.593 OA 
HETATM    8  O   UNL     1     -12.762  13.719  65.780  1.00  0.00    -0.490 OA 
HETATM    9  C   UNL     1     -10.978  10.880  67.737  1.00  0.00    -0.283 C  
HETATM   10  C   UNL     1     -10.050  11.691  68.658  1.00  0.00    -0.206 C  
HETATM   11  C   UNL     1      -9.799  13.157  68.293  1.00  0.00    -0.227 C  
HETATM   12  N   UNL     1     -10.998  13.828  67.794  1.00  0.00    -0.252 NA 
BRANCH  12  13
HETATM   13  C   UNL     1     -11.993  14.052  68.876  1.00  0.00    -0.352 C  
HETATM   14  C   UNL     1     -11.896  15.423  69.562  1.00  0.00    -0.349 C  
HETATM   15 CL   UNL     1     -13.063  15.534  70.908  1.00  0.00    -0.538 Cl 
ENDBRANCH  12  13
ENDBRANCH   4   6
ENDBRANCH   3   4
TORSDOF 3
ENDMDL
MODEL       34
REMARK 921   NORMALIZED FREE ENERGY PREDICTED BY IDOCK:   -4.19 KCAL/MOL
REMARK 922        TOTAL FREE ENERGY PREDICTED BY IDOCK:   -4.86 KCAL/MOL
REMARK 923 INTER-LIGAND FREE ENERGY PREDICTED BY IDOCK:   -4.64 KCAL/MOL
REMARK 924 INTRA-LIGAND FREE ENERGY PREDICTED BY IDOCK:   -0.23 KCAL/MOL
REMARK 927      BINDING AFFINITY PREDICTED BY RF-SCORE:    0.00 PKD
ROOT
HETATM    1 CL   UNL     1     -13.976  15.087  72.173  1.00  0.00    -0.551 Cl 
HETATM    2  C   UNL     1     -13.199  13.528  71.795  1.00  0.00    -0.404 C  
HETATM    3  C   UNL     1     -12.460  13.621  70.465  1.00  0.00    -0.324 C  
ENDROOT
BRANCH   3   4
HETATM    4  N   UNL     1     -11.515  12.538  70.292  1.00  0.00    -0.489 NA 
HETATM    5  H   UNL     1     -10.543  12.711  70.550  1.00  0.00     0.000 HD 
BRANCH   4   6
HETATM    6  P   UNL     1     -11.894  11.060  69.715  1.00  0.00    -0.392 P  
HETATM    7  O   UNL     1     -12.213  11.323  68.157  1.00  0.00    -0.622 OA 
HETATM    8  O   UNL     1     -13.016  10.356  70.407  1.00  0.00    -0.303 OA 
HETATM    9  C   UNL     1     -11.236  11.969  67.357  1.00  0.00    -0.307 C  
HETATM   10  C   UNL     1      -9.776  11.556  67.611  1.00  0.00    -0.182 C  
HETATM   11  C   UNL     1      -9.414  11.073  69.018  1.00  0.00    -0.108 C  
HETATM   12  N   UNL     1     -10.458  10.241  69.616  1.00  0.00    -0.241 NA 
BRANCH  12  13
HETATM   13  C   UNL     1     -10.546   8.911  68.957  1.00  0.00    -0.183 C  
HETATM   14  C   UNL     1     -10.536   7.716  69.923  1.00  0.00    -0.231 C  
HETATM   15 CL   UNL     1     -10.537   6.179  69.016  1.00  0.00    -0.301 Cl 
ENDBRANCH  12  13
ENDBRANCH   4   6
ENDBRANCH   3   4
TORSDOF 3
ENDMDL
MODEL       35
REMARK 921   NORMALIZED FREE ENERGY PREDICTED BY IDOCK:   -4.19 KCAL/MOL
REMARK 922        TOTAL FREE ENERGY PREDICTED BY IDOCK:   -4.86 KCAL/MOL
REMARK 923 INTER-LIGAND FREE ENERGY PREDICTED BY IDOCK:   -4.61 KCAL/MOL
REMARK 924 INTRA-LIGAND FREE ENERGY PREDICTED BY IDOCK:   -0.25 KCAL/MOL
REMARK 927      BINDING AFFINITY PREDICTED BY RF-SCORE:    0.00 PKD
ROOT
HETATM    1 CL   UNL     1      -9.313   4.488  73.895  1.00  0.00    -0.113 Cl 
HETATM    2  C   UNL     1     -10.730   5.535  73.625  1.00  0.00    -0.282 C  
HETATM    3  C   UNL     1     -10.336   6.998  73.788  1.00  0.00    -0.369 C  
ENDROOT
BRANCH   3   4
HETATM    4  N   UNL     1     -11.323   7.892  73.221  1.00  0.00    -0.512 NA 
HETATM    5  H   UNL     1     -12.112   8.163  73.809  1.00  0.00     0.000 HD 
BRANCH   4   6
HETATM    6  P   UNL     1     -11.265   8.497  71.707  1.00  0.00    -0.361 P  
HETATM    7  O   UNL     1     -12.113   7.439  70.835  1.00  0.00    -0.307 OA 
HETATM    8  O   UNL     1      -9.899   8.723  71.145  1.00  0.00    -0.200 OA 
HETATM    9  C   UNL     1     -13.439   7.129  71.230  1.00  0.00    -0.222 C  
HETATM   10  C   UNL     1     -14.287   8.313  71.729  1.00  0.00    -0.574 C  
HETATM   11  C   UNL     1     -13.547   9.484  72.381  1.00  0.00    -0.382 C  
HETATM   12  N   UNL     1     -12.287   9.801  71.711  1.00  0.00    -0.390 NA 
BRANCH  12  13
HETATM   13  C   UNL     1     -12.513  10.417  70.377  1.00  0.00    -0.268 C  
HETATM   14  C   UNL     1     -11.546  11.556  70.025  1.00  0.00    -0.282 C  
HETATM   15 CL   UNL     1     -11.981  12.284  68.455  1.00  0.00    -0.347 Cl 
ENDBRANCH  12  13
ENDBRANCH   4   6
ENDBRANCH   3   4
TORSDOF 3
ENDMDL
MODEL       36
REMARK 921   NORMALIZED FREE ENERGY PREDICTED BY IDOCK:   -4.18 KCAL/MOL
REMARK 922        TOTAL FREE ENERGY PREDICTED BY IDOCK:   -4.85 KCAL/MOL
REMARK 923 INTER-LIGAND FREE ENERGY PREDICTED BY IDOCK:   -4.65 KCAL/MOL
REMARK 924 INTRA-LIGAND FREE ENERGY PREDICTED BY IDOCK:   -0.19 KCAL/MOL
REMARK 927      BINDING AFFINITY PREDICTED BY RF-SCORE:    0.00 PKD
ROOT
HETATM    1 CL   UNL     1     -10.012  19.026  68.558  1.00  0.00    -0.459 Cl 
HETATM    2  C   UNL     1     -10.196  17.800  67.278  1.00  0.00    -0.350 C  
HETATM    3  C   UNL     1     -10.423  16.427  67.899  1.00  0.00    -0.307 C  
ENDROOT
BRANCH   3   4
HETATM    4  N   UNL     1     -10.948  15.478  66.940  1.00  0.00    -0.302 NA 
HETATM    5  H   UNL     1     -10.894  15.724  65.951  1.00  0.00     0.000 HD 
BRANCH   4   6
HETATM    6  P   UNL     1     -11.622  14.043  67.327  1.00  0.00    -0.409 P  
HETATM    7  O   UNL     1     -12.758  13.833  66.204  1.00  0.00    -0.407 OA 
HETATM    8  O   UNL     1     -12.172  13.933  68.712  1.00  0.00    -0.348 OA 
HETATM    9  C   UNL     1     -12.390  13.892  64.836  1.00  0.00    -0.420 C  
HETATM   10  C   UNL     1     -11.051  13.227  64.469  1.00  0.00    -0.392 C  
HETATM   11  C   UNL     1      -9.969  13.176  65.551  1.00  0.00    -0.207 C  
HETATM   12  N   UNL     1     -10.511  12.898  66.881  1.00  0.00    -0.245 NA 
BRANCH  12  13
HETATM   13  C   UNL     1     -10.987  11.494  66.998  1.00  0.00    -0.294 C  
HETATM   14  C   UNL     1      -9.896  10.430  66.807  1.00  0.00    -0.195 C  
HETATM   15 CL   UNL     1     -10.603   8.792  66.862  1.00  0.00    -0.319 Cl 
ENDBRANCH  12  13
ENDBRANCH   4   6
ENDBRANCH   3   4
TORSDOF 3
ENDMDL
MODEL       37
REMARK 921   NORMALIZED FREE ENERGY PREDICTED BY IDOCK:   -4.17 KCAL/MOL
REMARK 922        TOTAL FREE ENERGY PREDICTED BY IDOCK:   -4.84 KCAL/MOL
REMARK 923 INTER-LIGAND FREE ENERGY PREDICTED BY IDOCK:   -4.58 KCAL/MOL
REMARK 924 INTRA-LIGAND FREE ENERGY PREDICTED BY IDOCK:   -0.25 KCAL/MOL
REMARK 927      BINDING AFFINITY PREDICTED BY RF-SCORE:    0.00 PKD
ROOT
HETATM    1 CL   UNL     1     -10.507  17.689  65.869  1.00  0.00    -0.324 Cl 
HETATM    2  C   UNL     1     -10.502  15.957  66.293  1.00  0.00    -0.318 C  
HETATM    3  C   UNL     1     -10.535  15.110  65.027  1.00  0.00    -0.389 C  
ENDROOT
BRANCH   3   4
HETATM    4  N   UNL     1     -10.156  13.737  65.284  1.00  0.00    -0.496 NA 
HETATM    5  H   UNL     1      -9.193  13.465  65.082  1.00  0.00     0.000 HD 
BRANCH   4   6
HETATM    6  P   UNL     1     -11.159  12.591  65.872  1.00  0.00    -0.329 P  
HETATM    7  O   UNL     1     -10.401  11.208  65.542  1.00  0.00    -0.253 OA 
HETATM    8  O   UNL     1     -12.555  12.610  65.339  1.00  0.00    -0.641 OA 
HETATM    9  C   UNL     1      -9.069  11.029  65.996  1.00  0.00    -0.195 C  
HETATM   10  C   UNL     1      -8.762  11.562  67.407  1.00  0.00    -0.147 C  
HETATM   11  C   UNL     1      -9.589  12.749  67.908  1.00  0.00    -0.211 C  
HETATM   12  N   UNL     1     -10.995  12.663  67.519  1.00  0.00    -0.238 NA 
BRANCH  12  13
HETATM   13  C   UNL     1     -11.707  11.588  68.260  1.00  0.00    -0.301 C  
HETATM   14  C   UNL     1     -11.796  11.808  69.777  1.00  0.00    -0.349 C  
HETATM   15 CL   UNL     1     -12.572  10.409  70.568  1.00  0.00    -0.392 Cl 
ENDBRANCH  12  13
ENDBRANCH   4   6
ENDBRANCH   3   4
TORSDOF 3
ENDMDL
MODEL       38
REMARK 921   NORMALIZED FREE ENERGY PREDICTED BY IDOCK:   -4.16 KCAL/MOL
REMARK 922        TOTAL FREE ENERGY PREDICTED BY IDOCK:   -4.82 KCAL/MOL
REMARK 923 INTER-LIGAND FREE ENERGY PREDICTED BY IDOCK:   -4.57 KCAL/MOL
REMARK 924 INTRA-LIGAND FREE ENERGY PREDICTED BY IDOCK:   -0.25 KCAL/MOL
REMARK 927      BINDING AFFINITY PREDICTED BY RF-SCORE:    0.00 PKD
ROOT
HETATM    1 CL   UNL     1     -10.034   8.453  68.968  1.00  0.00    -0.185 Cl 
HETATM    2  C   UNL     1     -10.710   9.517  67.707  1.00  0.00    -0.242 C  
HETATM    3  C   UNL     1     -11.490  10.657  68.349  1.00  0.00    -0.259 C  
ENDROOT
BRANCH   3   4
HETATM    4  N   UNL     1     -11.734  11.739  67.419  1.00  0.00    -0.588 NA 
HETATM    5  H   UNL     1     -12.630  11.754  66.932  1.00  0.00     0.000 HD 
BRANCH   4   6
HETATM    6  P   UNL     1     -10.676  12.938  67.093  1.00  0.00    -0.260 P  
HETATM    7  O   UNL     1     -10.006  12.494  65.696  1.00  0.00    -0.259 OA 
HETATM    8  O   UNL     1      -9.652  13.210  68.147  1.00  0.00    -0.217 OA 
HETATM    9  C   UNL     1     -10.848  12.217  64.589  1.00  0.00    -0.306 C  
HETATM   10  C   UNL     1     -12.053  13.156  64.407  1.00  0.00    -0.471 C  
HETATM   11  C   UNL     1     -12.633  13.812  65.663  1.00  0.00    -0.509 C  
HETATM   12  N   UNL     1     -11.600  14.226  66.613  1.00  0.00    -0.368 NA 
BRANCH  12  13
HETATM   13  C   UNL     1     -10.826  15.392  66.110  1.00  0.00    -0.313 C  
HETATM   14  C   UNL     1     -10.466  16.432  67.181  1.00  0.00    -0.297 C  
HETATM   15 CL   UNL     1      -9.636  17.829  66.443  1.00  0.00    -0.300 Cl 
ENDBRANCH  12  13
ENDBRANCH   4   6
ENDBRANCH   3   4
TORSDOF 3
ENDMDL
MODEL       39
REMARK 921   NORMALIZED FREE ENERGY PREDICTED BY IDOCK:   -4.16 KCAL/MOL
REMARK 922        TOTAL FREE ENERGY PREDICTED BY IDOCK:   -4.82 KCAL/MOL
REMARK 923 INTER-LIGAND FREE ENERGY PREDICTED BY IDOCK:   -4.58 KCAL/MOL
REMARK 924 INTRA-LIGAND FREE ENERGY PREDICTED BY IDOCK:   -0.25 KCAL/MOL
REMARK 927      BINDING AFFINITY PREDICTED BY RF-SCORE:    0.00 PKD
ROOT
HETATM    1 CL   UNL     1     -13.384   9.672  71.354  1.00  0.00    -0.449 Cl 
HETATM    2  C   UNL     1     -12.352  11.111  71.153  1.00  0.00    -0.346 C  
HETATM    3  C   UNL     1     -11.480  10.959  69.913  1.00  0.00    -0.323 C  
ENDROOT
BRANCH   3   4
HETATM    4  N   UNL     1     -10.913  12.222  69.490  1.00  0.00    -0.462 NA 
HETATM    5  H   UNL     1     -10.028  12.509  69.909  1.00  0.00     0.000 HD 
BRANCH   4   6
HETATM    6  P   UNL     1     -11.589  13.222  68.391  1.00  0.00    -0.377 P  
HETATM    7  O   UNL     1     -12.641  14.088  69.252  1.00  0.00    -0.151 OA 
HETATM    8  O   UNL     1     -12.232  12.560  67.216  1.00  0.00    -0.454 OA 
HETATM    9  C   UNL     1     -12.179  14.792  70.393  1.00  0.00    -0.336 C  
HETATM   10  C   UNL     1     -10.808  15.477  70.253  1.00  0.00    -0.358 C  
HETATM   11  C   UNL     1      -9.803  14.851  69.282  1.00  0.00    -0.159 C  
HETATM   12  N   UNL     1     -10.432  14.359  68.057  1.00  0.00    -0.235 NA 
BRANCH  12  13
HETATM   13  C   UNL     1     -10.893  15.475  67.188  1.00  0.00    -0.316 C  
HETATM   14  C   UNL     1      -9.838  16.561  66.927  1.00  0.00    -0.257 C  
HETATM   15 CL   UNL     1     -10.536  17.893  65.967  1.00  0.00    -0.357 Cl 
ENDBRANCH  12  13
ENDBRANCH   4   6
ENDBRANCH   3   4
TORSDOF 3
ENDMDL
MODEL       40
REMARK 921   NORMALIZED FREE ENERGY PREDICTED BY IDOCK:   -4.09 KCAL/MOL
REMARK 922        TOTAL FREE ENERGY PREDICTED BY IDOCK:   -4.74 KCAL/MOL
REMARK 923 INTER-LIGAND FREE ENERGY PREDICTED BY IDOCK:   -4.49 KCAL/MOL
REMARK 924 INTRA-LIGAND FREE ENERGY PREDICTED BY IDOCK:   -0.25 KCAL/MOL
REMARK 927      BINDING AFFINITY PREDICTED BY RF-SCORE:    0.00 PKD
ROOT
HETATM    1 CL   UNL     1     -11.549   8.313  70.754  1.00  0.00    -0.275 Cl 
HETATM    2  C   UNL     1     -11.252  10.069  70.672  1.00  0.00    -0.350 C  
HETATM    3  C   UNL     1     -10.239  10.376  69.577  1.00  0.00    -0.231 C  
ENDROOT
BRANCH   3   4
HETATM    4  N   UNL     1     -10.243  11.777  69.212  1.00  0.00    -0.416 NA 
HETATM    5  H   UNL     1      -9.565  12.388  69.668  1.00  0.00     0.000 HD 
BRANCH   4   6
HETATM    6  P   UNL     1     -11.254  12.449  68.122  1.00  0.00    -0.315 P  
HETATM    7  O   UNL     1     -12.372  13.175  69.027  1.00  0.00    -0.153 OA 
HETATM    8  O   UNL     1     -11.858  11.511  67.127  1.00  0.00    -0.595 OA 
HETATM    9  C   UNL     1     -11.957  14.110  70.010  1.00  0.00    -0.340 C  
HETATM   10  C   UNL     1     -10.808  15.049  69.604  1.00  0.00    -0.283 C  
HETATM   11  C   UNL     1      -9.805  14.531  68.571  1.00  0.00    -0.231 C  
HETATM   12  N   UNL     1     -10.439  13.754  67.507  1.00  0.00    -0.244 NA 
BRANCH  12  13
HETATM   13  C   UNL     1     -11.243  14.616  66.601  1.00  0.00    -0.349 C  
HETATM   14  C   UNL     1     -10.704  14.715  65.166  1.00  0.00    -0.414 C  
HETATM   15 CL   UNL     1     -11.685  15.856  64.206  1.00  0.00    -0.295 Cl 
ENDBRANCH  12  13
ENDBRANCH   4   6
ENDBRANCH   3   4
TORSDOF 3
ENDMDL
MODEL       41
REMARK 921   NORMALIZED FREE ENERGY PREDICTED BY IDOCK:   -4.08 KCAL/MOL
REMARK 922        TOTAL FREE ENERGY PREDICTED BY IDOCK:   -4.73 KCAL/MOL
REMARK 923 INTER-LIGAND FREE ENERGY PREDICTED BY IDOCK:   -4.45 KCAL/MOL
REMARK 924 INTRA-LIGAND FREE ENERGY PREDICTED BY IDOCK:   -0.28 KCAL/MOL
REMARK 927      BINDING AFFINITY PREDICTED BY RF-SCORE:    0.00 PKD
ROOT
HETATM    1 CL   UNL     1     -12.066  13.587  63.821  1.00  0.00    -0.519 Cl 
HETATM    2  C   UNL     1     -11.559  14.283  65.382  1.00  0.00    -0.346 C  
HETATM    3  C   UNL     1     -10.040  14.374  65.444  1.00  0.00    -0.359 C  
ENDROOT
BRANCH   3   4
HETATM    4  N   UNL     1      -9.593  15.260  66.498  1.00  0.00    -0.253 NA 
HETATM    5  H   UNL     1      -9.353  16.219  66.243  1.00  0.00     0.000 HD 
BRANCH   4   6
HETATM    6  P   UNL     1      -9.444  14.835  68.067  1.00  0.00    -0.214 P  
HETATM    7  O   UNL     1      -8.207  15.724  68.592  1.00  0.00    -0.154 OA 
HETATM    8  O   UNL     1      -9.244  13.378  68.332  1.00  0.00    -0.195 OA 
HETATM    9  C   UNL     1      -8.254  17.132  68.428  1.00  0.00    -0.253 C  
HETATM   10  C   UNL     1      -9.620  17.794  68.681  1.00  0.00    -0.322 C  
HETATM   11  C   UNL     1     -10.871  16.951  68.420  1.00  0.00    -0.347 C  
HETATM   12  N   UNL     1     -10.715  15.560  68.844  1.00  0.00    -0.232 NA 
BRANCH  12  13
HETATM   13  C   UNL     1     -10.687  15.437  70.326  1.00  0.00    -0.298 C  
HETATM   14  C   UNL     1     -11.944  15.962  71.036  1.00  0.00    -0.412 C  
HETATM   15 CL   UNL     1     -11.750  15.861  72.807  1.00  0.00    -0.542 Cl 
ENDBRANCH  12  13
ENDBRANCH   4   6
ENDBRANCH   3   4
TORSDOF 3
ENDMDL
MODEL       42
REMARK 921   NORMALIZED FREE ENERGY PREDICTED BY IDOCK:   -4.07 KCAL/MOL
REMARK 922        TOTAL FREE ENERGY PREDICTED BY IDOCK:   -4.72 KCAL/MOL
REMARK 923 INTER-LIGAND FREE ENERGY PREDICTED BY IDOCK:   -4.50 KCAL/MOL
REMARK 924 INTRA-LIGAND FREE ENERGY PREDICTED BY IDOCK:   -0.21 KCAL/MOL
REMARK 927      BINDING AFFINITY PREDICTED BY RF-SCORE:    0.00 PKD
ROOT
HETATM    1 CL   UNL     1     -12.232  15.735  70.429  1.00  0.00    -0.409 Cl 
HETATM    2  C   UNL     1     -11.825  15.096  68.815  1.00  0.00    -0.303 C  
HETATM    3  C   UNL     1     -10.670  14.108  68.920  1.00  0.00    -0.256 C  
ENDROOT
BRANCH   3   4
HETATM    4  N   UNL     1     -10.548  13.288  67.734  1.00  0.00    -0.238 NA 
HETATM    5  H   UNL     1      -9.975  13.643  66.968  1.00  0.00     0.000 HD 
BRANCH   4   6
HETATM    6  P   UNL     1     -11.263  11.834  67.533  1.00  0.00    -0.309 P  
HETATM    7  O   UNL     1     -12.117  12.008  66.177  1.00  0.00    -0.582 OA 
HETATM    8  O   UNL     1     -12.105  11.358  68.671  1.00  0.00    -0.518 OA 
HETATM    9  C   UNL     1     -11.455  12.440  64.999  1.00  0.00    -0.332 C  
HETATM   10  C   UNL     1     -10.056  11.846  64.757  1.00  0.00    -0.295 C  
HETATM   11  C   UNL     1      -9.241  11.437  65.987  1.00  0.00    -0.214 C  
HETATM   12  N   UNL     1     -10.059  10.815  67.027  1.00  0.00    -0.200 NA 
BRANCH  12  13
HETATM   13  C   UNL     1     -10.522   9.460  66.625  1.00  0.00    -0.168 C  
HETATM   14  C   UNL     1     -10.531   8.425  67.760  1.00  0.00    -0.220 C  
HETATM   15 CL   UNL     1     -10.999   6.819  67.137  1.00  0.00    -0.460 Cl 
ENDBRANCH  12  13
ENDBRANCH   4   6
ENDBRANCH   3   4
TORSDOF 3
ENDMDL
MODEL       43
REMARK 921   NORMALIZED FREE ENERGY PREDICTED BY IDOCK:   -4.03 KCAL/MOL
REMARK 922        TOTAL FREE ENERGY PREDICTED BY IDOCK:   -4.67 KCAL/MOL
REMARK 923 INTER-LIGAND FREE ENERGY PREDICTED BY IDOCK:   -4.49 KCAL/MOL
REMARK 924 INTRA-LIGAND FREE ENERGY PREDICTED BY IDOCK:   -0.18 KCAL/MOL
REMARK 927      BINDING AFFINITY PREDICTED BY RF-SCORE:    0.00 PKD
ROOT
HETATM    1 CL   UNL     1     -12.454  12.589  64.995  1.00  0.00    -0.541 Cl 
HETATM    2  C   UNL     1     -10.855  13.314  65.303  1.00  0.00    -0.301 C  
HETATM    3  C   UNL     1     -10.969  14.833  65.339  1.00  0.00    -0.359 C  
ENDROOT
BRANCH   3   4
HETATM    4  N   UNL     1      -9.810  15.450  65.949  1.00  0.00    -0.328 NA 
HETATM    5  H   UNL     1      -8.941  14.915  65.965  1.00  0.00     0.000 HD 
BRANCH   4   6
HETATM    6  P   UNL     1      -9.792  16.941  66.611  1.00  0.00    -0.315 P  
HETATM    7  O   UNL     1     -10.903  16.859  67.776  1.00  0.00    -0.345 OA 
HETATM    8  O   UNL     1     -10.044  18.076  65.672  1.00  0.00    -0.551 OA 
HETATM    9  C   UNL     1     -10.794  15.842  68.759  1.00  0.00    -0.284 C  
HETATM   10  C   UNL     1      -9.371  15.543  69.262  1.00  0.00    -0.266 C  
HETATM   11  C   UNL     1      -8.212  15.801  68.296  1.00  0.00    -0.143 C  
HETATM   12  N   UNL     1      -8.397  17.014  67.501  1.00  0.00    -0.187 NA 
BRANCH  12  13
HETATM   13  C   UNL     1      -8.253  18.241  68.329  1.00  0.00    -0.298 C  
HETATM   14  C   UNL     1      -6.831  18.499  68.849  1.00  0.00    -0.278 C  
HETATM   15 CL   UNL     1      -6.805  19.932  69.913  1.00  0.00    -0.298 Cl 
ENDBRANCH  12  13
ENDBRANCH   4   6
ENDBRANCH   3   4
TORSDOF 3
ENDMDL
MODEL       44
REMARK 921   NORMALIZED FREE ENERGY PREDICTED BY IDOCK:   -4.01 KCAL/MOL
REMARK 922        TOTAL FREE ENERGY PREDICTED BY IDOCK:   -4.64 KCAL/MOL
REMARK 923 INTER-LIGAND FREE ENERGY PREDICTED BY IDOCK:   -4.39 KCAL/MOL
REMARK 924 INTRA-LIGAND FREE ENERGY PREDICTED BY IDOCK:   -0.25 KCAL/MOL
REMARK 927      BINDING AFFINITY PREDICTED BY RF-SCORE:    0.00 PKD
ROOT
HETATM    1 CL   UNL     1      -5.903  20.043  70.843  1.00  0.00    -0.345 Cl 
HETATM    2  C   UNL     1      -6.733  19.614  69.325  1.00  0.00    -0.356 C  
HETATM    3  C   UNL     1      -6.671  18.108  69.104  1.00  0.00    -0.246 C  
ENDROOT
BRANCH   3   4
HETATM    4  N   UNL     1      -7.631  17.666  68.115  1.00  0.00    -0.226 NA 
HETATM    5  H   UNL     1      -7.478  17.947  67.146  1.00  0.00     0.000 HD 
BRANCH   4   6
HETATM    6  P   UNL     1      -8.941  16.749  68.438  1.00  0.00    -0.246 P  
HETATM    7  O   UNL     1     -10.077  17.822  68.831  1.00  0.00    -0.360 OA 
HETATM    8  O   UNL     1      -8.764  15.705  69.494  1.00  0.00    -0.260 OA 
HETATM    9  C   UNL     1     -10.376  18.869  67.922  1.00  0.00    -0.404 C  
HETATM   10  C   UNL     1     -10.404  18.480  66.433  1.00  0.00    -0.456 C  
HETATM   11  C   UNL     1      -9.516  17.314  65.991  1.00  0.00    -0.115 C  
HETATM   12  N   UNL     1      -9.489  16.223  66.966  1.00  0.00    -0.222 NA 
BRANCH  12  13
HETATM   13  C   UNL     1     -10.784  15.493  67.010  1.00  0.00    -0.321 C  
HETATM   14  C   UNL     1     -11.129  14.724  65.727  1.00  0.00    -0.338 C  
HETATM   15 CL   UNL     1     -12.746  13.980  65.859  1.00  0.00    -0.500 Cl 
ENDBRANCH  12  13
ENDBRANCH   4   6
ENDBRANCH   3   4
TORSDOF 3
ENDMDL
MODEL       45
REMARK 921   NORMALIZED FREE ENERGY PREDICTED BY IDOCK:   -3.98 KCAL/MOL
REMARK 922        TOTAL FREE ENERGY PREDICTED BY IDOCK:   -4.61 KCAL/MOL
REMARK 923 INTER-LIGAND FREE ENERGY PREDICTED BY IDOCK:   -4.36 KCAL/MOL
REMARK 924 INTRA-LIGAND FREE ENERGY PREDICTED BY IDOCK:   -0.26 KCAL/MOL
REMARK 927      BINDING AFFINITY PREDICTED BY RF-SCORE:    0.00 PKD
ROOT
HETATM    1 CL   UNL     1     -13.388  12.685  72.201  1.00  0.00    -0.623 Cl 
HETATM    2  C   UNL     1     -13.220  10.976  71.726  1.00  0.00    -0.400 C  
HETATM    3  C   UNL     1     -12.408  10.869  70.441  1.00  0.00    -0.351 C  
ENDROOT
BRANCH   3   4
HETATM    4  N   UNL     1     -11.923   9.523  70.217  1.00  0.00    -0.463 NA 
HETATM    5  H   UNL     1     -12.562   8.854  69.787  1.00  0.00     0.000 HD 
BRANCH   4   6
HETATM    6  P   UNL     1     -10.426   9.000  70.603  1.00  0.00    -0.278 P  
HETATM    7  O   UNL     1     -10.513   8.714  72.187  1.00  0.00    -0.322 OA 
HETATM    8  O   UNL     1      -9.302   9.923  70.258  1.00  0.00    -0.225 OA 
HETATM    9  C   UNL     1     -11.520   7.842  72.672  1.00  0.00    -0.395 C  
HETATM   10  C   UNL     1     -11.796   6.591  71.820  1.00  0.00    -0.384 C  
HETATM   11  C   UNL     1     -11.531   6.691  70.315  1.00  0.00    -0.391 C  
HETATM   12  N   UNL     1     -10.327   7.459  70.003  1.00  0.00    -0.214 NA 
BRANCH  12  13
HETATM   13  C   UNL     1      -9.091   6.724  70.383  1.00  0.00    -0.153 C  
HETATM   14  C   UNL     1      -7.973   6.765  69.330  1.00  0.00    -0.115 C  
HETATM   15 CL   UNL     1      -6.589   5.764  69.849  1.00  0.00    -0.044 Cl 
ENDBRANCH  12  13
ENDBRANCH   4   6
ENDBRANCH   3   4
TORSDOF 3
ENDMDL
MODEL       46
REMARK 921   NORMALIZED FREE ENERGY PREDICTED BY IDOCK:   -3.98 KCAL/MOL
REMARK 922        TOTAL FREE ENERGY PREDICTED BY IDOCK:   -4.61 KCAL/MOL
REMARK 923 INTER-LIGAND FREE ENERGY PREDICTED BY IDOCK:   -4.64 KCAL/MOL
REMARK 924 INTRA-LIGAND FREE ENERGY PREDICTED BY IDOCK:    0.04 KCAL/MOL
REMARK 927      BINDING AFFINITY PREDICTED BY RF-SCORE:    0.00 PKD
ROOT
HETATM    1 CL   UNL     1      -6.762  20.963  67.989  1.00  0.00    -0.327 Cl 
HETATM    2  C   UNL     1      -7.722  19.535  67.522  1.00  0.00    -0.261 C  
HETATM    3  C   UNL     1      -8.717  19.192  68.624  1.00  0.00    -0.359 C  
ENDROOT
BRANCH   3   4
HETATM    4  N   UNL     1      -9.759  18.303  68.156  1.00  0.00    -0.311 NA 
HETATM    5  H   UNL     1     -10.713  18.482  68.472  1.00  0.00     0.000 HD 
BRANCH   4   6
HETATM    6  P   UNL     1      -9.517  17.033  67.160  1.00  0.00    -0.257 P  
HETATM    7  O   UNL     1      -8.497  16.090  67.976  1.00  0.00    -0.161 OA 
HETATM    8  O   UNL     1      -9.009  17.363  65.794  1.00  0.00    -0.521 OA 
HETATM    9  C   UNL     1      -8.845  15.675  69.286  1.00  0.00    -0.264 C  
HETATM   10  C   UNL     1     -10.320  15.293  69.502  1.00  0.00    -0.267 C  
HETATM   11  C   UNL     1     -11.363  15.978  68.614  1.00  0.00    -0.383 C  
HETATM   12  N   UNL     1     -10.911  16.141  67.233  1.00  0.00    -0.281 NA 
BRANCH  12  13
HETATM   13  C   UNL     1     -10.852  14.839  66.517  1.00  0.00    -0.319 C  
HETATM   14  C   UNL     1     -12.149  14.018  66.572  1.00  0.00    -0.459 C  
HETATM   15 CL   UNL     1     -11.924  12.438  65.775  1.00  0.00    -0.475 Cl 
ENDBRANCH  12  13
ENDBRANCH   4   6
ENDBRANCH   3   4
TORSDOF 3
ENDMDL
MODEL       47
REMARK 921   NORMALIZED FREE ENERGY PREDICTED BY IDOCK:   -3.92 KCAL/MOL
REMARK 922        TOTAL FREE ENERGY PREDICTED BY IDOCK:   -4.55 KCAL/MOL
REMARK 923 INTER-LIGAND FREE ENERGY PREDICTED BY IDOCK:   -4.29 KCAL/MOL
REMARK 924 INTRA-LIGAND FREE ENERGY PREDICTED BY IDOCK:   -0.26 KCAL/MOL
REMARK 927      BINDING AFFINITY PREDICTED BY RF-SCORE:    0.00 PKD
ROOT
HETATM    1 CL   UNL     1      -9.798  20.483  66.899  1.00  0.00    -0.571 Cl 
HETATM    2  C   UNL     1     -10.704  18.986  67.242  1.00  0.00    -0.470 C  
HETATM    3  C   UNL     1     -10.208  17.859  66.344  1.00  0.00    -0.372 C  
ENDROOT
BRANCH   3   4
HETATM    4  N   UNL     1     -10.626  16.559  66.826  1.00  0.00    -0.268 NA 
HETATM    5  H   UNL     1     -11.617  16.326  66.762  1.00  0.00     0.000 HD 
BRANCH   4   6
HETATM    6  P   UNL     1      -9.624  15.440  67.464  1.00  0.00    -0.206 P  
HETATM    7  O   UNL     1      -9.505  15.867  69.014  1.00  0.00    -0.217 OA 
HETATM    8  O   UNL     1      -8.286  15.313  66.811  1.00  0.00    -0.234 OA 
HETATM    9  C   UNL     1     -10.691  16.013  69.778  1.00  0.00    -0.331 C  
HETATM   10  C   UNL     1     -11.789  14.964  69.526  1.00  0.00    -0.360 C  
HETATM   11  C   UNL     1     -11.849  14.328  68.134  1.00  0.00    -0.339 C  
HETATM   12  N   UNL     1     -10.524  14.054  67.579  1.00  0.00    -0.251 NA 
BRANCH  12  13
HETATM   13  C   UNL     1      -9.851  12.935  68.290  1.00  0.00    -0.228 C  
HETATM   14  C   UNL     1     -10.649  11.624  68.321  1.00  0.00    -0.205 C  
HETATM   15 CL   UNL     1      -9.793  10.392  69.288  1.00  0.00    -0.236 Cl 
ENDBRANCH  12  13
ENDBRANCH   4   6
ENDBRANCH   3   4
TORSDOF 3
ENDMDL
MODEL       48
REMARK 921   NORMALIZED FREE ENERGY PREDICTED BY IDOCK:   -3.91 KCAL/MOL
REMARK 922        TOTAL FREE ENERGY PREDICTED BY IDOCK:   -4.53 KCAL/MOL
REMARK 923 INTER-LIGAND FREE ENERGY PREDICTED BY IDOCK:   -4.29 KCAL/MOL
REMARK 924 INTRA-LIGAND FREE ENERGY PREDICTED BY IDOCK:   -0.24 KCAL/MOL
REMARK 927      BINDING AFFINITY PREDICTED BY RF-SCORE:    0.00 PKD
ROOT
HETATM    1 CL   UNL     1     -13.438   9.438  71.982  1.00  0.00    -0.485 Cl 
HETATM    2  C   UNL     1     -12.447  10.656  71.138  1.00  0.00    -0.418 C  
HETATM    3  C   UNL     1     -11.165  10.016  70.619  1.00  0.00    -0.350 C  
ENDROOT
BRANCH   3   4
HETATM    4  N   UNL     1     -10.514  10.838  69.620  1.00  0.00    -0.406 NA 
HETATM    5  H   UNL     1      -9.976  11.642  69.945  1.00  0.00     0.000 HD 
BRANCH   4   6
HETATM    6  P   UNL     1     -10.580  10.570  68.012  1.00  0.00    -0.255 P  
HETATM    7  O   UNL     1     -11.849  11.437  67.527  1.00  0.00    -0.614 OA 
HETATM    8  O   UNL     1     -10.682   9.139  67.592  1.00  0.00    -0.262 OA 
HETATM    9  C   UNL     1     -11.893  12.821  67.835  1.00  0.00    -0.339 C  
HETATM   10  C   UNL     1     -10.561  13.581  67.709  1.00  0.00    -0.252 C  
HETATM   11  C   UNL     1      -9.271  12.788  67.935  1.00  0.00    -0.205 C  
HETATM   12  N   UNL     1      -9.328  11.442  67.366  1.00  0.00    -0.166 NA 
BRANCH  12  13
HETATM   13  C   UNL     1      -9.295  11.471  65.880  1.00  0.00    -0.226 C  
HETATM   14  C   UNL     1      -8.464  10.351  65.236  1.00  0.00    -0.169 C  
HETATM   15 CL   UNL     1      -8.410  10.552  63.464  1.00  0.00    -0.147 Cl 
ENDBRANCH  12  13
ENDBRANCH   4   6
ENDBRANCH   3   4
TORSDOF 3
ENDMDL
MODEL       49
REMARK 921   NORMALIZED FREE ENERGY PREDICTED BY IDOCK:   -3.90 KCAL/MOL
REMARK 922        TOTAL FREE ENERGY PREDICTED BY IDOCK:   -4.52 KCAL/MOL
REMARK 923 INTER-LIGAND FREE ENERGY PREDICTED BY IDOCK:   -4.45 KCAL/MOL
REMARK 924 INTRA-LIGAND FREE ENERGY PREDICTED BY IDOCK:   -0.07 KCAL/MOL
REMARK 927      BINDING AFFINITY PREDICTED BY RF-SCORE:    0.00 PKD
ROOT
HETATM    1 CL   UNL     1      -6.641  20.005  69.625  1.00  0.00    -0.367 Cl 
HETATM    2  C   UNL     1      -7.510  19.286  68.245  1.00  0.00    -0.300 C  
HETATM    3  C   UNL     1      -7.461  17.765  68.332  1.00  0.00    -0.263 C  
ENDROOT
BRANCH   3   4
HETATM    4  N   UNL     1      -8.447  17.141  67.476  1.00  0.00    -0.197 NA 
HETATM    5  H   UNL     1      -8.117  16.687  66.623  1.00  0.00     0.000 HD 
BRANCH   4   6
HETATM    6  P   UNL     1     -10.051  17.110  67.776  1.00  0.00    -0.334 P  
HETATM    7  O   UNL     1     -10.609  15.973  66.780  1.00  0.00    -0.315 OA 
HETATM    8  O   UNL     1     -10.772  18.409  67.607  1.00  0.00    -0.423 OA 
HETATM    9  C   UNL     1     -10.037  14.676  66.829  1.00  0.00    -0.265 C  
HETATM   10  C   UNL     1      -9.709  14.138  68.234  1.00  0.00    -0.227 C  
HETATM   11  C   UNL     1      -9.378  15.163  69.322  1.00  0.00    -0.207 C  
HETATM   12  N   UNL     1     -10.213  16.361  69.244  1.00  0.00    -0.266 NA 
BRANCH  12  13
HETATM   13  C   UNL     1     -11.617  16.079  69.645  1.00  0.00    -0.299 C  
HETATM   14  C   UNL     1     -11.815  15.824  71.147  1.00  0.00    -0.425 C  
HETATM   15 CL   UNL     1     -13.512  15.393  71.490  1.00  0.00    -0.562 Cl 
ENDBRANCH  12  13
ENDBRANCH   4   6
ENDBRANCH   3   4
TORSDOF 3
ENDMDL
MODEL       50
REMARK 921   NORMALIZED FREE ENERGY PREDICTED BY IDOCK:   -3.90 KCAL/MOL
REMARK 922        TOTAL FREE ENERGY PREDICTED BY IDOCK:   -4.52 KCAL/MOL
REMARK 923 INTER-LIGAND FREE ENERGY PREDICTED BY IDOCK:   -4.27 KCAL/MOL
REMARK 924 INTRA-LIGAND FREE ENERGY PREDICTED BY IDOCK:   -0.25 KCAL/MOL
REMARK 927      BINDING AFFINITY PREDICTED BY RF-SCORE:    0.00 PKD
ROOT
HETATM    1 CL   UNL     1      -9.968   9.329  65.796  1.00  0.00    -0.320 Cl 
HETATM    2  C   UNL     1     -10.438   8.737  67.410  1.00  0.00    -0.279 C  
HETATM    3  C   UNL     1     -10.775   9.912  68.320  1.00  0.00    -0.234 C  
ENDROOT
BRANCH   3   4
HETATM    4  N   UNL     1     -11.513   9.495  69.494  1.00  0.00    -0.442 NA 
HETATM    5  H   UNL     1     -12.529   9.440  69.420  1.00  0.00     0.000 HD 
BRANCH   4   6
HETATM    6  P   UNL     1     -10.834   9.107  70.926  1.00  0.00    -0.338 P  
HETATM    7  O   UNL     1     -11.801   9.801  72.012  1.00  0.00    -0.261 OA 
HETATM    8  O   UNL     1      -9.406   9.510  71.103  1.00  0.00    -0.222 OA 
HETATM    9  C   UNL     1     -13.188   9.505  71.986  1.00  0.00    -0.452 C  
HETATM   10  C   UNL     1     -13.558   8.038  71.702  1.00  0.00    -0.390 C  
HETATM   11  C   UNL     1     -12.584   7.217  70.854  1.00  0.00    -0.220 C  
HETATM   12  N   UNL     1     -11.184   7.504  71.162  1.00  0.00    -0.253 NA 
BRANCH  12  13
HETATM   13  C   UNL     1     -10.794   6.975  72.495  1.00  0.00    -0.252 C  
HETATM   14  C   UNL     1     -10.983   5.460  72.663  1.00  0.00    -0.268 C  
HETATM   15 CL   UNL     1     -10.586   4.960  74.329  1.00  0.00    -0.337 Cl 
ENDBRANCH  12  13
ENDBRANCH   4   6
ENDBRANCH   3   4
TORSDOF 3
ENDMDL
MODEL       51
REMARK 921   NORMALIZED FREE ENERGY PREDICTED BY IDOCK:   -3.88 KCAL/MOL
REMARK 922        TOTAL FREE ENERGY PREDICTED BY IDOCK:   -4.49 KCAL/MOL
REMARK 923 INTER-LIGAND FREE ENERGY PREDICTED BY IDOCK:   -4.30 KCAL/MOL
REMARK 924 INTRA-LIGAND FREE ENERGY PREDICTED BY IDOCK:   -0.19 KCAL/MOL
REMARK 927      BINDING AFFINITY PREDICTED BY RF-SCORE:    0.00 PKD
ROOT
HETATM    1 CL   UNL     1      -9.516   7.513  70.600  1.00  0.00    -0.164 Cl 
HETATM    2  C   UNL     1      -9.820   9.263  70.753  1.00  0.00    -0.283 C  
HETATM    3  C   UNL     1      -9.317   9.990  69.512  1.00  0.00    -0.229 C  
ENDROOT
BRANCH   3   4
HETATM    4  N   UNL     1      -9.864  11.326  69.408  1.00  0.00    -0.412 NA 
HETATM    5  H   UNL     1      -9.393  12.073  69.920  1.00  0.00     0.000 HD 
BRANCH   4   6
HETATM    6  P   UNL     1     -11.180  11.724  68.529  1.00  0.00    -0.309 P  
HETATM    7  O   UNL     1     -11.426  13.277  68.883  1.00  0.00    -0.258 OA 
HETATM    8  O   UNL     1     -12.399  10.893  68.767  1.00  0.00    -0.495 OA 
HETATM    9  C   UNL     1     -10.366  14.200  68.695  1.00  0.00    -0.243 C  
HETATM   10  C   UNL     1      -9.515  13.999  67.428  1.00  0.00    -0.225 C  
HETATM   11  C   UNL     1      -9.397  12.576  66.876  1.00  0.00    -0.219 C  
HETATM   12  N   UNL     1     -10.652  11.830  66.963  1.00  0.00    -0.223 NA 
BRANCH  12  13
HETATM   13  C   UNL     1     -11.663  12.342  66.001  1.00  0.00    -0.410 C  
HETATM   14  C   UNL     1     -11.137  12.562  64.575  1.00  0.00    -0.317 C  
HETATM   15 CL   UNL     1     -12.406  13.276  63.542  1.00  0.00    -0.516 Cl 
ENDBRANCH  12  13
ENDBRANCH   4   6
ENDBRANCH   3   4
TORSDOF 3
ENDMDL
MODEL       52
REMARK 921   NORMALIZED FREE ENERGY PREDICTED BY IDOCK:   -3.88 KCAL/MOL
REMARK 922        TOTAL FREE ENERGY PREDICTED BY IDOCK:   -4.49 KCAL/MOL
REMARK 923 INTER-LIGAND FREE ENERGY PREDICTED BY IDOCK:   -4.43 KCAL/MOL
REMARK 924 INTRA-LIGAND FREE ENERGY PREDICTED BY IDOCK:   -0.06 KCAL/MOL
REMARK 927      BINDING AFFINITY PREDICTED BY RF-SCORE:    0.00 PKD
ROOT
HETATM    1 CL   UNL     1      -8.058   9.510  67.365  1.00  0.00    -0.110 Cl 
HETATM    2  C   UNL     1      -7.993  11.088  66.539  1.00  0.00    -0.158 C  
HETATM    3  C   UNL     1      -9.327  11.379  65.862  1.00  0.00    -0.228 C  
ENDROOT
BRANCH   3   4
HETATM    4  N   UNL     1      -9.463  12.776  65.509  1.00  0.00    -0.462 NA 
HETATM    5  H   UNL     1      -9.390  13.026  64.522  1.00  0.00     0.000 HD 
BRANCH   4   6
HETATM    6  P   UNL     1      -9.725  13.982  66.577  1.00  0.00    -0.290 P  
HETATM    7  O   UNL     1     -10.215  15.213  65.658  1.00  0.00    -0.307 OA 
HETATM    8  O   UNL     1      -8.564  14.352  67.442  1.00  0.00    -0.178 OA 
HETATM    9  C   UNL     1     -11.321  15.024  64.791  1.00  0.00    -0.406 C  
HETATM   10  C   UNL     1     -12.488  14.195  65.358  1.00  0.00    -0.488 C  
HETATM   11  C   UNL     1     -12.153  13.137  66.414  1.00  0.00    -0.382 C  
HETATM   12  N   UNL     1     -11.131  13.584  67.358  1.00  0.00    -0.275 NA 
BRANCH  12  13
HETATM   13  C   UNL     1     -11.649  14.634  68.275  1.00  0.00    -0.326 C  
HETATM   14  C   UNL     1     -12.064  14.125  69.663  1.00  0.00    -0.349 C  
HETATM   15 CL   UNL     1     -12.767  15.448  70.631  1.00  0.00    -0.475 Cl 
ENDBRANCH  12  13
ENDBRANCH   4   6
ENDBRANCH   3   4
TORSDOF 3
ENDMDL
MODEL       53
REMARK 921   NORMALIZED FREE ENERGY PREDICTED BY IDOCK:   -3.87 KCAL/MOL
REMARK 922        TOTAL FREE ENERGY PREDICTED BY IDOCK:   -4.49 KCAL/MOL
REMARK 923 INTER-LIGAND FREE ENERGY PREDICTED BY IDOCK:   -4.27 KCAL/MOL
REMARK 924 INTRA-LIGAND FREE ENERGY PREDICTED BY IDOCK:   -0.22 KCAL/MOL
REMARK 927      BINDING AFFINITY PREDICTED BY RF-SCORE:    0.00 PKD
ROOT
HETATM    1 CL   UNL     1      -9.704   8.076  68.538  1.00  0.00    -0.159 Cl 
HETATM    2  C   UNL     1     -10.436   9.038  67.228  1.00  0.00    -0.273 C  
HETATM    3  C   UNL     1     -10.950  10.363  67.778  1.00  0.00    -0.309 C  
ENDROOT
BRANCH   3   4
HETATM    4  N   UNL     1     -11.203  11.325  66.726  1.00  0.00    -0.329 NA 
HETATM    5  H   UNL     1     -12.151  11.381  66.352  1.00  0.00     0.000 HD 
BRANCH   4   6
HETATM    6  P   UNL     1     -10.080  12.326  66.095  1.00  0.00    -0.254 P  
HETATM    7  O   UNL     1     -10.437  12.366  64.523  1.00  0.00    -0.293 OA 
HETATM    8  O   UNL     1      -8.655  11.946  66.339  1.00  0.00    -0.165 OA 
HETATM    9  C   UNL     1     -11.750  12.727  64.127  1.00  0.00    -0.401 C  
HETATM   10  C   UNL     1     -12.403  13.872  64.922  1.00  0.00    -0.445 C  
HETATM   11  C   UNL     1     -11.963  14.061  66.376  1.00  0.00    -0.438 C  
HETATM   12  N   UNL     1     -10.529  13.849  66.566  1.00  0.00    -0.279 NA 
BRANCH  12  13
HETATM   13  C   UNL     1      -9.727  14.947  65.964  1.00  0.00    -0.328 C  
HETATM   14  C   UNL     1      -8.679  15.563  66.902  1.00  0.00    -0.250 C  
HETATM   15 CL   UNL     1      -7.857  16.934  66.108  1.00  0.00    -0.341 Cl 
ENDBRANCH  12  13
ENDBRANCH   4   6
ENDBRANCH   3   4
TORSDOF 3
ENDMDL
MODEL       54
REMARK 921   NORMALIZED FREE ENERGY PREDICTED BY IDOCK:   -3.86 KCAL/MOL
REMARK 922        TOTAL FREE ENERGY PREDICTED BY IDOCK:   -4.47 KCAL/MOL
REMARK 923 INTER-LIGAND FREE ENERGY PREDICTED BY IDOCK:   -4.26 KCAL/MOL
REMARK 924 INTRA-LIGAND FREE ENERGY PREDICTED BY IDOCK:   -0.21 KCAL/MOL
REMARK 927      BINDING AFFINITY PREDICTED BY RF-SCORE:    0.00 PKD
ROOT
HETATM    1 CL   UNL     1      -9.907   9.632  65.574  1.00  0.00    -0.383 Cl 
HETATM    2  C   UNL     1      -9.578  11.376  65.742  1.00  0.00    -0.233 C  
HETATM    3  C   UNL     1     -10.606  12.014  66.669  1.00  0.00    -0.232 C  
ENDROOT
BRANCH   3   4
HETATM    4  N   UNL     1     -10.178  13.315  67.138  1.00  0.00    -0.244 NA 
HETATM    5  H   UNL     1      -9.323  13.362  67.692  1.00  0.00     0.000 HD 
BRANCH   4   6
HETATM    6  P   UNL     1     -10.968  14.713  66.844  1.00  0.00    -0.337 P  
HETATM    7  O   UNL     1     -12.024  14.822  68.057  1.00  0.00    -0.316 OA 
HETATM    8  O   UNL     1     -11.630  14.820  65.509  1.00  0.00    -0.342 OA 
HETATM    9  C   UNL     1     -11.547  14.755  69.390  1.00  0.00    -0.310 C  
HETATM   10  C   UNL     1     -10.228  15.496  69.673  1.00  0.00    -0.289 C  
HETATM   11  C   UNL     1      -9.239  15.641  68.513  1.00  0.00    -0.197 C  
HETATM   12  N   UNL     1      -9.899  15.916  67.238  1.00  0.00    -0.232 NA 
BRANCH  12  13
HETATM   13  C   UNL     1     -10.469  17.289  67.198  1.00  0.00    -0.297 C  
HETATM   14  C   UNL     1      -9.427  18.412  67.094  1.00  0.00    -0.282 C  
HETATM   15 CL   UNL     1     -10.219  20.009  67.162  1.00  0.00    -0.570 Cl 
ENDBRANCH  12  13
ENDBRANCH   4   6
ENDBRANCH   3   4
TORSDOF 3
ENDMDL
MODEL       55
REMARK 921   NORMALIZED FREE ENERGY PREDICTED BY IDOCK:   -3.86 KCAL/MOL
REMARK 922        TOTAL FREE ENERGY PREDICTED BY IDOCK:   -4.47 KCAL/MOL
REMARK 923 INTER-LIGAND FREE ENERGY PREDICTED BY IDOCK:   -4.24 KCAL/MOL
REMARK 924 INTRA-LIGAND FREE ENERGY PREDICTED BY IDOCK:   -0.22 KCAL/MOL
REMARK 927      BINDING AFFINITY PREDICTED BY RF-SCORE:    0.00 PKD
ROOT
HETATM    1 CL   UNL     1     -12.285  14.543  64.113  1.00  0.00    -0.466 Cl 
HETATM    2  C   UNL     1     -12.700  13.342  65.363  1.00  0.00    -0.426 C  
HETATM    3  C   UNL     1     -11.545  12.367  65.554  1.00  0.00    -0.385 C  
ENDROOT
BRANCH   3   4
HETATM    4  N   UNL     1     -11.663  11.622  66.790  1.00  0.00    -0.532 NA 
HETATM    5  H   UNL     1     -12.601  11.382  67.112  1.00  0.00     0.000 HD 
BRANCH   4   6
HETATM    6  P   UNL     1     -10.402  11.140  67.706  1.00  0.00    -0.207 P  
HETATM    7  O   UNL     1      -9.912  12.492  68.433  1.00  0.00    -0.224 OA 
HETATM    8  O   UNL     1      -9.289  10.457  66.978  1.00  0.00    -0.152 OA 
HETATM    9  C   UNL     1     -10.851  13.248  69.181  1.00  0.00    -0.104 C  
HETATM   10  C   UNL     1     -11.847  12.436  70.028  1.00  0.00    -0.363 C  
HETATM   11  C   UNL     1     -12.213  11.033  69.535  1.00  0.00    -0.282 C  
HETATM   12  N   UNL     1     -11.068  10.313  68.978  1.00  0.00    -0.233 NA 
BRANCH  12  13
HETATM   13  C   UNL     1     -10.101   9.916  70.035  1.00  0.00    -0.260 C  
HETATM   14  C   UNL     1     -10.664   8.949  71.087  1.00  0.00    -0.263 C  
HETATM   15 CL   UNL     1      -9.450   8.631  72.357  1.00  0.00    -0.347 Cl 
ENDBRANCH  12  13
ENDBRANCH   4   6
ENDBRANCH   3   4
TORSDOF 3
ENDMDL
MODEL       56
REMARK 921   NORMALIZED FREE ENERGY PREDICTED BY IDOCK:   -3.85 KCAL/MOL
REMARK 922        TOTAL FREE ENERGY PREDICTED BY IDOCK:   -4.46 KCAL/MOL
REMARK 923 INTER-LIGAND FREE ENERGY PREDICTED BY IDOCK:   -4.26 KCAL/MOL
REMARK 924 INTRA-LIGAND FREE ENERGY PREDICTED BY IDOCK:   -0.19 KCAL/MOL
REMARK 927      BINDING AFFINITY PREDICTED BY RF-SCORE:    0.00 PKD
ROOT
HETATM    1 CL   UNL     1      -9.709  17.240  66.102  1.00  0.00    -0.269 Cl 
HETATM    2  C   UNL     1      -9.329  15.515  66.344  1.00  0.00    -0.298 C  
HETATM    3  C   UNL     1     -10.345  14.648  65.611  1.00  0.00    -0.351 C  
ENDROOT
BRANCH   3   4
HETATM    4  N   UNL     1      -9.882  13.286  65.455  1.00  0.00    -0.499 NA 
HETATM    5  H   UNL     1      -8.910  13.143  65.179  1.00  0.00     0.000 HD 
BRANCH   4   6
HETATM    6  P   UNL     1     -10.805  11.960  65.688  1.00  0.00    -0.285 P  
HETATM    7  O   UNL     1     -11.103  11.429  64.195  1.00  0.00    -0.362 OA 
HETATM    8  O   UNL     1     -12.060  12.168  66.472  1.00  0.00    -0.627 OA 
HETATM    9  C   UNL     1     -10.011  11.167  63.330  1.00  0.00    -0.379 C  
HETATM   10  C   UNL     1      -8.786  10.494  63.974  1.00  0.00    -0.206 C  
HETATM   11  C   UNL     1      -8.537  10.761  65.461  1.00  0.00    -0.176 C  
HETATM   12  N   UNL     1      -9.771  10.792  66.245  1.00  0.00    -0.197 NA 
BRANCH  12  13
HETATM   13  C   UNL     1     -10.375   9.440  66.375  1.00  0.00    -0.167 C  
HETATM   14  C   UNL     1      -9.449   8.382  66.993  1.00  0.00    -0.174 C  
HETATM   15 CL   UNL     1     -10.241   6.783  66.999  1.00  0.00    -0.275 Cl 
ENDBRANCH  12  13
ENDBRANCH   4   6
ENDBRANCH   3   4
TORSDOF 3
ENDMDL
MODEL       57
REMARK 921   NORMALIZED FREE ENERGY PREDICTED BY IDOCK:   -3.85 KCAL/MOL
REMARK 922        TOTAL FREE ENERGY PREDICTED BY IDOCK:   -4.46 KCAL/MOL
REMARK 923 INTER-LIGAND FREE ENERGY PREDICTED BY IDOCK:   -4.25 KCAL/MOL
REMARK 924 INTRA-LIGAND FREE ENERGY PREDICTED BY IDOCK:   -0.20 KCAL/MOL
REMARK 927      BINDING AFFINITY PREDICTED BY RF-SCORE:    0.00 PKD
ROOT
HETATM    1 CL   UNL     1     -10.246   4.536  71.423  1.00  0.00    -0.226 Cl 
HETATM    2  C   UNL     1     -10.898   5.850  70.410  1.00  0.00    -0.308 C  
HETATM    3  C   UNL     1     -12.018   6.572  71.150  1.00  0.00    -0.306 C  
ENDROOT
BRANCH   3   4
HETATM    4  N   UNL     1     -12.322   7.856  70.554  1.00  0.00    -0.434 NA 
HETATM    5  H   UNL     1     -12.552   7.875  69.560  1.00  0.00     0.000 HD 
BRANCH   4   6
HETATM    6  P   UNL     1     -12.323   9.275  71.359  1.00  0.00    -0.359 P  
HETATM    7  O   UNL     1     -10.819   9.399  71.926  1.00  0.00    -0.310 OA 
HETATM    8  O   UNL     1     -13.345   9.412  72.441  1.00  0.00    -0.452 OA 
HETATM    9  C   UNL     1      -9.733   9.307  71.018  1.00  0.00    -0.271 C  
HETATM   10  C   UNL     1      -9.926  10.012  69.664  1.00  0.00    -0.263 C  
HETATM   11  C   UNL     1     -11.357  10.145  69.135  1.00  0.00    -0.143 C  
HETATM   12  N   UNL     1     -12.324  10.448  70.190  1.00  0.00    -0.248 NA 
BRANCH  12  13
HETATM   13  C   UNL     1     -12.163  11.835  70.702  1.00  0.00    -0.349 C  
HETATM   14  C   UNL     1     -12.093  12.915  69.612  1.00  0.00    -0.226 C  
HETATM   15 CL   UNL     1     -11.793  14.517  70.339  1.00  0.00    -0.355 Cl 
ENDBRANCH  12  13
ENDBRANCH   4   6
ENDBRANCH   3   4
TORSDOF 3
ENDMDL
MODEL       58
REMARK 921   NORMALIZED FREE ENERGY PREDICTED BY IDOCK:   -3.84 KCAL/MOL
REMARK 922        TOTAL FREE ENERGY PREDICTED BY IDOCK:   -4.45 KCAL/MOL
REMARK 923 INTER-LIGAND FREE ENERGY PREDICTED BY IDOCK:   -4.67 KCAL/MOL
REMARK 924 INTRA-LIGAND FREE ENERGY PREDICTED BY IDOCK:    0.22 KCAL/MOL
REMARK 927      BINDING AFFINITY PREDICTED BY RF-SCORE:    0.00 PKD
ROOT
HETATM    1 CL   UNL     1      -9.146   9.678  63.725  1.00  0.00    -0.261 Cl 
HETATM    2  C   UNL     1      -9.964  10.448  65.109  1.00  0.00    -0.322 C  
HETATM    3  C   UNL     1     -10.454  11.837  64.718  1.00  0.00    -0.293 C  
ENDROOT
BRANCH   3   4
HETATM    4  N   UNL     1     -11.435  12.348  65.652  1.00  0.00    -0.351 NA 
HETATM    5  H   UNL     1     -12.278  12.776  65.268  1.00  0.00     0.000 HD 
BRANCH   4   6
HETATM    6  P   UNL     1     -11.290  12.287  67.276  1.00  0.00    -0.355 P  
HETATM    7  O   UNL     1      -9.712  12.490  67.531  1.00  0.00    -0.190 OA 
HETATM    8  O   UNL     1     -11.812  11.050  67.933  1.00  0.00    -0.600 OA 
HETATM    9  C   UNL     1      -9.070  13.630  66.985  1.00  0.00    -0.248 C  
HETATM   10  C   UNL     1      -9.864  14.947  67.051  1.00  0.00    -0.239 C  
HETATM   11  C   UNL     1     -11.392  14.850  67.039  1.00  0.00    -0.342 C  
HETATM   12  N   UNL     1     -11.894  13.727  67.829  1.00  0.00    -0.357 NA 
BRANCH  12  13
HETATM   13  C   UNL     1     -11.713  13.956  69.287  1.00  0.00    -0.334 C  
HETATM   14  C   UNL     1     -12.121  15.356  69.771  1.00  0.00    -0.347 C  
HETATM   15 CL   UNL     1     -11.759  15.548  71.508  1.00  0.00    -0.429 Cl 
ENDBRANCH  12  13
ENDBRANCH   4   6
ENDBRANCH   3   4
TORSDOF 3
ENDMDL
MODEL       59
REMARK 921   NORMALIZED FREE ENERGY PREDICTED BY IDOCK:   -3.84 KCAL/MOL
REMARK 922        TOTAL FREE ENERGY PREDICTED BY IDOCK:   -4.45 KCAL/MOL
REMARK 923 INTER-LIGAND FREE ENERGY PREDICTED BY IDOCK:   -4.22 KCAL/MOL
REMARK 924 INTRA-LIGAND FREE ENERGY PREDICTED BY IDOCK:   -0.22 KCAL/MOL
REMARK 927      BINDING AFFINITY PREDICTED BY RF-SCORE:    0.00 PKD
ROOT
HETATM    1 CL   UNL     1     -10.721  12.826  68.431  1.00  0.00    -0.258 Cl 
HETATM    2  C   UNL     1      -9.665  14.162  67.902  1.00  0.00    -0.224 C  
HETATM    3  C   UNL     1     -10.343  15.500  68.170  1.00  0.00    -0.237 C  
ENDROOT
BRANCH   3   4
HETATM    4  N   UNL     1      -9.406  16.602  68.119  1.00  0.00    -0.220 NA 
HETATM    5  H   UNL     1      -8.931  16.862  68.984  1.00  0.00     0.000 HD 
BRANCH   4   6
HETATM    6  P   UNL     1      -9.055  17.460  66.776  1.00  0.00    -0.278 P  
HETATM    7  O   UNL     1     -10.427  18.238  66.445  1.00  0.00    -0.384 OA 
HETATM    8  O   UNL     1      -8.560  16.671  65.608  1.00  0.00    -0.388 OA 
HETATM    9  C   UNL     1     -11.017  19.047  67.450  1.00  0.00    -0.283 C  
HETATM   10  C   UNL     1     -10.044  19.880  68.302  1.00  0.00    -0.571 C  
HETATM   11  C   UNL     1      -8.628  19.329  68.496  1.00  0.00    -0.365 C  
HETATM   12  N   UNL     1      -8.092  18.708  67.286  1.00  0.00    -0.239 NA 
BRANCH  12  13
HETATM   13  C   UNL     1      -7.780  19.718  66.241  1.00  0.00    -0.319 C  
HETATM   14  C   UNL     1      -6.282  19.901  65.954  1.00  0.00    -0.189 C  
HETATM   15 CL   UNL     1      -6.028  21.208  64.766  1.00  0.00    -0.269 Cl 
ENDBRANCH  12  13
ENDBRANCH   4   6
ENDBRANCH   3   4
TORSDOF 3
ENDMDL
MODEL       60
REMARK 921   NORMALIZED FREE ENERGY PREDICTED BY IDOCK:   -3.77 KCAL/MOL
REMARK 922        TOTAL FREE ENERGY PREDICTED BY IDOCK:   -4.37 KCAL/MOL
REMARK 923 INTER-LIGAND FREE ENERGY PREDICTED BY IDOCK:   -4.23 KCAL/MOL
REMARK 924 INTRA-LIGAND FREE ENERGY PREDICTED BY IDOCK:   -0.14 KCAL/MOL
REMARK 927      BINDING AFFINITY PREDICTED BY RF-SCORE:    0.00 PKD
ROOT
HETATM    1 CL   UNL     1      -5.259  21.224  67.516  1.00  0.00    -0.312 Cl 
HETATM    2  C   UNL     1      -6.721  20.204  67.549  1.00  0.00    -0.233 C  
HETATM    3  C   UNL     1      -7.366  20.173  66.169  1.00  0.00    -0.284 C  
ENDROOT
BRANCH   3   4
HETATM    4  N   UNL     1      -8.313  19.086  66.038  1.00  0.00    -0.473 NA 
HETATM    5  H   UNL     1      -9.228  19.300  65.639  1.00  0.00     0.000 HD 
BRANCH   4   6
HETATM    6  P   UNL     1      -8.022  17.543  66.481  1.00  0.00    -0.289 P  
HETATM    7  O   UNL     1      -8.475  17.494  68.028  1.00  0.00    -0.229 OA 
HETATM    8  O   UNL     1      -6.621  17.062  66.290  1.00  0.00    -0.209 OA 
HETATM    9  C   UNL     1      -9.788  17.904  68.372  1.00  0.00    -0.355 C  
HETATM   10  C   UNL     1     -10.904  17.473  67.404  1.00  0.00    -0.172 C  
HETATM   11  C   UNL     1     -10.525  17.274  65.934  1.00  0.00    -0.262 C  
HETATM   12  N   UNL     1      -9.216  16.644  65.767  1.00  0.00    -0.503 NA 
BRANCH  12  13
HETATM   13  C   UNL     1      -9.239  15.213  66.170  1.00  0.00    -0.283 C  
HETATM   14  C   UNL     1     -10.152  14.321  65.314  1.00  0.00    -0.349 C  
HETATM   15 CL   UNL     1     -10.181  12.657  65.956  1.00  0.00    -0.278 Cl 
ENDBRANCH  12  13
ENDBRANCH   4   6
ENDBRANCH   3   4
TORSDOF 3
ENDMDL
MODEL       61
REMARK 921   NORMALIZED FREE ENERGY PREDICTED BY IDOCK:   -3.77 KCAL/MOL
REMARK 922        TOTAL FREE ENERGY PREDICTED BY IDOCK:   -4.37 KCAL/MOL
REMARK 923 INTER-LIGAND FREE ENERGY PREDICTED BY IDOCK:   -4.18 KCAL/MOL
REMARK 924 INTRA-LIGAND FREE ENERGY PREDICTED BY IDOCK:   -0.19 KCAL/MOL
REMARK 927      BINDING AFFINITY PREDICTED BY RF-SCORE:    0.00 PKD
ROOT
HETATM    1 CL   UNL     1      -9.480  20.150  67.419  1.00  0.00    -0.503 Cl 
HETATM    2  C   UNL     1      -9.041  18.546  68.059  1.00  0.00    -0.301 C  
HETATM    3  C   UNL     1     -10.289  17.815  68.539  1.00  0.00    -0.364 C  
ENDROOT
BRANCH   3   4
HETATM    4  N   UNL     1     -10.055  16.397  68.711  1.00  0.00    -0.234 NA 
HETATM    5  H   UNL     1      -9.088  16.082  68.794  1.00  0.00     0.000 HD 
BRANCH   4   6
HETATM    6  P   UNL     1     -11.228  15.265  68.780  1.00  0.00    -0.327 P  
HETATM    7  O   UNL     1     -11.777  15.184  67.267  1.00  0.00    -0.295 OA 
HETATM    8  O   UNL     1     -12.324  15.520  69.764  1.00  0.00    -0.334 OA 
HETATM    9  C   UNL     1     -10.859  14.930  66.217  1.00  0.00    -0.331 C  
HETATM   10  C   UNL     1      -9.764  13.891  66.515  1.00  0.00    -0.303 C  
HETATM   11  C   UNL     1      -9.322  13.732  67.973  1.00  0.00    -0.199 C  
HETATM   12  N   UNL     1     -10.438  13.815  68.914  1.00  0.00    -0.210 NA 
BRANCH  12  13
HETATM   13  C   UNL     1     -11.317  12.619  68.833  1.00  0.00    -0.297 C  
HETATM   14  C   UNL     1     -11.865  12.134  70.183  1.00  0.00    -0.287 C  
HETATM   15 CL   UNL     1     -12.814  10.638  69.972  1.00  0.00    -0.193 Cl 
ENDBRANCH  12  13
ENDBRANCH   4   6
ENDBRANCH   3   4
TORSDOF 3
ENDMDL
MODEL       62
REMARK 921   NORMALIZED FREE ENERGY PREDICTED BY IDOCK:   -3.76 KCAL/MOL
REMARK 922        TOTAL FREE ENERGY PREDICTED BY IDOCK:   -4.35 KCAL/MOL
REMARK 923 INTER-LIGAND FREE ENERGY PREDICTED BY IDOCK:   -4.12 KCAL/MOL
REMARK 924 INTRA-LIGAND FREE ENERGY PREDICTED BY IDOCK:   -0.23 KCAL/MOL
REMARK 927      BINDING AFFINITY PREDICTED BY RF-SCORE:    0.00 PKD
ROOT
HETATM    1 CL   UNL     1      -8.621   7.677  67.204  1.00  0.00    -0.120 Cl 
HETATM    2  C   UNL     1      -9.673   8.719  66.211  1.00  0.00    -0.272 C  
HETATM    3  C   UNL     1     -10.353   9.762  67.089  1.00  0.00    -0.248 C  
ENDROOT
BRANCH   3   4
HETATM    4  N   UNL     1     -10.906  10.850  66.309  1.00  0.00    -0.179 NA 
HETATM    5  H   UNL     1     -11.856  10.743  65.953  1.00  0.00     0.000 HD 
BRANCH   4   6
HETATM    6  P   UNL     1     -10.117  12.234  65.959  1.00  0.00    -0.255 P  
HETATM    7  O   UNL     1      -9.811  12.116  64.380  1.00  0.00    -0.219 OA 
HETATM    8  O   UNL     1      -8.880  12.500  66.753  1.00  0.00    -0.208 OA 
HETATM    9  C   UNL     1     -10.888  11.880  63.489  1.00  0.00    -0.434 C  
HETATM   10  C   UNL     1     -12.193  12.637  63.793  1.00  0.00    -0.600 C  
HETATM   11  C   UNL     1     -12.475  12.997  65.255  1.00  0.00    -0.499 C  
HETATM   12  N   UNL     1     -11.274  13.419  65.975  1.00  0.00    -0.294 NA 
BRANCH  12  13
HETATM   13  C   UNL     1     -10.802  14.754  65.520  1.00  0.00    -0.351 C  
HETATM   14  C   UNL     1     -10.937  15.871  66.565  1.00  0.00    -0.121 C  
HETATM   15 CL   UNL     1     -10.441  17.439  65.873  1.00  0.00    -0.324 Cl 
ENDBRANCH  12  13
ENDBRANCH   4   6
ENDBRANCH   3   4
TORSDOF 3
ENDMDL
MODEL       63
REMARK 921   NORMALIZED FREE ENERGY PREDICTED BY IDOCK:   -3.74 KCAL/MOL
REMARK 922        TOTAL FREE ENERGY PREDICTED BY IDOCK:   -4.33 KCAL/MOL
REMARK 923 INTER-LIGAND FREE ENERGY PREDICTED BY IDOCK:   -4.24 KCAL/MOL
REMARK 924 INTRA-LIGAND FREE ENERGY PREDICTED BY IDOCK:   -0.09 KCAL/MOL
REMARK 927      BINDING AFFINITY PREDICTED BY RF-SCORE:    0.00 PKD
ROOT
HETATM    1 CL   UNL     1     -12.163  13.110  63.467  1.00  0.00    -0.587 Cl 
HETATM    2  C   UNL     1     -11.092  12.022  64.386  1.00  0.00    -0.342 C  
HETATM    3  C   UNL     1     -10.432  12.782  65.529  1.00  0.00    -0.287 C  
ENDROOT
BRANCH   3   4
HETATM    4  N   UNL     1      -9.864  11.890  66.518  1.00  0.00    -0.201 NA 
HETATM    5  H   UNL     1      -8.847  11.826  66.570  1.00  0.00     0.000 HD 
BRANCH   4   6
HETATM    6  P   UNL     1     -10.735  10.980  67.555  1.00  0.00    -0.281 P  
HETATM    7  O   UNL     1     -10.765   9.525  66.860  1.00  0.00    -0.207 OA 
HETATM    8  O   UNL     1     -12.106  11.481  67.872  1.00  0.00    -0.630 OA 
HETATM    9  C   UNL     1      -9.539   8.905  66.513  1.00  0.00    -0.232 C  
HETATM   10  C   UNL     1      -8.393   9.062  67.528  1.00  0.00    -0.116 C  
HETATM   11  C   UNL     1      -8.394  10.318  68.403  1.00  0.00    -0.119 C  
HETATM   12  N   UNL     1      -9.735  10.699  68.845  1.00  0.00    -0.195 NA 
BRANCH  12  13
HETATM   13  C   UNL     1     -10.273   9.746  69.851  1.00  0.00    -0.254 C  
HETATM   14  C   UNL     1     -11.440  10.290  70.689  1.00  0.00    -0.349 C  
HETATM   15 CL   UNL     1     -11.928   9.102  71.928  1.00  0.00    -0.440 Cl 
ENDBRANCH  12  13
ENDBRANCH   4   6
ENDBRANCH   3   4
TORSDOF 3
ENDMDL
MODEL       64
REMARK 921   NORMALIZED FREE ENERGY PREDICTED BY IDOCK:   -3.73 KCAL/MOL
REMARK 922        TOTAL FREE ENERGY PREDICTED BY IDOCK:   -4.32 KCAL/MOL
REMARK 923 INTER-LIGAND FREE ENERGY PREDICTED BY IDOCK:   -4.22 KCAL/MOL
REMARK 924 INTRA-LIGAND FREE ENERGY PREDICTED BY IDOCK:   -0.10 KCAL/MOL
REMARK 927      BINDING AFFINITY PREDICTED BY RF-SCORE:    0.00 PKD
ROOT
HETATM    1 CL   UNL     1     -10.171   8.358  67.078  1.00  0.00    -0.349 Cl 
HETATM    2  C   UNL     1     -10.615   9.958  67.727  1.00  0.00    -0.261 C  
HETATM    3  C   UNL     1     -10.895  10.925  66.584  1.00  0.00    -0.197 C  
ENDROOT
BRANCH   3   4
HETATM    4  N   UNL     1     -11.613  12.100  67.031  1.00  0.00    -0.467 NA 
HETATM    5  H   UNL     1     -12.239  11.998  67.831  1.00  0.00     0.000 HD 
BRANCH   4   6
HETATM    6  P   UNL     1     -11.492  13.577  66.349  1.00  0.00    -0.364 P  
HETATM    7  O   UNL     1     -12.275  14.543  67.375  1.00  0.00    -0.333 OA 
HETATM    8  O   UNL     1     -12.014  13.696  64.953  1.00  0.00    -0.352 OA 
HETATM    9  C   UNL     1     -11.884  14.557  68.738  1.00  0.00    -0.315 C  
HETATM   10  C   UNL     1     -10.370  14.497  69.005  1.00  0.00    -0.227 C  
HETATM   11  C   UNL     1      -9.498  13.785  67.967  1.00  0.00    -0.207 C  
HETATM   12  N   UNL     1      -9.924  14.052  66.593  1.00  0.00    -0.270 NA 
BRANCH  12  13
HETATM   13  C   UNL     1      -9.629  15.451  66.187  1.00  0.00    -0.329 C  
HETATM   14  C   UNL     1      -8.229  15.949  66.576  1.00  0.00    -0.272 C  
HETATM   15 CL   UNL     1      -8.031  17.667  66.135  1.00  0.00    -0.280 Cl 
ENDBRANCH  12  13
ENDBRANCH   4   6
ENDBRANCH   3   4
TORSDOF 3
ENDMDL
MODEL       65
REMARK 921   NORMALIZED FREE ENERGY PREDICTED BY IDOCK:   -3.73 KCAL/MOL
REMARK 922        TOTAL FREE ENERGY PREDICTED BY IDOCK:   -4.32 KCAL/MOL
REMARK 923 INTER-LIGAND FREE ENERGY PREDICTED BY IDOCK:   -4.07 KCAL/MOL
REMARK 924 INTRA-LIGAND FREE ENERGY PREDICTED BY IDOCK:   -0.25 KCAL/MOL
REMARK 927      BINDING AFFINITY PREDICTED BY RF-SCORE:    0.00 PKD
ROOT
HETATM    1 CL   UNL     1     -11.148  15.174  66.315  1.00  0.00    -0.333 Cl 
HETATM    2  C   UNL     1     -10.354  13.760  67.054  1.00  0.00    -0.260 C  
HETATM    3  C   UNL     1     -10.599  13.750  68.558  1.00  0.00    -0.253 C  
ENDROOT
BRANCH   3   4
HETATM    4  N   UNL     1     -10.313  12.459  69.146  1.00  0.00    -0.424 NA 
HETATM    5  H   UNL     1      -9.334  12.194  69.258  1.00  0.00     0.000 HD 
BRANCH   4   6
HETATM    6  P   UNL     1     -11.446  11.394  69.643  1.00  0.00    -0.293 P  
HETATM    7  O   UNL     1     -12.027  10.779  68.271  1.00  0.00    -0.520 OA 
HETATM    8  O   UNL     1     -12.526  11.950  70.513  1.00  0.00    -0.287 OA 
HETATM    9  C   UNL     1     -11.125  10.197  67.344  1.00  0.00    -0.147 C  
HETATM   10  C   UNL     1      -9.989   9.353  67.948  1.00  0.00    -0.220 C  
HETATM   11  C   UNL     1      -9.508   9.721  69.355  1.00  0.00    -0.201 C  
HETATM   12  N   UNL     1     -10.604  10.101  70.245  1.00  0.00    -0.290 NA 
BRANCH  12  13
HETATM   13  C   UNL     1     -11.445   8.931  70.613  1.00  0.00    -0.242 C  
HETATM   14  C   UNL     1     -10.675   7.763  71.246  1.00  0.00    -0.228 C  
HETATM   15 CL   UNL     1     -11.766   6.382  71.544  1.00  0.00    -0.370 Cl 
ENDBRANCH  12  13
ENDBRANCH   4   6
ENDBRANCH   3   4
TORSDOF 3
ENDMDL
MODEL       66
REMARK 921   NORMALIZED FREE ENERGY PREDICTED BY IDOCK:   -3.72 KCAL/MOL
REMARK 922        TOTAL FREE ENERGY PREDICTED BY IDOCK:   -4.30 KCAL/MOL
REMARK 923 INTER-LIGAND FREE ENERGY PREDICTED BY IDOCK:   -4.10 KCAL/MOL
REMARK 924 INTRA-LIGAND FREE ENERGY PREDICTED BY IDOCK:   -0.20 KCAL/MOL
REMARK 927      BINDING AFFINITY PREDICTED BY RF-SCORE:    0.00 PKD
ROOT
HETATM    1 CL   UNL     1      -8.161   9.284  68.693  1.00  0.00    -0.104 Cl 
HETATM    2  C   UNL     1      -8.071  11.063  68.636  1.00  0.00    -0.149 C  
HETATM    3  C   UNL     1      -9.442  11.646  68.315  1.00  0.00    -0.191 C  
ENDROOT
BRANCH   3   4
HETATM    4  N   UNL     1      -9.517  13.058  68.624  1.00  0.00    -0.406 NA 
HETATM    5  H   UNL     1      -9.078  13.379  69.488  1.00  0.00     0.000 HD 
BRANCH   4   6
HETATM    6  P   UNL     1     -10.254  14.174  67.690  1.00  0.00    -0.245 P  
HETATM    7  O   UNL     1     -11.809  14.054  68.097  1.00  0.00    -0.338 OA 
HETATM    8  O   UNL     1     -10.045  14.033  66.217  1.00  0.00    -0.282 OA 
HETATM    9  C   UNL     1     -12.173  14.182  69.462  1.00  0.00    -0.305 C  
HETATM   10  C   UNL     1     -11.425  15.265  70.259  1.00  0.00    -0.326 C  
HETATM   11  C   UNL     1     -10.003  15.616  69.810  1.00  0.00    -0.277 C  
HETATM   12  N   UNL     1      -9.860  15.639  68.355  1.00  0.00    -0.204 NA 
BRANCH  12  13
HETATM   13  C   UNL     1     -10.561  16.803  67.752  1.00  0.00    -0.341 C  
HETATM   14  C   UNL     1      -9.914  18.164  68.048  1.00  0.00    -0.345 C  
HETATM   15 CL   UNL     1     -10.899  19.487  67.366  1.00  0.00    -0.590 Cl 
ENDBRANCH  12  13
ENDBRANCH   4   6
ENDBRANCH   3   4
TORSDOF 3
ENDMDL
MODEL       67
REMARK 921   NORMALIZED FREE ENERGY PREDICTED BY IDOCK:   -3.70 KCAL/MOL
REMARK 922        TOTAL FREE ENERGY PREDICTED BY IDOCK:   -4.29 KCAL/MOL
REMARK 923 INTER-LIGAND FREE ENERGY PREDICTED BY IDOCK:   -4.04 KCAL/MOL
REMARK 924 INTRA-LIGAND FREE ENERGY PREDICTED BY IDOCK:   -0.25 KCAL/MOL
REMARK 927      BINDING AFFINITY PREDICTED BY RF-SCORE:    0.00 PKD
ROOT
HETATM    1 CL   UNL     1      -9.529   2.401  68.514  1.00  0.00    -0.250 Cl 
HETATM    2  C   UNL     1      -9.501   3.355  70.020  1.00  0.00    -0.173 C  
HETATM    3  C   UNL     1      -9.000   4.766  69.736  1.00  0.00    -0.096 C  
ENDROOT
BRANCH   3   4
HETATM    4  N   UNL     1      -9.310   5.679  70.815  1.00  0.00    -0.160 NA 
HETATM    5  H   UNL     1      -8.581   5.861  71.506  1.00  0.00     0.000 HD 
BRANCH   4   6
HETATM    6  P   UNL     1     -10.741   6.438  71.008  1.00  0.00    -0.276 P  
HETATM    7  O   UNL     1     -11.385   5.727  72.303  1.00  0.00    -0.279 OA 
HETATM    8  O   UNL     1     -11.662   6.403  69.831  1.00  0.00    -0.426 OA 
HETATM    9  C   UNL     1     -10.639   5.693  73.508  1.00  0.00    -0.269 C  
HETATM   10  C   UNL     1      -9.853   6.971  73.852  1.00  0.00    -0.354 C  
HETATM   11  C   UNL     1      -9.382   7.844  72.685  1.00  0.00    -0.213 C  
HETATM   12  N   UNL     1     -10.371   7.935  71.612  1.00  0.00    -0.200 NA 
BRANCH  12  13
HETATM   13  C   UNL     1     -11.548   8.749  72.017  1.00  0.00    -0.366 C  
HETATM   14  C   UNL     1     -11.793   9.995  71.153  1.00  0.00    -0.393 C  
HETATM   15 CL   UNL     1     -13.160  10.945  71.797  1.00  0.00    -0.586 Cl 
ENDBRANCH  12  13
ENDBRANCH   4   6
ENDBRANCH   3   4
TORSDOF 3
ENDMDL
MODEL       68
REMARK 921   NORMALIZED FREE ENERGY PREDICTED BY IDOCK:   -3.68 KCAL/MOL
REMARK 922        TOTAL FREE ENERGY PREDICTED BY IDOCK:   -4.26 KCAL/MOL
REMARK 923 INTER-LIGAND FREE ENERGY PREDICTED BY IDOCK:   -4.04 KCAL/MOL
REMARK 924 INTRA-LIGAND FREE ENERGY PREDICTED BY IDOCK:   -0.23 KCAL/MOL
REMARK 927      BINDING AFFINITY PREDICTED BY RF-SCORE:    0.00 PKD
ROOT
HETATM    1 CL   UNL     1     -11.769  12.433  66.942  1.00  0.00    -0.443 Cl 
HETATM    2  C   UNL     1     -11.202  10.952  67.757  1.00  0.00    -0.317 C  
HETATM    3  C   UNL     1     -11.813  10.855  69.149  1.00  0.00    -0.317 C  
ENDROOT
BRANCH   3   4
HETATM    4  N   UNL     1     -11.699   9.522  69.700  1.00  0.00    -0.430 NA 
HETATM    5  H   UNL     1     -12.477   8.878  69.549  1.00  0.00     0.000 HD 
BRANCH   4   6
HETATM    6  P   UNL     1     -10.416   8.974  70.546  1.00  0.00    -0.266 P  
HETATM    7  O   UNL     1     -10.908   9.036  72.079  1.00  0.00    -0.352 OA 
HETATM    8  O   UNL     1      -9.133   9.710  70.336  1.00  0.00    -0.246 OA 
HETATM    9  C   UNL     1     -12.106   8.369  72.443  1.00  0.00    -0.378 C  
HETATM   10  C   UNL     1     -12.334   6.993  71.794  1.00  0.00    -0.391 C  
HETATM   11  C   UNL     1     -11.713   6.751  70.416  1.00  0.00    -0.363 C  
HETATM   12  N   UNL     1     -10.380   7.338  70.286  1.00  0.00    -0.207 NA 
BRANCH  12  13
HETATM   13  C   UNL     1      -9.374   6.603  71.098  1.00  0.00    -0.163 C  
HETATM   14  C   UNL     1      -8.105   6.199  70.333  1.00  0.00    -0.112 C  
HETATM   15 CL   UNL     1      -7.025   5.235  71.376  1.00  0.00    -0.052 Cl 
ENDBRANCH  12  13
ENDBRANCH   4   6
ENDBRANCH   3   4
TORSDOF 3
ENDMDL
MODEL       69
REMARK 921   NORMALIZED FREE ENERGY PREDICTED BY IDOCK:   -3.68 KCAL/MOL
REMARK 922        TOTAL FREE ENERGY PREDICTED BY IDOCK:   -4.26 KCAL/MOL
REMARK 923 INTER-LIGAND FREE ENERGY PREDICTED BY IDOCK:   -4.25 KCAL/MOL
REMARK 924 INTRA-LIGAND FREE ENERGY PREDICTED BY IDOCK:   -0.02 KCAL/MOL
REMARK 927      BINDING AFFINITY PREDICTED BY RF-SCORE:    0.00 PKD
ROOT
HETATM    1 CL   UNL     1     -10.357   9.194  66.969  1.00  0.00    -0.334 Cl 
HETATM    2  C   UNL     1     -10.751  10.615  67.971  1.00  0.00    -0.233 C  
HETATM    3  C   UNL     1      -9.517  11.491  68.142  1.00  0.00    -0.184 C  
ENDROOT
BRANCH   3   4
HETATM    4  N   UNL     1      -9.856  12.819  68.610  1.00  0.00    -0.398 NA 
HETATM    5  H   UNL     1     -10.398  12.894  69.471  1.00  0.00     0.000 HD 
BRANCH   4   6
HETATM    6  P   UNL     1      -9.432  14.204  67.859  1.00  0.00    -0.226 P  
HETATM    7  O   UNL     1      -9.660  13.881  66.296  1.00  0.00    -0.283 OA 
HETATM    8  O   UNL     1      -8.049  14.700  68.135  1.00  0.00    -0.124 OA 
HETATM    9  C   UNL     1     -10.930  13.416  65.870  1.00  0.00    -0.274 C  
HETATM   10  C   UNL     1     -12.149  14.084  66.531  1.00  0.00    -0.488 C  
HETATM   11  C   UNL     1     -11.971  14.629  67.950  1.00  0.00    -0.264 C  
HETATM   12  N   UNL     1     -10.669  15.265  68.153  1.00  0.00    -0.251 NA 
BRANCH  12  13
HETATM   13  C   UNL     1     -10.567  16.555  67.422  1.00  0.00    -0.300 C  
HETATM   14  C   UNL     1     -10.504  17.798  68.322  1.00  0.00    -0.364 C  
HETATM   15 CL   UNL     1     -10.492  19.285  67.335  1.00  0.00    -0.525 Cl 
ENDBRANCH  12  13
ENDBRANCH   4   6
ENDBRANCH   3   4
TORSDOF 3
ENDMDL
MODEL       70
REMARK 921   NORMALIZED FREE ENERGY PREDICTED BY IDOCK:   -3.67 KCAL/MOL
REMARK 922        TOTAL FREE ENERGY PREDICTED BY IDOCK:   -4.24 KCAL/MOL
REMARK 923 INTER-LIGAND FREE ENERGY PREDICTED BY IDOCK:   -4.15 KCAL/MOL
REMARK 924 INTRA-LIGAND FREE ENERGY PREDICTED BY IDOCK:   -0.09 KCAL/MOL
REMARK 927      BINDING AFFINITY PREDICTED BY RF-SCORE:    0.00 PKD
ROOT
HETATM    1 CL   UNL     1     -12.562  12.235  63.707  1.00  0.00    -0.597 Cl 
HETATM    2  C   UNL     1     -11.604  13.104  64.933  1.00  0.00    -0.323 C  
HETATM    3  C   UNL     1     -11.943  14.589  64.905  1.00  0.00    -0.422 C  
ENDROOT
BRANCH   3   4
HETATM    4  N   UNL     1     -11.495  15.271  66.101  1.00  0.00    -0.168 NA 
HETATM    5  H   UNL     1     -12.206  15.593  66.758  1.00  0.00     0.000 HD 
BRANCH   4   6
HETATM    6  P   UNL     1      -9.933  15.561  66.474  1.00  0.00    -0.308 P  
HETATM    7  O   UNL     1      -9.615  16.961  65.742  1.00  0.00    -0.515 OA 
HETATM    8  O   UNL     1      -8.961  14.492  66.091  1.00  0.00    -0.140 OA 
HETATM    9  C   UNL     1     -10.440  18.081  66.014  1.00  0.00    -0.313 C  
HETATM   10  C   UNL     1     -10.878  18.255  67.479  1.00  0.00    -0.282 C  
HETATM   11  C   UNL     1     -10.998  16.990  68.334  1.00  0.00    -0.263 C  
HETATM   12  N   UNL     1      -9.935  16.022  68.065  1.00  0.00    -0.227 NA 
BRANCH  12  13
HETATM   13  C   UNL     1      -8.621  16.493  68.576  1.00  0.00    -0.223 C  
HETATM   14  C   UNL     1      -7.832  15.446  69.376  1.00  0.00    -0.232 C  
HETATM   15 CL   UNL     1      -6.330  16.156  70.026  1.00  0.00    -0.139 Cl 
ENDBRANCH  12  13
ENDBRANCH   4   6
ENDBRANCH   3   4
TORSDOF 3
ENDMDL
MODEL       71
REMARK 921   NORMALIZED FREE ENERGY PREDICTED BY IDOCK:   -3.66 KCAL/MOL
REMARK 922        TOTAL FREE ENERGY PREDICTED BY IDOCK:   -4.24 KCAL/MOL
REMARK 923 INTER-LIGAND FREE ENERGY PREDICTED BY IDOCK:   -4.00 KCAL/MOL
REMARK 924 INTRA-LIGAND FREE ENERGY PREDICTED BY IDOCK:   -0.23 KCAL/MOL
REMARK 927      BINDING AFFINITY PREDICTED BY RF-SCORE:    0.00 PKD
ROOT
HETATM    1 CL   UNL     1     -11.514  12.223  65.752  1.00  0.00    -0.396 Cl 
HETATM    2  C   UNL     1     -10.342  13.555  65.574  1.00  0.00    -0.300 C  
HETATM    3  C   UNL     1     -11.047  14.896  65.736  1.00  0.00    -0.342 C  
ENDROOT
BRANCH   3   4
HETATM    4  N   UNL     1     -10.112  15.974  65.978  1.00  0.00    -0.318 NA 
HETATM    5  H   UNL     1      -9.559  16.309  65.189  1.00  0.00     0.000 HD 
BRANCH   4   6
HETATM    6  P   UNL     1      -9.880  16.694  67.424  1.00  0.00    -0.266 P  
HETATM    7  O   UNL     1      -9.104  15.578  68.291  1.00  0.00    -0.181 OA 
HETATM    8  O   UNL     1     -11.111  17.186  68.114  1.00  0.00    -0.315 OA 
HETATM    9  C   UNL     1      -7.904  15.023  67.778  1.00  0.00    -0.148 C  
HETATM   10  C   UNL     1      -6.953  16.007  67.074  1.00  0.00    -0.209 C  
HETATM   11  C   UNL     1      -7.578  17.232  66.401  1.00  0.00    -0.314 C  
HETATM   12  N   UNL     1      -8.677  17.805  67.178  1.00  0.00    -0.240 NA 
BRANCH  12  13
HETATM   13  C   UNL     1      -8.187  18.474  68.412  1.00  0.00    -0.328 C  
HETATM   14  C   UNL     1      -7.119  19.551  68.177  1.00  0.00    -0.284 C  
HETATM   15 CL   UNL     1      -6.534  20.204  69.732  1.00  0.00    -0.361 Cl 
ENDBRANCH  12  13
ENDBRANCH   4   6
ENDBRANCH   3   4
TORSDOF 3
ENDMDL
MODEL       72
REMARK 921   NORMALIZED FREE ENERGY PREDICTED BY IDOCK:   -3.65 KCAL/MOL
REMARK 922        TOTAL FREE ENERGY PREDICTED BY IDOCK:   -4.23 KCAL/MOL
REMARK 923 INTER-LIGAND FREE ENERGY PREDICTED BY IDOCK:   -4.11 KCAL/MOL
REMARK 924 INTRA-LIGAND FREE ENERGY PREDICTED BY IDOCK:   -0.12 KCAL/MOL
REMARK 927      BINDING AFFINITY PREDICTED BY RF-SCORE:    0.00 PKD
ROOT
HETATM    1 CL   UNL     1     -10.381   5.280  67.223  1.00  0.00    -0.254 Cl 
HETATM    2  C   UNL     1     -11.144   6.832  67.653  1.00  0.00    -0.230 C  
HETATM    3  C   UNL     1     -10.318   7.989  67.105  1.00  0.00    -0.325 C  
ENDROOT
BRANCH   3   4
HETATM    4  N   UNL     1     -11.065   9.229  67.089  1.00  0.00    -0.216 NA 
HETATM    5  H   UNL     1     -11.763   9.353  66.354  1.00  0.00     0.000 HD 
BRANCH   4   6
HETATM    6  P   UNL     1     -10.873  10.442  68.163  1.00  0.00    -0.281 P  
HETATM    7  O   UNL     1      -9.345  10.909  67.949  1.00  0.00    -0.151 OA 
HETATM    8  O   UNL     1     -11.164  10.105  69.589  1.00  0.00    -0.246 OA 
HETATM    9  C   UNL     1      -8.916  11.280  66.649  1.00  0.00    -0.176 C  
HETATM   10  C   UNL     1      -9.917  12.101  65.818  1.00  0.00    -0.271 C  
HETATM   11  C   UNL     1     -11.408  11.893  66.102  1.00  0.00    -0.324 C  
HETATM   12  N   UNL     1     -11.695  11.732  67.526  1.00  0.00    -0.573 NA 
BRANCH  12  13
HETATM   13  C   UNL     1     -11.520  13.008  68.270  1.00  0.00    -0.312 C  
HETATM   14  C   UNL     1     -12.002  14.258  67.520  1.00  0.00    -0.376 C  
HETATM   15 CL   UNL     1     -11.643  15.730  68.462  1.00  0.00    -0.379 Cl 
ENDBRANCH  12  13
ENDBRANCH   4   6
ENDBRANCH   3   4
TORSDOF 3
ENDMDL
MODEL       73
REMARK 921   NORMALIZED FREE ENERGY PREDICTED BY IDOCK:   -3.65 KCAL/MOL
REMARK 922        TOTAL FREE ENERGY PREDICTED BY IDOCK:   -4.22 KCAL/MOL
REMARK 923 INTER-LIGAND FREE ENERGY PREDICTED BY IDOCK:   -4.04 KCAL/MOL
REMARK 924 INTRA-LIGAND FREE ENERGY PREDICTED BY IDOCK:   -0.18 KCAL/MOL
REMARK 927      BINDING AFFINITY PREDICTED BY RF-SCORE:    0.00 PKD
ROOT
HETATM    1 CL   UNL     1      -9.657  11.222  65.685  1.00  0.00    -0.248 Cl 
HETATM    2  C   UNL     1     -10.708  10.871  67.081  1.00  0.00    -0.270 C  
HETATM    3  C   UNL     1     -10.659   9.384  67.410  1.00  0.00    -0.258 C  
ENDROOT
BRANCH   3   4
HETATM    4  N   UNL     1     -11.176   9.105  68.734  1.00  0.00    -0.427 NA 
HETATM    5  H   UNL     1     -12.109   8.698  68.803  1.00  0.00     0.000 HD 
BRANCH   4   6
HETATM    6  P   UNL     1     -10.371   9.392  70.124  1.00  0.00    -0.274 P  
HETATM    7  O   UNL     1     -11.225  10.563  70.829  1.00  0.00    -0.300 OA 
HETATM    8  O   UNL     1      -8.929   9.756  69.980  1.00  0.00    -0.217 OA 
HETATM    9  C   UNL     1     -12.611  10.362  71.053  1.00  0.00    -0.393 C  
HETATM   10  C   UNL     1     -13.021   8.954  71.518  1.00  0.00    -0.379 C  
HETATM   11  C   UNL     1     -12.139   7.781  71.081  1.00  0.00    -0.286 C  
HETATM   12  N   UNL     1     -10.713   8.105  71.109  1.00  0.00    -0.218 NA 
BRANCH  12  13
HETATM   13  C   UNL     1     -10.206   8.237  72.500  1.00  0.00    -0.316 C  
HETATM   14  C   UNL     1      -8.733   7.844  72.685  1.00  0.00    -0.167 C  
HETATM   15 CL   UNL     1      -8.271   7.940  74.406  1.00  0.00    -0.285 Cl 
ENDBRANCH  12  13
ENDBRANCH   4   6
ENDBRANCH   3   4
TORSDOF 3
ENDMDL
MODEL       74
REMARK 921   NORMALIZED FREE ENERGY PREDICTED BY IDOCK:   -3.64 KCAL/MOL
REMARK 922        TOTAL FREE ENERGY PREDICTED BY IDOCK:   -4.21 KCAL/MOL
REMARK 923 INTER-LIGAND FREE ENERGY PREDICTED BY IDOCK:   -4.07 KCAL/MOL
REMARK 924 INTRA-LIGAND FREE ENERGY PREDICTED BY IDOCK:   -0.14 KCAL/MOL
REMARK 927      BINDING AFFINITY PREDICTED BY RF-SCORE:    0.00 PKD
ROOT
HETATM    1 CL   UNL     1     -12.893  14.589  72.624  1.00  0.00    -0.472 Cl 
HETATM    2  C   UNL     1     -12.319  14.435  70.944  1.00  0.00    -0.349 C  
HETATM    3  C   UNL     1     -11.071  15.284  70.739  1.00  0.00    -0.302 C  
ENDROOT
BRANCH   3   4
HETATM    4  N   UNL     1     -10.354  14.914  69.537  1.00  0.00    -0.346 NA 
HETATM    5  H   UNL     1     -10.733  14.150  68.975  1.00  0.00     0.000 HD 
BRANCH   4   6
HETATM    6  P   UNL     1      -8.984  15.630  69.016  1.00  0.00    -0.265 P  
HETATM    7  O   UNL     1      -8.721  14.958  67.574  1.00  0.00    -0.170 OA 
HETATM    8  O   UNL     1      -7.799  15.507  69.918  1.00  0.00    -0.119 OA 
HETATM    9  C   UNL     1      -9.747  15.006  66.597  1.00  0.00    -0.258 C  
HETATM   10  C   UNL     1     -10.534  16.326  66.511  1.00  0.00    -0.290 C  
HETATM   11  C   UNL     1     -10.655  17.159  67.790  1.00  0.00    -0.360 C  
HETATM   12  N   UNL     1      -9.425  17.166  68.580  1.00  0.00    -0.274 NA 
BRANCH  12  13
HETATM   13  C   UNL     1      -8.351  17.955  67.919  1.00  0.00    -0.247 C  
HETATM   14  C   UNL     1      -7.792  19.108  68.765  1.00  0.00    -0.348 C  
HETATM   15 CL   UNL     1      -6.593  20.045  67.832  1.00  0.00    -0.273 Cl 
ENDBRANCH  12  13
ENDBRANCH   4   6
ENDBRANCH   3   4
TORSDOF 3
ENDMDL
MODEL       75
REMARK 921   NORMALIZED FREE ENERGY PREDICTED BY IDOCK:   -3.62 KCAL/MOL
REMARK 922        TOTAL FREE ENERGY PREDICTED BY IDOCK:   -4.19 KCAL/MOL
REMARK 923 INTER-LIGAND FREE ENERGY PREDICTED BY IDOCK:   -4.10 KCAL/MOL
REMARK 924 INTRA-LIGAND FREE ENERGY PREDICTED BY IDOCK:   -0.09 KCAL/MOL
REMARK 927      BINDING AFFINITY PREDICTED BY RF-SCORE:    0.00 PKD
ROOT
HETATM    1 CL   UNL     1      -8.967  17.256  68.507  1.00  0.00    -0.268 Cl 
HETATM    2  C   UNL     1      -9.721  16.126  67.354  1.00  0.00    -0.233 C  
HETATM    3  C   UNL     1     -10.389  14.981  68.105  1.00  0.00    -0.239 C  
ENDROOT
BRANCH   3   4
HETATM    4  N   UNL     1     -11.322  14.255  67.270  1.00  0.00    -0.318 NA 
HETATM    5  H   UNL     1     -12.169  14.741  66.971  1.00  0.00     0.000 HD 
BRANCH   4   6
HETATM    6  P   UNL     1     -11.117  12.715  66.772  1.00  0.00    -0.309 P  
HETATM    7  O   UNL     1     -12.529  12.338  66.091  1.00  0.00    -0.466 OA 
HETATM    8  O   UNL     1     -10.722  11.734  67.828  1.00  0.00    -0.193 OA 
HETATM    9  C   UNL     1     -13.034  13.165  65.056  1.00  0.00    -0.150 C  
HETATM   10  C   UNL     1     -11.999  13.688  64.044  1.00  0.00    -0.478 C  
HETATM   11  C   UNL     1     -10.562  13.873  64.538  1.00  0.00    -0.354 C  
HETATM   12  N   UNL     1     -10.133  12.806  65.443  1.00  0.00    -0.281 NA 
BRANCH  12  13
HETATM   13  C   UNL     1      -9.941  11.519  64.723  1.00  0.00    -0.260 C  
HETATM   14  C   UNL     1      -9.458  11.662  63.272  1.00  0.00    -0.240 C  
HETATM   15 CL   UNL     1      -9.368  10.065  62.482  1.00  0.00    -0.311 Cl 
ENDBRANCH  12  13
ENDBRANCH   4   6
ENDBRANCH   3   4
TORSDOF 3
ENDMDL
MODEL       76
REMARK 921   NORMALIZED FREE ENERGY PREDICTED BY IDOCK:   -3.62 KCAL/MOL
REMARK 922        TOTAL FREE ENERGY PREDICTED BY IDOCK:   -4.19 KCAL/MOL
REMARK 923 INTER-LIGAND FREE ENERGY PREDICTED BY IDOCK:   -3.99 KCAL/MOL
REMARK 924 INTRA-LIGAND FREE ENERGY PREDICTED BY IDOCK:   -0.20 KCAL/MOL
REMARK 927      BINDING AFFINITY PREDICTED BY RF-SCORE:    0.00 PKD
ROOT
HETATM    1 CL   UNL     1     -12.404  13.079  70.118  1.00  0.00    -0.319 Cl 
HETATM    2  C   UNL     1     -12.578  11.630  71.142  1.00  0.00    -0.335 C  
HETATM    3  C   UNL     1     -11.673  10.517  70.629  1.00  0.00    -0.357 C  
ENDROOT
BRANCH   3   4
HETATM    4  N   UNL     1     -11.485   9.473  71.614  1.00  0.00    -0.389 NA 
HETATM    5  H   UNL     1     -10.962   9.707  72.459  1.00  0.00     0.000 HD 
BRANCH   4   6
HETATM    6  P   UNL     1     -12.048   7.949  71.471  1.00  0.00    -0.323 P  
HETATM    7  O   UNL     1     -11.321   7.391  70.145  1.00  0.00    -0.255 OA 
HETATM    8  O   UNL     1     -13.534   7.806  71.400  1.00  0.00    -0.324 OA 
HETATM    9  C   UNL     1      -9.906   7.441  70.066  1.00  0.00    -0.179 C  
HETATM   10  C   UNL     1      -9.146   7.097  71.359  1.00  0.00    -0.143 C  
HETATM   11  C   UNL     1      -9.849   7.386  72.688  1.00  0.00    -0.178 C  
HETATM   12  N   UNL     1     -11.278   7.079  72.651  1.00  0.00    -0.276 NA 
BRANCH  12  13
HETATM   13  C   UNL     1     -11.524   5.613  72.602  1.00  0.00    -0.285 C  
HETATM   14  C   UNL     1     -10.908   4.821  73.764  1.00  0.00    -0.310 C  
HETATM   15 CL   UNL     1     -11.176   3.071  73.540  1.00  0.00    -0.318 Cl 
ENDBRANCH  12  13
ENDBRANCH   4   6
ENDBRANCH   3   4
TORSDOF 3
ENDMDL
MODEL       77
REMARK 921   NORMALIZED FREE ENERGY PREDICTED BY IDOCK:   -3.62 KCAL/MOL
REMARK 922        TOTAL FREE ENERGY PREDICTED BY IDOCK:   -4.18 KCAL/MOL
REMARK 923 INTER-LIGAND FREE ENERGY PREDICTED BY IDOCK:   -3.99 KCAL/MOL
REMARK 924 INTRA-LIGAND FREE ENERGY PREDICTED BY IDOCK:   -0.19 KCAL/MOL
REMARK 927      BINDING AFFINITY PREDICTED BY RF-SCORE:    0.00 PKD
ROOT
HETATM    1 CL   UNL     1     -10.559   5.638  69.822  1.00  0.00    -0.378 Cl 
HETATM    2  C   UNL     1     -10.907   6.891  68.603  1.00  0.00    -0.187 C  
HETATM    3  C   UNL     1     -10.517   8.263  69.138  1.00  0.00    -0.206 C  
ENDROOT
BRANCH   3   4
HETATM    4  N   UNL     1     -10.420   9.249  68.082  1.00  0.00    -0.223 NA 
HETATM    5  H   UNL     1      -9.871   9.008  67.257  1.00  0.00     0.000 HD 
BRANCH   4   6
HETATM    6  P   UNL     1     -11.126  10.719  68.119  1.00  0.00    -0.299 P  
HETATM    7  O   UNL     1      -9.945  11.703  68.605  1.00  0.00    -0.209 OA 
HETATM    8  O   UNL     1     -12.345  10.837  68.974  1.00  0.00    -0.422 OA 
HETATM    9  C   UNL     1      -8.725  11.720  67.883  1.00  0.00    -0.164 C  
HETATM   10  C   UNL     1      -8.847  11.639  66.351  1.00  0.00    -0.182 C  
HETATM   11  C   UNL     1     -10.065  10.908  65.779  1.00  0.00    -0.252 C  
HETATM   12  N   UNL     1     -11.289  11.172  66.533  1.00  0.00    -0.264 NA 
BRANCH  12  13
HETATM   13  C   UNL     1     -11.770  12.564  66.332  1.00  0.00    -0.397 C  
HETATM   14  C   UNL     1     -11.932  12.980  64.862  1.00  0.00    -0.396 C  
HETATM   15 CL   UNL     1     -12.408  14.695  64.746  1.00  0.00    -0.414 Cl 
ENDBRANCH  12  13
ENDBRANCH   4   6
ENDBRANCH   3   4
TORSDOF 3
ENDMDL
MODEL       78
REMARK 921   NORMALIZED FREE ENERGY PREDICTED BY IDOCK:   -3.61 KCAL/MOL
REMARK 922        TOTAL FREE ENERGY PREDICTED BY IDOCK:   -4.17 KCAL/MOL
REMARK 923 INTER-LIGAND FREE ENERGY PREDICTED BY IDOCK:   -3.98 KCAL/MOL
REMARK 924 INTRA-LIGAND FREE ENERGY PREDICTED BY IDOCK:   -0.19 KCAL/MOL
REMARK 927      BINDING AFFINITY PREDICTED BY RF-SCORE:    0.00 PKD
ROOT
HETATM    1 CL   UNL     1      -5.730   9.419  69.692  1.00  0.00    -0.033 Cl 
HETATM    2  C   UNL     1      -7.285  10.194  70.089  1.00  0.00    -0.154 C  
HETATM    3  C   UNL     1      -8.018  10.579  68.810  1.00  0.00    -0.127 C  
ENDROOT
BRANCH   3   4
HETATM    4  N   UNL     1      -9.419  10.856  69.050  1.00  0.00    -0.328 NA 
HETATM    5  H   UNL     1      -9.686  11.178  69.981  1.00  0.00     0.000 HD 
BRANCH   4   6
HETATM    6  P   UNL     1     -10.602  10.689  67.939  1.00  0.00    -0.271 P  
HETATM    7  O   UNL     1     -11.953  10.986  68.765  1.00  0.00    -0.457 OA 
HETATM    8  O   UNL     1     -10.652   9.374  67.231  1.00  0.00    -0.267 OA 
HETATM    9  C   UNL     1     -12.067  12.206  69.479  1.00  0.00    -0.201 C  
HETATM   10  C   UNL     1     -11.506  13.454  68.775  1.00  0.00    -0.344 C  
HETATM   11  C   UNL     1     -10.352  13.249  67.790  1.00  0.00    -0.233 C  
HETATM   12  N   UNL     1     -10.505  12.039  66.983  1.00  0.00    -0.218 NA 
BRANCH  12  13
HETATM   13  C   UNL     1     -11.603  12.175  65.990  1.00  0.00    -0.358 C  
HETATM   14  C   UNL     1     -11.222  11.780  64.555  1.00  0.00    -0.305 C  
HETATM   15 CL   UNL     1     -12.580  12.087  63.440  1.00  0.00    -0.681 Cl 
ENDBRANCH  12  13
ENDBRANCH   4   6
ENDBRANCH   3   4
TORSDOF 3
ENDMDL
MODEL       79
REMARK 921   NORMALIZED FREE ENERGY PREDICTED BY IDOCK:   -3.60 KCAL/MOL
REMARK 922        TOTAL FREE ENERGY PREDICTED BY IDOCK:   -4.17 KCAL/MOL
REMARK 923 INTER-LIGAND FREE ENERGY PREDICTED BY IDOCK:   -3.95 KCAL/MOL
REMARK 924 INTRA-LIGAND FREE ENERGY PREDICTED BY IDOCK:   -0.21 KCAL/MOL
REMARK 927      BINDING AFFINITY PREDICTED BY RF-SCORE:    0.00 PKD
ROOT
HETATM    1 CL   UNL     1     -11.566  12.019  66.997  1.00  0.00    -0.403 Cl 
HETATM    2  C   UNL     1     -11.570  13.653  67.709  1.00  0.00    -0.338 C  
HETATM    3  C   UNL     1     -10.198  13.973  68.290  1.00  0.00    -0.249 C  
ENDROOT
BRANCH   3   4
HETATM    4  N   UNL     1     -10.030  15.390  68.533  1.00  0.00    -0.209 NA 
HETATM    5  H   UNL     1     -10.795  15.887  68.991  1.00  0.00     0.000 HD 
BRANCH   4   6
HETATM    6  P   UNL     1      -8.703  16.249  68.129  1.00  0.00    -0.191 P  
HETATM    7  O   UNL     1      -8.585  16.050  66.534  1.00  0.00    -0.250 OA 
HETATM    8  O   UNL     1      -7.442  15.876  68.838  1.00  0.00    -0.152 OA 
HETATM    9  C   UNL     1      -9.697  16.377  65.717  1.00  0.00    -0.236 C  
HETATM   10  C   UNL     1     -10.469  17.650  66.108  1.00  0.00    -0.295 C  
HETATM   11  C   UNL     1     -10.459  18.055  67.585  1.00  0.00    -0.409 C  
HETATM   12  N   UNL     1      -9.160  17.839  68.222  1.00  0.00    -0.274 NA 
BRANCH  12  13
HETATM   13  C   UNL     1      -8.142  18.807  67.735  1.00  0.00    -0.255 C  
HETATM   14  C   UNL     1      -7.520  19.687  68.830  1.00  0.00    -0.329 C  
HETATM   15 CL   UNL     1      -6.397  20.875  68.115  1.00  0.00    -0.363 Cl 
ENDBRANCH  12  13
ENDBRANCH   4   6
ENDBRANCH   3   4
TORSDOF 3
ENDMDL
MODEL       80
REMARK 921   NORMALIZED FREE ENERGY PREDICTED BY IDOCK:   -3.60 KCAL/MOL
REMARK 922        TOTAL FREE ENERGY PREDICTED BY IDOCK:   -4.16 KCAL/MOL
REMARK 923 INTER-LIGAND FREE ENERGY PREDICTED BY IDOCK:   -3.98 KCAL/MOL
REMARK 924 INTRA-LIGAND FREE ENERGY PREDICTED BY IDOCK:   -0.18 KCAL/MOL
REMARK 927      BINDING AFFINITY PREDICTED BY RF-SCORE:    0.00 PKD
ROOT
HETATM    1 CL   UNL     1      -9.831  20.194  67.113  1.00  0.00    -0.556 Cl 
HETATM    2  C   UNL     1     -10.979  19.001  67.773  1.00  0.00    -0.176 C  
HETATM    3  C   UNL     1     -10.223  17.808  68.343  1.00  0.00    -0.384 C  
ENDROOT
BRANCH   3   4
HETATM    4  N   UNL     1     -11.055  17.004  69.214  1.00  0.00    -0.273 NA 
HETATM    5  H   UNL     1     -11.931  17.412  69.541  1.00  0.00     0.000 HD 
BRANCH   4   6
HETATM    6  P   UNL     1     -10.690  15.493  69.710  1.00  0.00    -0.338 P  
HETATM    7  O   UNL     1     -10.686  15.605  71.318  1.00  0.00    -0.140 OA 
HETATM    8  O   UNL     1      -9.414  14.922  69.182  1.00  0.00    -0.202 OA 
HETATM    9  C   UNL     1     -11.835  16.115  71.974  1.00  0.00    -0.530 C  
HETATM   10  C   UNL     1     -13.191  15.660  71.407  1.00  0.00    -0.540 C  
HETATM   11  C   UNL     1     -13.252  15.312  69.917  1.00  0.00     0.403 C  
HETATM   12  N   UNL     1     -12.061  14.600  69.453  1.00  0.00    -0.300 NA 
BRANCH  12  13
HETATM   13  C   UNL     1     -12.007  13.213  69.988  1.00  0.00    -0.321 C  
HETATM   14  C   UNL     1     -11.799  12.125  68.924  1.00  0.00    -0.304 C  
HETATM   15 CL   UNL     1     -11.859  10.504  69.667  1.00  0.00    -0.320 Cl 
ENDBRANCH  12  13
ENDBRANCH   4   6
ENDBRANCH   3   4
TORSDOF 3
ENDMDL
MODEL       81
REMARK 921   NORMALIZED FREE ENERGY PREDICTED BY IDOCK:   -3.59 KCAL/MOL
REMARK 922        TOTAL FREE ENERGY PREDICTED BY IDOCK:   -4.15 KCAL/MOL
REMARK 923 INTER-LIGAND FREE ENERGY PREDICTED BY IDOCK:   -4.04 KCAL/MOL
REMARK 924 INTRA-LIGAND FREE ENERGY PREDICTED BY IDOCK:   -0.11 KCAL/MOL
REMARK 927      BINDING AFFINITY PREDICTED BY RF-SCORE:    0.00 PKD
ROOT
HETATM    1 CL   UNL     1      -9.632   3.045  71.147  1.00  0.00    -0.226 Cl 
HETATM    2  C   UNL     1      -9.932   4.553  70.244  1.00  0.00    -0.218 C  
HETATM    3  C   UNL     1     -10.649   5.560  71.134  1.00  0.00    -0.233 C  
ENDROOT
BRANCH   3   4
HETATM    4  N   UNL     1     -10.582   6.903  70.597  1.00  0.00    -0.218 NA 
HETATM    5  H   UNL     1     -10.282   7.012  69.628  1.00  0.00     0.000 HD 
BRANCH   4   6
HETATM    6  P   UNL     1     -10.951   8.256  71.432  1.00  0.00    -0.281 P  
HETATM    7  O   UNL     1      -9.514   8.875  71.820  1.00  0.00    -0.283 OA 
HETATM    8  O   UNL     1     -11.825   8.066  72.629  1.00  0.00    -0.377 OA 
HETATM    9  C   UNL     1      -8.576   9.130  70.788  1.00  0.00    -0.219 C  
HETATM   10  C   UNL     1      -9.149   9.712  69.484  1.00  0.00    -0.209 C  
HETATM   11  C   UNL     1     -10.597   9.360  69.131  1.00  0.00    -0.218 C  
HETATM   12  N   UNL     1     -11.476   9.345  70.299  1.00  0.00    -0.221 NA 
BRANCH  12  13
HETATM   13  C   UNL     1     -11.718  10.716  70.823  1.00  0.00    -0.335 C  
HETATM   14  C   UNL     1     -13.080  10.909  71.507  1.00  0.00    -0.399 C  
HETATM   15 CL   UNL     1     -13.299  12.611  71.996  1.00  0.00    -0.602 Cl 
ENDBRANCH  12  13
ENDBRANCH   4   6
ENDBRANCH   3   4
TORSDOF 3
ENDMDL
MODEL       82
REMARK 921   NORMALIZED FREE ENERGY PREDICTED BY IDOCK:   -3.54 KCAL/MOL
REMARK 922        TOTAL FREE ENERGY PREDICTED BY IDOCK:   -4.10 KCAL/MOL
REMARK 923 INTER-LIGAND FREE ENERGY PREDICTED BY IDOCK:   -3.91 KCAL/MOL
REMARK 924 INTRA-LIGAND FREE ENERGY PREDICTED BY IDOCK:   -0.19 KCAL/MOL
REMARK 927      BINDING AFFINITY PREDICTED BY RF-SCORE:    0.00 PKD
ROOT
HETATM    1 CL   UNL     1     -10.009  20.066  66.352  1.00  0.00    -0.570 Cl 
HETATM    2  C   UNL     1     -10.519  18.384  66.055  1.00  0.00    -0.374 C  
HETATM    3  C   UNL     1      -9.696  17.430  66.911  1.00  0.00    -0.286 C  
ENDROOT
BRANCH   3   4
HETATM    4  N   UNL     1     -10.303  16.119  67.000  1.00  0.00    -0.287 NA 
HETATM    5  H   UNL     1     -11.260  16.016  66.659  1.00  0.00     0.000 HD 
BRANCH   4   6
HETATM    6  P   UNL     1      -9.568  14.795  67.606  1.00  0.00    -0.212 P  
HETATM    7  O   UNL     1     -10.650  14.189  68.636  1.00  0.00    -0.238 OA 
HETATM    8  O   UNL     1      -8.241  15.023  68.253  1.00  0.00    -0.136 OA 
HETATM    9  C   UNL     1     -11.957  13.901  68.167  1.00  0.00    -0.350 C  
HETATM   10  C   UNL     1     -12.047  13.275  66.764  1.00  0.00    -0.403 C  
HETATM   11  C   UNL     1     -10.934  13.615  65.768  1.00  0.00    -0.278 C  
HETATM   12  N   UNL     1      -9.613  13.668  66.392  1.00  0.00    -0.281 NA 
BRANCH  12  13
HETATM   13  C   UNL     1      -9.135  12.316  66.783  1.00  0.00    -0.211 C  
HETATM   14  C   UNL     1      -8.942  11.341  65.612  1.00  0.00    -0.163 C  
HETATM   15 CL   UNL     1      -8.472   9.727  66.211  1.00  0.00    -0.124 Cl 
ENDBRANCH  12  13
ENDBRANCH   4   6
ENDBRANCH   3   4
TORSDOF 3
ENDMDL
MODEL       83
REMARK 921   NORMALIZED FREE ENERGY PREDICTED BY IDOCK:   -3.50 KCAL/MOL
REMARK 922        TOTAL FREE ENERGY PREDICTED BY IDOCK:   -4.05 KCAL/MOL
REMARK 923 INTER-LIGAND FREE ENERGY PREDICTED BY IDOCK:   -3.88 KCAL/MOL
REMARK 924 INTRA-LIGAND FREE ENERGY PREDICTED BY IDOCK:   -0.17 KCAL/MOL
REMARK 927      BINDING AFFINITY PREDICTED BY RF-SCORE:    0.00 PKD
ROOT
HETATM    1 CL   UNL     1      -8.792   6.723  66.285  1.00  0.00    -0.151 Cl 
HETATM    2  C   UNL     1      -8.945   8.477  66.011  1.00  0.00    -0.184 C  
HETATM    3  C   UNL     1      -9.772   9.109  67.123  1.00  0.00    -0.182 C  
ENDROOT
BRANCH   3   4
HETATM    4  N   UNL     1      -9.615  10.548  67.165  1.00  0.00    -0.166 NA 
HETATM    5  H   UNL     1      -8.945  10.933  67.832  1.00  0.00     0.000 HD 
BRANCH   4   6
HETATM    6  P   UNL     1     -10.434  11.599  66.223  1.00  0.00    -0.264 P  
HETATM    7  O   UNL     1     -11.817  11.833  67.017  1.00  0.00    -0.599 OA 
HETATM    8  O   UNL     1     -10.662  11.168  64.810  1.00  0.00    -0.314 OA 
HETATM    9  C   UNL     1     -11.768  12.261  68.368  1.00  0.00    -0.337 C  
HETATM   10  C   UNL     1     -10.696  13.314  68.703  1.00  0.00    -0.281 C  
HETATM   11  C   UNL     1      -9.423  13.318  67.853  1.00  0.00    -0.214 C  
HETATM   12  N   UNL     1      -9.687  13.061  66.438  1.00  0.00    -0.265 NA 
BRANCH  12  13
HETATM   13  C   UNL     1     -10.374  14.210  65.789  1.00  0.00    -0.325 C  
HETATM   14  C   UNL     1      -9.743  15.580  66.078  1.00  0.00    -0.345 C  
HETATM   15 CL   UNL     1     -10.711  16.883  65.339  1.00  0.00    -0.257 Cl 
ENDBRANCH  12  13
ENDBRANCH   4   6
ENDBRANCH   3   4
TORSDOF 3
ENDMDL
MODEL       84
REMARK 921   NORMALIZED FREE ENERGY PREDICTED BY IDOCK:   -3.48 KCAL/MOL
REMARK 922        TOTAL FREE ENERGY PREDICTED BY IDOCK:   -4.03 KCAL/MOL
REMARK 923 INTER-LIGAND FREE ENERGY PREDICTED BY IDOCK:   -3.76 KCAL/MOL
REMARK 924 INTRA-LIGAND FREE ENERGY PREDICTED BY IDOCK:   -0.26 KCAL/MOL
REMARK 927      BINDING AFFINITY PREDICTED BY RF-SCORE:    0.00 PKD
ROOT
HETATM    1 CL   UNL     1     -11.060   2.601  73.670  1.00  0.00    -0.307 Cl 
HETATM    2  C   UNL     1     -11.349   4.324  73.314  1.00  0.00    -0.203 C  
HETATM    3  C   UNL     1     -10.022   5.042  73.098  1.00  0.00    -0.159 C  
ENDROOT
BRANCH   3   4
HETATM    4  N   UNL     1     -10.198   6.322  72.445  1.00  0.00    -0.185 NA 
HETATM    5  H   UNL     1      -9.988   7.162  72.984  1.00  0.00     0.000 HD 
BRANCH   4   6
HETATM    6  P   UNL     1     -10.708   6.517  70.908  1.00  0.00    -0.269 P  
HETATM    7  O   UNL     1     -12.258   6.932  71.064  1.00  0.00    -0.373 OA 
HETATM    8  O   UNL     1     -10.530   5.338  70.006  1.00  0.00    -0.293 OA 
HETATM    9  C   UNL     1     -12.591   8.045  71.877  1.00  0.00    -0.328 C  
HETATM   10  C   UNL     1     -11.650   9.259  71.776  1.00  0.00    -0.458 C  
HETATM   11  C   UNL     1     -10.188   8.989  71.410  1.00  0.00    -0.329 C  
HETATM   12  N   UNL     1     -10.042   7.945  70.397  1.00  0.00    -0.193 NA 
BRANCH  12  13
HETATM   13  C   UNL     1     -10.508   8.404  69.062  1.00  0.00    -0.201 C  
HETATM   14  C   UNL     1      -9.607   7.985  67.890  1.00  0.00    -0.155 C  
HETATM   15 CL   UNL     1     -10.206   8.682  66.360  1.00  0.00    -0.312 Cl 
ENDBRANCH  12  13
ENDBRANCH   4   6
ENDBRANCH   3   4
TORSDOF 3
ENDMDL
MODEL       85
REMARK 921   NORMALIZED FREE ENERGY PREDICTED BY IDOCK:   -3.46 KCAL/MOL
REMARK 922        TOTAL FREE ENERGY PREDICTED BY IDOCK:   -4.00 KCAL/MOL
REMARK 923 INTER-LIGAND FREE ENERGY PREDICTED BY IDOCK:   -3.76 KCAL/MOL
REMARK 924 INTRA-LIGAND FREE ENERGY PREDICTED BY IDOCK:   -0.24 KCAL/MOL
REMARK 927      BINDING AFFINITY PREDICTED BY RF-SCORE:    0.00 PKD
ROOT
HETATM    1 CL   UNL     1     -12.406  14.671  64.110  1.00  0.00    -0.434 Cl 
HETATM    2  C   UNL     1     -11.425  13.733  65.265  1.00  0.00    -0.312 C  
HETATM    3  C   UNL     1     -10.505  12.778  64.514  1.00  0.00    -0.368 C  
ENDROOT
BRANCH   3   4
HETATM    4  N   UNL     1      -9.440  12.277  65.356  1.00  0.00    -0.437 NA 
HETATM    5  H   UNL     1      -8.553  12.782  65.349  1.00  0.00     0.000 HD 
BRANCH   4   6
HETATM    6  P   UNL     1      -9.555  10.961  66.314  1.00  0.00    -0.219 P  
HETATM    7  O   UNL     1      -8.023  10.612  66.677  1.00  0.00    -0.123 OA 
HETATM    8  O   UNL     1     -10.276   9.790  65.732  1.00  0.00    -0.264 OA 
HETATM    9  C   UNL     1      -7.209  11.619  67.255  1.00  0.00    -0.137 C  
HETATM   10  C   UNL     1      -7.887  12.512  68.308  1.00  0.00    -0.144 C  
HETATM   11  C   UNL     1      -9.397  12.731  68.180  1.00  0.00    -0.214 C  
HETATM   12  N   UNL     1     -10.111  11.522  67.771  1.00  0.00    -0.179 NA 
BRANCH  12  13
HETATM   13  C   UNL     1     -10.140  10.506  68.856  1.00  0.00    -0.202 C  
HETATM   14  C   UNL     1     -11.213  10.745  69.928  1.00  0.00    -0.300 C  
HETATM   15 CL   UNL     1     -11.081   9.529  71.228  1.00  0.00    -0.431 Cl 
ENDBRANCH  12  13
ENDBRANCH   4   6
ENDBRANCH   3   4
TORSDOF 3
ENDMDL
MODEL       86
REMARK 921   NORMALIZED FREE ENERGY PREDICTED BY IDOCK:   -3.45 KCAL/MOL
REMARK 922        TOTAL FREE ENERGY PREDICTED BY IDOCK:   -3.99 KCAL/MOL
REMARK 923 INTER-LIGAND FREE ENERGY PREDICTED BY IDOCK:   -3.79 KCAL/MOL
REMARK 924 INTRA-LIGAND FREE ENERGY PREDICTED BY IDOCK:   -0.21 KCAL/MOL
REMARK 927      BINDING AFFINITY PREDICTED BY RF-SCORE:    0.00 PKD
ROOT
HETATM    1 CL   UNL     1      -5.613  14.833  70.365  1.00  0.00    -0.130 Cl 
HETATM    2  C   UNL     1      -6.606  15.163  68.923  1.00  0.00    -0.104 C  
HETATM    3  C   UNL     1      -7.401  13.921  68.540  1.00  0.00    -0.116 C  
ENDROOT
BRANCH   3   4
HETATM    4  N   UNL     1      -8.486  14.229  67.633  1.00  0.00    -0.167 NA 
HETATM    5  H   UNL     1      -8.658  15.211  67.416  1.00  0.00     0.000 HD 
BRANCH   4   6
HETATM    6  P   UNL     1      -9.455  13.118  66.933  1.00  0.00    -0.248 P  
HETATM    7  O   UNL     1     -10.433  12.652  68.126  1.00  0.00    -0.217 OA 
HETATM    8  O   UNL     1      -8.762  11.961  66.289  1.00  0.00    -0.167 OA 
HETATM    9  C   UNL     1     -11.177  13.635  68.828  1.00  0.00    -0.279 C  
HETATM   10  C   UNL     1     -11.769  14.769  67.972  1.00  0.00    -0.360 C  
HETATM   11  C   UNL     1     -11.026  15.144  66.686  1.00  0.00    -0.318 C  
HETATM   12  N   UNL     1     -10.499  13.979  65.978  1.00  0.00    -0.296 NA 
BRANCH  12  13
HETATM   13  C   UNL     1     -11.584  13.171  65.362  1.00  0.00    -0.333 C  
HETATM   14  C   UNL     1     -11.313  12.731  63.916  1.00  0.00    -0.442 C  
HETATM   15 CL   UNL     1     -12.725  11.865  63.250  1.00  0.00    -0.609 Cl 
ENDBRANCH  12  13
ENDBRANCH   4   6
ENDBRANCH   3   4
TORSDOF 3
ENDMDL
MODEL       87
REMARK 921   NORMALIZED FREE ENERGY PREDICTED BY IDOCK:   -3.45 KCAL/MOL
REMARK 922        TOTAL FREE ENERGY PREDICTED BY IDOCK:   -3.99 KCAL/MOL
REMARK 923 INTER-LIGAND FREE ENERGY PREDICTED BY IDOCK:   -3.87 KCAL/MOL
REMARK 924 INTRA-LIGAND FREE ENERGY PREDICTED BY IDOCK:   -0.13 KCAL/MOL
REMARK 927      BINDING AFFINITY PREDICTED BY RF-SCORE:    0.00 PKD
ROOT
HETATM    1 CL   UNL     1     -13.071  11.847  71.508  1.00  0.00    -0.461 Cl 
HETATM    2  C   UNL     1     -13.177  10.111  71.898  1.00  0.00    -0.452 C  
HETATM    3  C   UNL     1     -11.847   9.428  71.602  1.00  0.00    -0.394 C  
ENDROOT
BRANCH   3   4
HETATM    4  N   UNL     1     -11.750   8.132  72.239  1.00  0.00    -0.354 NA 
HETATM    5  H   UNL     1     -12.274   7.987  73.103  1.00  0.00     0.000 HD 
BRANCH   4   6
HETATM    6  P   UNL     1     -10.862   6.884  71.675  1.00  0.00    -0.236 P  
HETATM    7  O   UNL     1      -9.388   7.510  71.495  1.00  0.00    -0.140 OA 
HETATM    8  O   UNL     1     -11.360   6.245  70.419  1.00  0.00    -0.345 OA 
HETATM    9  C   UNL     1      -8.769   8.139  72.604  1.00  0.00    -0.213 C  
HETATM   10  C   UNL     1      -8.968   7.452  73.967  1.00  0.00    -0.284 C  
HETATM   11  C   UNL     1     -10.251   6.639  74.165  1.00  0.00    -0.363 C  
HETATM   12  N   UNL     1     -10.631   5.882  72.973  1.00  0.00    -0.228 NA 
BRANCH  12  13
HETATM   13  C   UNL     1      -9.703   4.747  72.722  1.00  0.00    -0.138 C  
HETATM   14  C   UNL     1     -10.370   3.364  72.719  1.00  0.00    -0.159 C  
HETATM   15 CL   UNL     1      -9.146   2.080  72.517  1.00  0.00    -0.099 Cl 
ENDBRANCH  12  13
ENDBRANCH   4   6
ENDBRANCH   3   4
TORSDOF 3
ENDMDL
MODEL       88
REMARK 921   NORMALIZED FREE ENERGY PREDICTED BY IDOCK:   -3.44 KCAL/MOL
REMARK 922        TOTAL FREE ENERGY PREDICTED BY IDOCK:   -3.97 KCAL/MOL
REMARK 923 INTER-LIGAND FREE ENERGY PREDICTED BY IDOCK:   -3.87 KCAL/MOL
REMARK 924 INTRA-LIGAND FREE ENERGY PREDICTED BY IDOCK:   -0.11 KCAL/MOL
REMARK 927      BINDING AFFINITY PREDICTED BY RF-SCORE:    0.00 PKD
ROOT
HETATM    1 CL   UNL     1     -12.330  13.210  63.196  1.00  0.00    -0.426 Cl 
HETATM    2  C   UNL     1     -11.893  13.254  64.924  1.00  0.00    -0.362 C  
HETATM    3  C   UNL     1     -10.405  13.542  65.079  1.00  0.00    -0.362 C  
ENDROOT
BRANCH   3   4
HETATM    4  N   UNL     1     -10.070  13.960  66.424  1.00  0.00    -0.287 NA 
HETATM    5  H   UNL     1     -10.191  14.946  66.658  1.00  0.00     0.000 HD 
BRANCH   4   6
HETATM    6  P   UNL     1      -9.514  12.967  67.592  1.00  0.00    -0.214 P  
HETATM    7  O   UNL     1      -9.175  13.960  68.815  1.00  0.00    -0.135 OA 
HETATM    8  O   UNL     1      -8.346  12.112  67.221  1.00  0.00    -0.164 OA 
HETATM    9  C   UNL     1     -10.189  14.827  69.296  1.00  0.00    -0.185 C  
HETATM   10  C   UNL     1     -11.603  14.226  69.384  1.00  0.00    -0.354 C  
HETATM   11  C   UNL     1     -11.956  13.108  68.399  1.00  0.00    -0.289 C  
HETATM   12  N   UNL     1     -10.849  12.179  68.177  1.00  0.00    -0.211 NA 
BRANCH  12  13
HETATM   13  C   UNL     1     -10.595  11.331  69.372  1.00  0.00    -0.099 C  
HETATM   14  C   UNL     1     -11.856  10.736  70.015  1.00  0.00    -0.344 C  
HETATM   15 CL   UNL     1     -11.437   9.830  71.494  1.00  0.00    -0.436 Cl 
ENDBRANCH  12  13
ENDBRANCH   4   6
ENDBRANCH   3   4
TORSDOF 3
ENDMDL
MODEL       89
REMARK 921   NORMALIZED FREE ENERGY PREDICTED BY IDOCK:   -3.42 KCAL/MOL
REMARK 922        TOTAL FREE ENERGY PREDICTED BY IDOCK:   -3.95 KCAL/MOL
REMARK 923 INTER-LIGAND FREE ENERGY PREDICTED BY IDOCK:   -3.86 KCAL/MOL
REMARK 924 INTRA-LIGAND FREE ENERGY PREDICTED BY IDOCK:   -0.09 KCAL/MOL
REMARK 927      BINDING AFFINITY PREDICTED BY RF-SCORE:    0.00 PKD
ROOT
HETATM    1 CL   UNL     1     -10.142   4.880  70.188  1.00  0.00    -0.330 Cl 
HETATM    2  C   UNL     1     -10.771   6.541  70.337  1.00  0.00    -0.255 C  
HETATM    3  C   UNL     1     -10.441   7.338  69.081  1.00  0.00    -0.215 C  
ENDROOT
BRANCH   3   4
HETATM    4  N   UNL     1     -11.235   8.545  68.981  1.00  0.00    -0.320 NA 
HETATM    5  H   UNL     1     -11.980   8.566  68.284  1.00  0.00     0.000 HD 
BRANCH   4   6
HETATM    6  P   UNL     1     -11.024   9.874  69.903  1.00  0.00    -0.300 P  
HETATM    7  O   UNL     1      -9.468  10.243  69.699  1.00  0.00    -0.211 OA 
HETATM    8  O   UNL     1     -11.384   9.732  71.346  1.00  0.00    -0.369 OA 
HETATM    9  C   UNL     1      -8.974  10.428  68.383  1.00  0.00    -0.137 C  
HETATM   10  C   UNL     1      -9.902  11.181  67.414  1.00  0.00    -0.195 C  
HETATM   11  C   UNL     1     -11.410  11.075  67.657  1.00  0.00    -0.281 C  
HETATM   12  N   UNL     1     -11.758  11.108  69.077  1.00  0.00    -0.314 NA 
BRANCH  12  13
HETATM   13  C   UNL     1     -11.549  12.458  69.664  1.00  0.00    -0.260 C  
HETATM   14  C   UNL     1     -12.523  12.824  70.793  1.00  0.00    -0.271 C  
HETATM   15 CL   UNL     1     -12.245  14.499  71.341  1.00  0.00    -0.406 Cl 
ENDBRANCH  12  13
ENDBRANCH   4   6
ENDBRANCH   3   4
TORSDOF 3
ENDMDL
MODEL       90
REMARK 921   NORMALIZED FREE ENERGY PREDICTED BY IDOCK:   -3.41 KCAL/MOL
REMARK 922        TOTAL FREE ENERGY PREDICTED BY IDOCK:   -3.94 KCAL/MOL
REMARK 923 INTER-LIGAND FREE ENERGY PREDICTED BY IDOCK:   -3.71 KCAL/MOL
REMARK 924 INTRA-LIGAND FREE ENERGY PREDICTED BY IDOCK:   -0.23 KCAL/MOL
REMARK 927      BINDING AFFINITY PREDICTED BY RF-SCORE:    0.00 PKD
ROOT
HETATM    1 CL   UNL     1     -12.166  14.580  71.924  1.00  0.00    -0.389 Cl 
HETATM    2  C   UNL     1     -12.185  14.023  70.231  1.00  0.00    -0.361 C  
HETATM    3  C   UNL     1     -11.878  15.186  69.296  1.00  0.00    -0.320 C  
ENDROOT
BRANCH   3   4
HETATM    4  N   UNL     1     -11.510  14.734  67.971  1.00  0.00    -0.318 NA 
HETATM    5  H   UNL     1     -12.259  14.437  67.345  1.00  0.00     0.000 HD 
BRANCH   4   6
HETATM    6  P   UNL     1      -9.981  14.664  67.405  1.00  0.00    -0.232 P  
HETATM    7  O   UNL     1     -10.110  13.813  66.043  1.00  0.00    -0.295 OA 
HETATM    8  O   UNL     1      -8.966  14.085  68.337  1.00  0.00    -0.188 OA 
HETATM    9  C   UNL     1     -11.023  14.245  65.048  1.00  0.00    -0.387 C  
HETATM   10  C   UNL     1     -11.098  15.765  64.816  1.00  0.00    -0.413 C  
HETATM   11  C   UNL     1     -10.772  16.676  66.003  1.00  0.00    -0.151 C  
HETATM   12  N   UNL     1      -9.659  16.177  66.810  1.00  0.00    -0.231 NA 
BRANCH  12  13
HETATM   13  C   UNL     1      -8.362  16.298  66.094  1.00  0.00    -0.225 C  
HETATM   14  C   UNL     1      -7.279  17.076  66.857  1.00  0.00    -0.209 C  
HETATM   15 CL   UNL     1      -5.811  17.248  65.858  1.00  0.00     0.013 Cl 
ENDBRANCH  12  13
ENDBRANCH   4   6
ENDBRANCH   3   4
TORSDOF 3
ENDMDL
MODEL       91
REMARK 921   NORMALIZED FREE ENERGY PREDICTED BY IDOCK:   -3.40 KCAL/MOL
REMARK 922        TOTAL FREE ENERGY PREDICTED BY IDOCK:   -3.94 KCAL/MOL
REMARK 923 INTER-LIGAND FREE ENERGY PREDICTED BY IDOCK:   -3.72 KCAL/MOL
REMARK 924 INTRA-LIGAND FREE ENERGY PREDICTED BY IDOCK:   -0.22 KCAL/MOL
REMARK 927      BINDING AFFINITY PREDICTED BY RF-SCORE:    0.00 PKD
ROOT
HETATM    1 CL   UNL     1     -11.847  12.208  66.428  1.00  0.00    -0.394 Cl 
HETATM    2  C   UNL     1     -10.268  12.907  66.872  1.00  0.00    -0.242 C  
HETATM    3  C   UNL     1      -9.955  14.100  65.978  1.00  0.00    -0.322 C  
ENDROOT
BRANCH   3   4
HETATM    4  N   UNL     1      -8.896  14.923  66.523  1.00  0.00    -0.414 NA 
HETATM    5  H   UNL     1      -7.988  14.486  66.680  1.00  0.00     0.000 HD 
BRANCH   4   6
HETATM    6  P   UNL     1      -9.052  16.502  66.906  1.00  0.00    -0.252 P  
HETATM    7  O   UNL     1      -9.439  16.484  68.470  1.00  0.00    -0.219 OA 
HETATM    8  O   UNL     1     -10.037  17.277  66.091  1.00  0.00    -0.314 OA 
HETATM    9  C   UNL     1      -8.591  15.802  69.379  1.00  0.00    -0.225 C  
HETATM   10  C   UNL     1      -7.079  15.955  69.135  1.00  0.00    -0.185 C  
HETATM   11  C   UNL     1      -6.619  16.199  67.695  1.00  0.00    -0.155 C  
HETATM   12  N   UNL     1      -7.508  17.099  66.962  1.00  0.00    -0.173 NA 
BRANCH  12  13
HETATM   13  C   UNL     1      -7.402  18.498  67.454  1.00  0.00    -0.217 C  
HETATM   14  C   UNL     1      -6.773  19.482  66.456  1.00  0.00    -0.189 C  
HETATM   15 CL   UNL     1      -6.601  21.098  67.193  1.00  0.00    -0.417 Cl 
ENDBRANCH  12  13
ENDBRANCH   4   6
ENDBRANCH   3   4
TORSDOF 3
ENDMDL
MODEL       92
REMARK 921   NORMALIZED FREE ENERGY PREDICTED BY IDOCK:   -3.36 KCAL/MOL
REMARK 922        TOTAL FREE ENERGY PREDICTED BY IDOCK:   -3.89 KCAL/MOL
REMARK 923 INTER-LIGAND FREE ENERGY PREDICTED BY IDOCK:   -3.74 KCAL/MOL
REMARK 924 INTRA-LIGAND FREE ENERGY PREDICTED BY IDOCK:   -0.15 KCAL/MOL
REMARK 927      BINDING AFFINITY PREDICTED BY RF-SCORE:    0.00 PKD
ROOT
HETATM    1 CL   UNL     1     -10.701   8.052  72.999  1.00  0.00    -0.402 Cl 
HETATM    2  C   UNL     1     -11.166   7.874  71.287  1.00  0.00    -0.255 C  
HETATM    3  C   UNL     1     -11.314   9.245  70.640  1.00  0.00    -0.275 C  
ENDROOT
BRANCH   3   4
HETATM    4  N   UNL     1     -11.314   9.166  69.195  1.00  0.00    -0.398 NA 
HETATM    5  H   UNL     1     -11.557   8.271  68.769  1.00  0.00     0.000 HD 
BRANCH   4   6
HETATM    6  P   UNL     1     -10.953  10.406  68.198  1.00  0.00    -0.258 P  
HETATM    7  O   UNL     1      -9.478  10.859  68.662  1.00  0.00    -0.177 OA 
HETATM    8  O   UNL     1     -11.919  11.547  68.198  1.00  0.00    -0.571 OA 
HETATM    9  C   UNL     1      -8.442   9.891  68.698  1.00  0.00    -0.114 C  
HETATM   10  C   UNL     1      -8.424   8.881  67.537  1.00  0.00    -0.116 C  
HETATM   11  C   UNL     1      -9.762   8.546  66.873  1.00  0.00    -0.221 C  
HETATM   12  N   UNL     1     -10.630   9.713  66.728  1.00  0.00    -0.180 NA 
BRANCH  12  13
HETATM   13  C   UNL     1     -10.117  10.655  65.698  1.00  0.00    -0.272 C  
HETATM   14  C   UNL     1     -11.204  11.314  64.836  1.00  0.00    -0.037 C  
HETATM   15 CL   UNL     1     -10.467  12.335  63.571  1.00  0.00    -0.465 Cl 
ENDBRANCH  12  13
ENDBRANCH   4   6
ENDBRANCH   3   4
TORSDOF 3
ENDMDL
MODEL       93
REMARK 921   NORMALIZED FREE ENERGY PREDICTED BY IDOCK:   -3.36 KCAL/MOL
REMARK 922        TOTAL FREE ENERGY PREDICTED BY IDOCK:   -3.88 KCAL/MOL
REMARK 923 INTER-LIGAND FREE ENERGY PREDICTED BY IDOCK:   -3.65 KCAL/MOL
REMARK 924 INTRA-LIGAND FREE ENERGY PREDICTED BY IDOCK:   -0.23 KCAL/MOL
REMARK 927      BINDING AFFINITY PREDICTED BY RF-SCORE:    0.00 PKD
ROOT
HETATM    1 CL   UNL     1     -13.366  12.002  71.973  1.00  0.00    -0.557 Cl 
HETATM    2  C   UNL     1     -12.442  11.123  70.728  1.00  0.00    -0.384 C  
HETATM    3  C   UNL     1     -11.858   9.844  71.317  1.00  0.00    -0.395 C  
ENDROOT
BRANCH   3   4
HETATM    4  N   UNL     1     -11.432   8.919  70.288  1.00  0.00    -0.438 NA 
HETATM    5  H   UNL     1     -12.154   8.478  69.718  1.00  0.00     0.000 HD 
BRANCH   4   6
HETATM    6  P   UNL     1      -9.879   8.529  69.977  1.00  0.00    -0.186 P  
HETATM    7  O   UNL     1      -9.491   7.507  71.161  1.00  0.00    -0.158 OA 
HETATM    8  O   UNL     1      -8.924   9.675  69.887  1.00  0.00    -0.189 OA 
HETATM    9  C   UNL     1     -10.294   6.356  71.363  1.00  0.00    -0.206 C  
HETATM   10  C   UNL     1     -10.785   5.644  70.090  1.00  0.00    -0.376 C  
HETATM   11  C   UNL     1     -10.975   6.498  68.834  1.00  0.00    -0.314 C  
HETATM   12  N   UNL     1      -9.931   7.508  68.673  1.00  0.00    -0.167 NA 
BRANCH  12  13
HETATM   13  C   UNL     1      -8.625   6.897  68.312  1.00  0.00    -0.125 C  
HETATM   14  C   UNL     1      -7.856   7.634  67.205  1.00  0.00    -0.117 C  
HETATM   15 CL   UNL     1      -6.364   6.751  66.784  1.00  0.00    -0.040 Cl 
ENDBRANCH  12  13
ENDBRANCH   4   6
ENDBRANCH   3   4
TORSDOF 3
ENDMDL
MODEL       94
REMARK 921   NORMALIZED FREE ENERGY PREDICTED BY IDOCK:   -3.36 KCAL/MOL
REMARK 922        TOTAL FREE ENERGY PREDICTED BY IDOCK:   -3.88 KCAL/MOL
REMARK 923 INTER-LIGAND FREE ENERGY PREDICTED BY IDOCK:   -3.66 KCAL/MOL
REMARK 924 INTRA-LIGAND FREE ENERGY PREDICTED BY IDOCK:   -0.21 KCAL/MOL
REMARK 927      BINDING AFFINITY PREDICTED BY RF-SCORE:    0.00 PKD
ROOT
HETATM    1 CL   UNL     1     -11.688  15.892  64.535  1.00  0.00    -0.260 Cl 
HETATM    2  C   UNL     1     -10.588  14.541  64.911  1.00  0.00    -0.427 C  
HETATM    3  C   UNL     1     -10.478  14.362  66.420  1.00  0.00    -0.295 C  
ENDROOT
BRANCH   3   4
HETATM    4  N   UNL     1      -9.918  13.074  66.775  1.00  0.00    -0.239 NA 
HETATM    5  H   UNL     1      -8.902  12.992  66.808  1.00  0.00     0.000 HD 
BRANCH   4   6
HETATM    6  P   UNL     1     -10.797  11.745  67.125  1.00  0.00    -0.289 P  
HETATM    7  O   UNL     1     -10.219  10.624  66.122  1.00  0.00    -0.239 OA 
HETATM    8  O   UNL     1     -12.280  11.893  67.009  1.00  0.00    -0.492 OA 
HETATM    9  C   UNL     1      -8.827  10.353  66.125  1.00  0.00    -0.158 C  
HETATM   10  C   UNL     1      -8.147  10.334  67.506  1.00  0.00    -0.110 C  
HETATM   11  C   UNL     1      -8.759  11.206  68.606  1.00  0.00    -0.153 C  
HETATM   12  N   UNL     1     -10.221  11.204  68.581  1.00  0.00    -0.198 NA 
BRANCH  12  13
HETATM   13  C   UNL     1     -10.777   9.897  69.020  1.00  0.00    -0.222 C  
HETATM   14  C   UNL     1     -10.669   9.629  70.529  1.00  0.00    -0.311 C  
HETATM   15 CL   UNL     1     -11.267   7.994  70.919  1.00  0.00    -0.270 Cl 
ENDBRANCH  12  13
ENDBRANCH   4   6
ENDBRANCH   3   4
TORSDOF 3
ENDMDL
MODEL       95
REMARK 921   NORMALIZED FREE ENERGY PREDICTED BY IDOCK:   -3.33 KCAL/MOL
REMARK 922        TOTAL FREE ENERGY PREDICTED BY IDOCK:   -3.85 KCAL/MOL
REMARK 923 INTER-LIGAND FREE ENERGY PREDICTED BY IDOCK:   -3.77 KCAL/MOL
REMARK 924 INTRA-LIGAND FREE ENERGY PREDICTED BY IDOCK:   -0.08 KCAL/MOL
REMARK 927      BINDING AFFINITY PREDICTED BY RF-SCORE:    0.00 PKD
ROOT
HETATM    1 CL   UNL     1      -7.160   7.990  74.318  1.00  0.00    -0.167 Cl 
HETATM    2  C   UNL     1      -8.490   7.979  73.132  1.00  0.00    -0.208 C  
HETATM    3  C   UNL     1      -9.706   7.271  73.718  1.00  0.00    -0.298 C  
ENDROOT
BRANCH   3   4
HETATM    4  N   UNL     1     -10.912   7.558  72.971  1.00  0.00    -0.401 NA 
HETATM    5  H   UNL     1     -11.661   8.058  73.452  1.00  0.00     0.000 HD 
BRANCH   4   6
HETATM    6  P   UNL     1     -11.161   7.139  71.414  1.00  0.00    -0.273 P  
HETATM    7  O   UNL     1     -12.727   7.440  71.178  1.00  0.00    -0.332 OA 
HETATM    8  O   UNL     1     -10.797   5.736  71.049  1.00  0.00    -0.260 OA 
HETATM    9  C   UNL     1     -13.227   8.736  71.463  1.00  0.00    -0.314 C  
HETATM   10  C   UNL     1     -12.320   9.912  71.058  1.00  0.00    -0.451 C  
HETATM   11  C   UNL     1     -10.809   9.662  71.035  1.00  0.00    -0.342 C  
HETATM   12  N   UNL     1     -10.462   8.341  70.514  1.00  0.00    -0.207 NA 
BRANCH  12  13
HETATM   13  C   UNL     1     -10.710   8.245  69.051  1.00  0.00    -0.079 C  
HETATM   14  C   UNL     1      -9.961   9.285  68.204  1.00  0.00    -0.177 C  
HETATM   15 CL   UNL     1     -10.419   9.140  66.486  1.00  0.00    -0.258 Cl 
ENDBRANCH  12  13
ENDBRANCH   4   6
ENDBRANCH   3   4
TORSDOF 3
ENDMDL
MODEL       96
REMARK 921   NORMALIZED FREE ENERGY PREDICTED BY IDOCK:   -3.31 KCAL/MOL
REMARK 922        TOTAL FREE ENERGY PREDICTED BY IDOCK:   -3.83 KCAL/MOL
REMARK 923 INTER-LIGAND FREE ENERGY PREDICTED BY IDOCK:   -3.58 KCAL/MOL
REMARK 924 INTRA-LIGAND FREE ENERGY PREDICTED BY IDOCK:   -0.25 KCAL/MOL
REMARK 927      BINDING AFFINITY PREDICTED BY RF-SCORE:    0.00 PKD
ROOT
HETATM    1 CL   UNL     1      -7.352  17.855  65.888  1.00  0.00    -0.295 Cl 
HETATM    2  C   UNL     1      -8.750  17.170  66.756  1.00  0.00    -0.244 C  
HETATM    3  C   UNL     1      -9.448  16.133  65.886  1.00  0.00    -0.302 C  
ENDROOT
BRANCH   3   4
HETATM    4  N   UNL     1     -10.335  15.287  66.656  1.00  0.00    -0.273 NA 
HETATM    5  H   UNL     1     -11.329  15.518  66.655  1.00  0.00     0.000 HD 
BRANCH   4   6
HETATM    6  P   UNL     1      -9.860  13.991  67.525  1.00  0.00    -0.245 P  
HETATM    7  O   UNL     1      -9.433  14.615  68.948  1.00  0.00    -0.207 OA 
HETATM    8  O   UNL     1      -8.769  13.165  66.923  1.00  0.00    -0.209 OA 
HETATM    9  C   UNL     1     -10.368  15.412  69.656  1.00  0.00    -0.277 C  
HETATM   10  C   UNL     1     -11.827  14.925  69.627  1.00  0.00    -0.356 C  
HETATM   11  C   UNL     1     -12.278  14.121  68.403  1.00  0.00    -0.164 C  
HETATM   12  N   UNL     1     -11.254  13.192  67.929  1.00  0.00    -0.256 NA 
BRANCH  12  13
HETATM   13  C   UNL     1     -11.067  12.054  68.867  1.00  0.00    -0.247 C  
HETATM   14  C   UNL     1     -10.964  10.678  68.192  1.00  0.00    -0.269 C  
HETATM   15 CL   UNL     1     -10.851   9.386  69.417  1.00  0.00    -0.229 Cl 
ENDBRANCH  12  13
ENDBRANCH   4   6
ENDBRANCH   3   4
TORSDOF 3
ENDMDL
MODEL       97
REMARK 921   NORMALIZED FREE ENERGY PREDICTED BY IDOCK:   -3.30 KCAL/MOL
REMARK 922        TOTAL FREE ENERGY PREDICTED BY IDOCK:   -3.81 KCAL/MOL
REMARK 923 INTER-LIGAND FREE ENERGY PREDICTED BY IDOCK:   -3.63 KCAL/MOL
REMARK 924 INTRA-LIGAND FREE ENERGY PREDICTED BY IDOCK:   -0.18 KCAL/MOL
REMARK 927      BINDING AFFINITY PREDICTED BY RF-SCORE:    0.00 PKD
ROOT
HETATM    1 CL   UNL     1      -9.285   1.898  72.176  1.00  0.00    -0.120 Cl 
HETATM    2  C   UNL     1      -9.554   3.356  71.186  1.00  0.00    -0.164 C  
HETATM    3  C   UNL     1     -10.402   4.361  71.956  1.00  0.00    -0.119 C  
ENDROOT
BRANCH   3   4
HETATM    4  N   UNL     1     -10.336   5.685  71.374  1.00  0.00    -0.220 NA 
HETATM    5  H   UNL     1      -9.645   5.847  70.641  1.00  0.00     0.000 HD 
BRANCH   4   6
HETATM    6  P   UNL     1     -11.288   6.937  71.807  1.00  0.00    -0.291 P  
HETATM    7  O   UNL     1     -10.918   7.186  73.356  1.00  0.00    -0.332 OA 
HETATM    8  O   UNL     1     -12.756   6.742  71.603  1.00  0.00    -0.366 OA 
HETATM    9  C   UNL     1      -9.563   7.405  73.711  1.00  0.00    -0.284 C  
HETATM   10  C   UNL     1      -8.748   8.287  72.748  1.00  0.00    -0.288 C  
HETATM   11  C   UNL     1      -9.164   8.293  71.274  1.00  0.00    -0.163 C  
HETATM   12  N   UNL     1     -10.615   8.272  71.096  1.00  0.00    -0.209 NA 
BRANCH  12  13
HETATM   13  C   UNL     1     -11.236   9.565  71.490  1.00  0.00    -0.367 C  
HETATM   14  C   UNL     1     -12.045  10.252  70.380  1.00  0.00    -0.286 C  
HETATM   15 CL   UNL     1     -12.648  11.837  70.935  1.00  0.00    -0.425 Cl 
ENDBRANCH  12  13
ENDBRANCH   4   6
ENDBRANCH   3   4
TORSDOF 3
ENDMDL
MODEL       98
REMARK 921   NORMALIZED FREE ENERGY PREDICTED BY IDOCK:   -3.30 KCAL/MOL
REMARK 922        TOTAL FREE ENERGY PREDICTED BY IDOCK:   -3.81 KCAL/MOL
REMARK 923 INTER-LIGAND FREE ENERGY PREDICTED BY IDOCK:   -3.56 KCAL/MOL
REMARK 924 INTRA-LIGAND FREE ENERGY PREDICTED BY IDOCK:   -0.25 KCAL/MOL
REMARK 927      BINDING AFFINITY PREDICTED BY RF-SCORE:    0.00 PKD
ROOT
HETATM    1 CL   UNL     1      -7.422   9.281  67.859  1.00  0.00    -0.084 Cl 
HETATM    2  C   UNL     1      -8.669  10.547  67.712  1.00  0.00    -0.122 C  
HETATM    3  C   UNL     1      -9.238  10.881  69.085  1.00  0.00    -0.060 C  
ENDROOT
BRANCH   3   4
HETATM    4  N   UNL     1      -9.960  12.136  69.083  1.00  0.00    -0.391 NA 
HETATM    5  H   UNL     1      -9.653  12.861  69.732  1.00  0.00     0.000 HD 
BRANCH   4   6
HETATM    6  P   UNL     1     -11.229  12.474  68.115  1.00  0.00    -0.317 P  
HETATM    7  O   UNL     1     -12.036  13.613  68.921  1.00  0.00    -0.347 OA 
HETATM    8  O   UNL     1     -12.101  11.316  67.753  1.00  0.00    -0.631 OA 
HETATM    9  C   UNL     1     -11.349  14.787  69.323  1.00  0.00    -0.294 C  
HETATM   10  C   UNL     1     -10.350  15.364  68.304  1.00  0.00    -0.238 C  
HETATM   11  C   UNL     1      -9.686  14.384  67.334  1.00  0.00    -0.220 C  
HETATM   12  N   UNL     1     -10.605  13.351  66.856  1.00  0.00    -0.271 NA 
BRANCH  12  13
HETATM   13  C   UNL     1     -11.621  13.908  65.925  1.00  0.00    -0.340 C  
HETATM   14  C   UNL     1     -11.040  14.645  64.709  1.00  0.00    -0.384 C  
HETATM   15 CL   UNL     1     -12.347  15.358  63.725  1.00  0.00     0.139 Cl 
ENDBRANCH  12  13
ENDBRANCH   4   6
ENDBRANCH   3   4
TORSDOF 3
ENDMDL
MODEL       99
REMARK 921   NORMALIZED FREE ENERGY PREDICTED BY IDOCK:   -3.30 KCAL/MOL
REMARK 922        TOTAL FREE ENERGY PREDICTED BY IDOCK:   -3.81 KCAL/MOL
REMARK 923 INTER-LIGAND FREE ENERGY PREDICTED BY IDOCK:   -3.68 KCAL/MOL
REMARK 924 INTRA-LIGAND FREE ENERGY PREDICTED BY IDOCK:   -0.13 KCAL/MOL
REMARK 927      BINDING AFFINITY PREDICTED BY RF-SCORE:    0.00 PKD
ROOT
HETATM    1 CL   UNL     1     -11.809  15.793  68.832  1.00  0.00    -0.398 Cl 
HETATM    2  C   UNL     1     -12.138  14.071  68.507  1.00  0.00    -0.294 C  
HETATM    3  C   UNL     1     -12.040  13.793  67.012  1.00  0.00    -0.397 C  
ENDROOT
BRANCH   3   4
HETATM    4  N   UNL     1     -11.921  12.379  66.730  1.00  0.00    -0.588 NA 
HETATM    5  H   UNL     1     -12.655  11.762  67.079  1.00  0.00     0.000 HD 
BRANCH   4   6
HETATM    6  P   UNL     1     -10.695  11.699  65.893  1.00  0.00    -0.260 P  
HETATM    7  O   UNL     1      -9.372  12.236  66.641  1.00  0.00    -0.218 OA 
HETATM    8  O   UNL     1     -10.669  11.986  64.427  1.00  0.00    -0.284 OA 
HETATM    9  C   UNL     1      -9.240  12.026  68.037  1.00  0.00    -0.192 C  
HETATM   10  C   UNL     1      -9.713  10.658  68.560  1.00  0.00    -0.177 C  
HETATM   11  C   UNL     1     -10.828   9.953  67.782  1.00  0.00    -0.264 C  
HETATM   12  N   UNL     1     -10.689  10.103  66.334  1.00  0.00    -0.072 NA 
BRANCH  12  13
HETATM   13  C   UNL     1      -9.541   9.318  65.807  1.00  0.00    -0.271 C  
HETATM   14  C   UNL     1      -9.482   7.863  66.295  1.00  0.00    -0.151 C  
HETATM   15 CL   UNL     1      -8.011   7.058  65.686  1.00  0.00    -0.115 Cl 
ENDBRANCH  12  13
ENDBRANCH   4   6
ENDBRANCH   3   4
TORSDOF 3
ENDMDL
MODEL      100
REMARK 921   NORMALIZED FREE ENERGY PREDICTED BY IDOCK:   -3.30 KCAL/MOL
REMARK 922        TOTAL FREE ENERGY PREDICTED BY IDOCK:   -3.81 KCAL/MOL
REMARK 923 INTER-LIGAND FREE ENERGY PREDICTED BY IDOCK:   -3.57 KCAL/MOL
REMARK 924 INTRA-LIGAND FREE ENERGY PREDICTED BY IDOCK:   -0.24 KCAL/MOL
REMARK 927      BINDING AFFINITY PREDICTED BY RF-SCORE:    0.00 PKD
ROOT
HETATM    1 CL   UNL     1     -10.749   8.687  69.706  1.00  0.00    -0.228 Cl 
HETATM    2  C   UNL     1      -9.919  10.251  69.494  1.00  0.00    -0.228 C  
HETATM    3  C   UNL     1     -10.922  11.322  69.083  1.00  0.00    -0.240 C  
ENDROOT
BRANCH   3   4
HETATM    4  N   UNL     1     -10.393  12.658  69.263  1.00  0.00    -0.389 NA 
HETATM    5  H   UNL     1     -10.520  13.099  70.175  1.00  0.00     0.000 HD 
BRANCH   4   6
HETATM    6  P   UNL     1      -9.608  13.508  68.113  1.00  0.00    -0.202 P  
HETATM    7  O   UNL     1     -10.775  13.940  67.088  1.00  0.00    -0.279 OA 
HETATM    8  O   UNL     1      -8.489  12.797  67.424  1.00  0.00    -0.172 OA 
HETATM    9  C   UNL     1     -11.903  14.640  67.587  1.00  0.00    -0.337 C  
HETATM   10  C   UNL     1     -11.613  15.711  68.653  1.00  0.00    -0.391 C  
HETATM   11  C   UNL     1     -10.384  15.505  69.544  1.00  0.00    -0.271 C  
HETATM   12  N   UNL     1      -9.239  14.964  68.812  1.00  0.00    -0.189 NA 
BRANCH  12  13
HETATM   13  C   UNL     1      -8.656  15.968  67.883  1.00  0.00    -0.164 C  
HETATM   14  C   UNL     1      -8.130  17.240  68.564  1.00  0.00    -0.262 C  
HETATM   15 CL   UNL     1      -7.555  18.410  67.345  1.00  0.00    -0.217 Cl 
ENDBRANCH  12  13
ENDBRANCH   4   6
ENDBRANCH   3   4
TORSDOF 3
ENDMDL
MODEL      101
REMARK 921   NORMALIZED FREE ENERGY PREDICTED BY IDOCK:   -3.29 KCAL/MOL
REMARK 922        TOTAL FREE ENERGY PREDICTED BY IDOCK:   -3.80 KCAL/MOL
REMARK 923 INTER-LIGAND FREE ENERGY PREDICTED BY IDOCK:   -3.76 KCAL/MOL
REMARK 924 INTRA-LIGAND FREE ENERGY PREDICTED BY IDOCK:   -0.04 KCAL/MOL
REMARK 927      BINDING AFFINITY PREDICTED BY RF-SCORE:    0.00 PKD
ROOT
HETATM    1 CL   UNL     1      -9.785  19.648  66.974  1.00  0.00    -0.440 Cl 
HETATM    2  C   UNL     1     -10.654  18.153  67.408  1.00  0.00    -0.388 C  
HETATM    3  C   UNL     1     -10.496  17.117  66.302  1.00  0.00    -0.260 C  
ENDROOT
BRANCH   3   4
HETATM    4  N   UNL     1     -10.846  15.786  66.751  1.00  0.00    -0.295 NA 
HETATM    5  H   UNL     1     -11.411  15.705  67.597  1.00  0.00     0.000 HD 
BRANCH   4   6
HETATM    6  P   UNL     1     -10.402  14.407  66.001  1.00  0.00    -0.339 P  
HETATM    7  O   UNL     1      -8.897  14.153  66.518  1.00  0.00    -0.173 OA 
HETATM    8  O   UNL     1     -10.491  14.417  64.509  1.00  0.00    -0.349 OA 
HETATM    9  C   UNL     1      -8.650  14.099  67.913  1.00  0.00    -0.178 C  
HETATM   10  C   UNL     1      -9.708  13.364  68.756  1.00  0.00     0.002 C  
HETATM   11  C   UNL     1     -11.147  13.357  68.233  1.00  0.00    -0.262 C  
HETATM   12  N   UNL     1     -11.220  13.196  66.781  1.00  0.00    -0.289 NA 
BRANCH  12  13
HETATM   13  C   UNL     1     -10.840  11.821  66.361  1.00  0.00    -0.282 C  
HETATM   14  C   UNL     1     -11.216  10.718  67.362  1.00  0.00    -0.241 C  
HETATM   15 CL   UNL     1     -10.617   9.133  66.802  1.00  0.00    -0.261 Cl 
ENDBRANCH  12  13
ENDBRANCH   4   6
ENDBRANCH   3   4
TORSDOF 3
ENDMDL
MODEL      102
REMARK 921   NORMALIZED FREE ENERGY PREDICTED BY IDOCK:   -3.29 KCAL/MOL
REMARK 922        TOTAL FREE ENERGY PREDICTED BY IDOCK:   -3.80 KCAL/MOL
REMARK 923 INTER-LIGAND FREE ENERGY PREDICTED BY IDOCK:   -3.60 KCAL/MOL
REMARK 924 INTRA-LIGAND FREE ENERGY PREDICTED BY IDOCK:   -0.20 KCAL/MOL
REMARK 927      BINDING AFFINITY PREDICTED BY RF-SCORE:    0.00 PKD
ROOT
HETATM    1 CL   UNL     1     -10.063  10.809  65.351  1.00  0.00    -0.328 Cl 
HETATM    2  C   UNL     1     -10.850  10.419  66.902  1.00  0.00    -0.161 C  
HETATM    3  C   UNL     1     -10.638   8.949  67.240  1.00  0.00    -0.234 C  
ENDROOT
BRANCH   3   4
HETATM    4  N   UNL     1     -10.916   8.666  68.632  1.00  0.00    -0.439 NA 
HETATM    5  H   UNL     1     -11.414   9.376  69.169  1.00  0.00     0.000 HD 
BRANCH   4   6
HETATM    6  P   UNL     1     -10.488   7.294  69.404  1.00  0.00    -0.208 P  
HETATM    7  O   UNL     1      -8.884   7.400  69.521  1.00  0.00    -0.137 OA 
HETATM    8  O   UNL     1     -10.923   6.019  68.757  1.00  0.00    -0.317 OA 
HETATM    9  C   UNL     1      -8.315   8.547  70.129  1.00  0.00    -0.123 C  
HETATM   10  C   UNL     1      -9.045   9.083  71.373  1.00  0.00    -0.271 C  
HETATM   11  C   UNL     1     -10.554   8.838  71.465  1.00  0.00    -0.309 C  
HETATM   12  N   UNL     1     -10.942   7.513  70.982  1.00  0.00    -0.247 NA 
BRANCH  12  13
HETATM   13  C   UNL     1     -10.500   6.438  71.909  1.00  0.00    -0.209 C  
HETATM   14  C   UNL     1     -11.638   5.732  72.660  1.00  0.00    -0.253 C  
HETATM   15 CL   UNL     1     -10.982   4.543  73.817  1.00  0.00    -0.363 Cl 
ENDBRANCH  12  13
ENDBRANCH   4   6
ENDBRANCH   3   4
TORSDOF 3
ENDMDL
MODEL      103
REMARK 921   NORMALIZED FREE ENERGY PREDICTED BY IDOCK:   -3.28 KCAL/MOL
REMARK 922        TOTAL FREE ENERGY PREDICTED BY IDOCK:   -3.79 KCAL/MOL
REMARK 923 INTER-LIGAND FREE ENERGY PREDICTED BY IDOCK:   -3.73 KCAL/MOL
REMARK 924 INTRA-LIGAND FREE ENERGY PREDICTED BY IDOCK:   -0.06 KCAL/MOL
REMARK 927      BINDING AFFINITY PREDICTED BY RF-SCORE:    0.00 PKD
ROOT
HETATM    1 CL   UNL     1     -11.438  11.766  66.578  1.00  0.00    -0.377 Cl 
HETATM    2  C   UNL     1     -10.028  12.266  67.548  1.00  0.00    -0.199 C  
HETATM    3  C   UNL     1      -9.349  13.467  66.902  1.00  0.00    -0.253 C  
ENDROOT
BRANCH   3   4
HETATM    4  N   UNL     1      -8.452  14.140  67.817  1.00  0.00    -0.165 NA 
HETATM    5  H   UNL     1      -7.559  13.691  68.022  1.00  0.00     0.000 HD 
BRANCH   4   6
HETATM    6  P   UNL     1      -8.767  15.566  68.545  1.00  0.00    -0.209 P  
HETATM    7  O   UNL     1      -7.320  16.076  69.038  1.00  0.00    -0.164 OA 
HETATM    8  O   UNL     1      -9.760  15.525  69.660  1.00  0.00    -0.270 OA 
HETATM    9  C   UNL     1      -6.271  16.186  68.091  1.00  0.00    -0.117 C  
HETATM   10  C   UNL     1      -6.665  16.742  66.711  1.00  0.00    -0.257 C  
HETATM   11  C   UNL     1      -8.102  16.500  66.238  1.00  0.00    -0.306 C  
HETATM   12  N   UNL     1      -9.081  16.631  67.315  1.00  0.00    -0.213 NA 
BRANCH  12  13
HETATM   13  C   UNL     1      -9.240  18.045  67.745  1.00  0.00    -0.262 C  
HETATM   14  C   UNL     1      -9.744  18.996  66.648  1.00  0.00    -0.341 C  
HETATM   15 CL   UNL     1      -9.791  20.675  67.249  1.00  0.00    -0.600 Cl 
ENDBRANCH  12  13
ENDBRANCH   4   6
ENDBRANCH   3   4
TORSDOF 3
ENDMDL
MODEL      104
REMARK 921   NORMALIZED FREE ENERGY PREDICTED BY IDOCK:   -3.26 KCAL/MOL
REMARK 922        TOTAL FREE ENERGY PREDICTED BY IDOCK:   -3.77 KCAL/MOL
REMARK 923 INTER-LIGAND FREE ENERGY PREDICTED BY IDOCK:   -3.57 KCAL/MOL
REMARK 924 INTRA-LIGAND FREE ENERGY PREDICTED BY IDOCK:   -0.20 KCAL/MOL
REMARK 927      BINDING AFFINITY PREDICTED BY RF-SCORE:    0.00 PKD
ROOT
HETATM    1 CL   UNL     1      -9.637   7.076  69.000  1.00  0.00    -0.142 Cl 
HETATM    2  C   UNL     1     -10.261   8.170  67.739  1.00  0.00    -0.228 C  
HETATM    3  C   UNL     1     -10.292   9.602  68.259  1.00  0.00    -0.204 C  
ENDROOT
BRANCH   3   4
HETATM    4  N   UNL     1     -10.423  10.566  67.186  1.00  0.00    -0.235 NA 
HETATM    5  H   UNL     1     -11.034  10.327  66.405  1.00  0.00     0.000 HD 
BRANCH   4   6
HETATM    6  P   UNL     1      -9.661  12.008  67.137  1.00  0.00    -0.203 P  
HETATM    7  O   UNL     1      -9.556  12.336  65.562  1.00  0.00    -0.205 OA 
HETATM    8  O   UNL     1      -8.331  12.067  67.815  1.00  0.00    -0.139 OA 
HETATM    9  C   UNL     1     -10.739  12.335  64.781  1.00  0.00    -0.300 C  
HETATM   10  C   UNL     1     -11.983  12.954  65.442  1.00  0.00    -0.470 C  
HETATM   11  C   UNL     1     -12.075  12.891  66.969  1.00  0.00    -0.230 C  
HETATM   12  N   UNL     1     -10.788  13.121  67.623  1.00  0.00    -0.250 NA 
BRANCH  12  13
HETATM   13  C   UNL     1     -10.353  14.538  67.500  1.00  0.00    -0.244 C  
HETATM   14  C   UNL     1     -11.294  15.556  68.162  1.00  0.00    -0.345 C  
HETATM   15 CL   UNL     1     -10.728  17.221  67.857  1.00  0.00    -0.375 Cl 
ENDBRANCH  12  13
ENDBRANCH   4   6
ENDBRANCH   3   4
TORSDOF 3
ENDMDL
MODEL      105
REMARK 921   NORMALIZED FREE ENERGY PREDICTED BY IDOCK:   -3.26 KCAL/MOL
REMARK 922        TOTAL FREE ENERGY PREDICTED BY IDOCK:   -3.76 KCAL/MOL
REMARK 923 INTER-LIGAND FREE ENERGY PREDICTED BY IDOCK:   -3.57 KCAL/MOL
REMARK 924 INTRA-LIGAND FREE ENERGY PREDICTED BY IDOCK:   -0.19 KCAL/MOL
REMARK 927      BINDING AFFINITY PREDICTED BY RF-SCORE:    0.00 PKD
ROOT
HETATM    1 CL   UNL     1     -14.066   8.798  72.606  1.00  0.00    -0.418 Cl 
HETATM    2  C   UNL     1     -12.668   8.323  71.606  1.00  0.00    -0.327 C  
HETATM    3  C   UNL     1     -11.507   7.903  72.498  1.00  0.00    -0.398 C  
ENDROOT
BRANCH   3   4
HETATM    4  N   UNL     1     -10.502   7.161  71.766  1.00  0.00    -0.198 NA 
HETATM    5  H   UNL     1     -10.303   6.207  72.068  1.00  0.00     0.000 HD 
BRANCH   4   6
HETATM    6  P   UNL     1      -9.664   7.743  70.493  1.00  0.00    -0.173 P  
HETATM    7  O   UNL     1      -8.425   6.723  70.347  1.00  0.00    -0.132 OA 
HETATM    8  O   UNL     1      -9.213   9.164  70.602  1.00  0.00    -0.216 OA 
HETATM    9  C   UNL     1      -8.690   5.336  70.216  1.00  0.00    -0.122 C  
HETATM   10  C   UNL     1      -9.887   4.960  69.325  1.00  0.00    -0.272 C  
HETATM   11  C   UNL     1     -11.032   5.971  69.219  1.00  0.00    -0.366 C  
HETATM   12  N   UNL     1     -10.561   7.354  69.156  1.00  0.00    -0.218 NA 
BRANCH  12  13
HETATM   13  C   UNL     1      -9.901   7.652  67.858  1.00  0.00    -0.157 C  
HETATM   14  C   UNL     1     -10.414   8.917  67.154  1.00  0.00    -0.274 C  
HETATM   15 CL   UNL     1      -9.628   9.110  65.563  1.00  0.00    -0.301 Cl 
ENDBRANCH  12  13
ENDBRANCH   4   6
ENDBRANCH   3   4
TORSDOF 3
ENDMDL
MODEL      106
REMARK 921   NORMALIZED FREE ENERGY PREDICTED BY IDOCK:   -3.25 KCAL/MOL
REMARK 922        TOTAL FREE ENERGY PREDICTED BY IDOCK:   -3.76 KCAL/MOL
REMARK 923 INTER-LIGAND FREE ENERGY PREDICTED BY IDOCK:   -3.56 KCAL/MOL
REMARK 924 INTRA-LIGAND FREE ENERGY PREDICTED BY IDOCK:   -0.20 KCAL/MOL
REMARK 927      BINDING AFFINITY PREDICTED BY RF-SCORE:    0.00 PKD
ROOT
HETATM    1 CL   UNL     1     -12.610  14.490  64.815  1.00  0.00    -0.339 Cl 
HETATM    2  C   UNL     1     -11.911  13.520  66.136  1.00  0.00    -0.389 C  
HETATM    3  C   UNL     1     -11.311  12.235  65.579  1.00  0.00    -0.349 C  
ENDROOT
BRANCH   3   4
HETATM    4  N   UNL     1     -10.413  11.602  66.522  1.00  0.00    -0.230 NA 
HETATM    5  H   UNL     1      -9.417  11.810  66.442  1.00  0.00     0.000 HD 
BRANCH   4   6
HETATM    6  P   UNL     1     -10.880  10.580  67.705  1.00  0.00    -0.315 P  
HETATM    7  O   UNL     1     -10.861   9.133  66.996  1.00  0.00    -0.182 OA 
HETATM    8  O   UNL     1     -12.199  10.878  68.342  1.00  0.00    -0.540 OA 
HETATM    9  C   UNL     1      -9.672   8.696  66.359  1.00  0.00    -0.263 C  
HETATM   10  C   UNL     1      -8.357   9.026  67.088  1.00  0.00    -0.110 C  
HETATM   11  C   UNL     1      -8.337  10.274  67.975  1.00  0.00    -0.114 C  
HETATM   12  N   UNL     1      -9.579  10.456  68.724  1.00  0.00    -0.169 NA 
BRANCH  12  13
HETATM   13  C   UNL     1      -9.728   9.441  69.799  1.00  0.00    -0.199 C  
HETATM   14  C   UNL     1      -8.510   9.306  70.726  1.00  0.00    -0.195 C  
HETATM   15 CL   UNL     1      -8.762   7.989  71.903  1.00  0.00    -0.164 Cl 
ENDBRANCH  12  13
ENDBRANCH   4   6
ENDBRANCH   3   4
TORSDOF 3
ENDMDL
MODEL      107
REMARK 921   NORMALIZED FREE ENERGY PREDICTED BY IDOCK:   -3.25 KCAL/MOL
REMARK 922        TOTAL FREE ENERGY PREDICTED BY IDOCK:   -3.75 KCAL/MOL
REMARK 923 INTER-LIGAND FREE ENERGY PREDICTED BY IDOCK:   -3.53 KCAL/MOL
REMARK 924 INTRA-LIGAND FREE ENERGY PREDICTED BY IDOCK:   -0.23 KCAL/MOL
REMARK 927      BINDING AFFINITY PREDICTED BY RF-SCORE:    0.00 PKD
ROOT
HETATM    1 CL   UNL     1     -10.477  12.913  63.976  1.00  0.00    -0.430 Cl 
HETATM    2  C   UNL     1     -10.616  11.157  64.251  1.00  0.00    -0.357 C  
HETATM    3  C   UNL     1      -9.371  10.640  64.961  1.00  0.00    -0.217 C  
ENDROOT
BRANCH   3   4
HETATM    4  N   UNL     1      -9.581   9.330  65.541  1.00  0.00    -0.409 NA 
HETATM    5  H   UNL     1      -9.359   8.516  64.967  1.00  0.00     0.000 HD 
BRANCH   4   6
HETATM    6  P   UNL     1     -10.149   9.062  67.047  1.00  0.00    -0.272 P  
HETATM    7  O   UNL     1     -10.799   7.590  66.958  1.00  0.00    -0.348 OA 
HETATM    8  O   UNL     1     -11.117  10.075  67.570  1.00  0.00    -0.274 OA 
HETATM    9  C   UNL     1     -10.001   6.514  66.495  1.00  0.00    -0.092 C  
HETATM   10  C   UNL     1      -8.541   6.499  66.984  1.00  0.00    -0.113 C  
HETATM   11  C   UNL     1      -7.894   7.847  67.312  1.00  0.00    -0.113 C  
HETATM   12  N   UNL     1      -8.812   8.769  67.979  1.00  0.00    -0.140 NA 
BRANCH  12  13
HETATM   13  C   UNL     1      -9.109   8.338  69.371  1.00  0.00    -0.154 C  
HETATM   14  C   UNL     1      -9.029   9.458  70.419  1.00  0.00    -0.250 C  
HETATM   15 CL   UNL     1      -9.297   8.804  72.057  1.00  0.00    -0.359 Cl 
ENDBRANCH  12  13
ENDBRANCH   4   6
ENDBRANCH   3   4
TORSDOF 3
ENDMDL
MODEL      108
REMARK 921   NORMALIZED FREE ENERGY PREDICTED BY IDOCK:   -3.24 KCAL/MOL
REMARK 922        TOTAL FREE ENERGY PREDICTED BY IDOCK:   -3.74 KCAL/MOL
REMARK 923 INTER-LIGAND FREE ENERGY PREDICTED BY IDOCK:   -3.56 KCAL/MOL
REMARK 924 INTRA-LIGAND FREE ENERGY PREDICTED BY IDOCK:   -0.18 KCAL/MOL
REMARK 927      BINDING AFFINITY PREDICTED BY RF-SCORE:    0.00 PKD
ROOT
HETATM    1 CL   UNL     1     -12.700  13.760  65.378  1.00  0.00    -0.536 Cl 
HETATM    2  C   UNL     1     -11.978  12.727  66.639  1.00  0.00    -0.341 C  
HETATM    3  C   UNL     1     -11.000  11.742  66.010  1.00  0.00    -0.306 C  
ENDROOT
BRANCH   3   4
HETATM    4  N   UNL     1     -10.119  11.150  66.993  1.00  0.00    -0.195 NA 
HETATM    5  H   UNL     1      -9.795  11.743  67.759  1.00  0.00     0.000 HD 
BRANCH   4   6
HETATM    6  P   UNL     1      -9.604   9.602  66.966  1.00  0.00    -0.193 P  
HETATM    7  O   UNL     1      -8.203   9.646  67.762  1.00  0.00    -0.112 OA 
HETATM    8  O   UNL     1      -9.465   8.984  65.613  1.00  0.00    -0.244 OA 
HETATM    9  C   UNL     1      -8.174  10.190  69.071  1.00  0.00    -0.132 C  
HETATM   10  C   UNL     1      -9.368   9.834  69.975  1.00  0.00    -0.274 C  
HETATM   11  C   UNL     1     -10.709   9.553  69.293  1.00  0.00    -0.222 C  
HETATM   12  N   UNL     1     -10.565   8.797  68.050  1.00  0.00    -0.197 NA 
BRANCH  12  13
HETATM   13  C   UNL     1     -10.164   7.388  68.307  1.00  0.00    -0.183 C  
HETATM   14  C   UNL     1     -10.988   6.675  69.389  1.00  0.00    -0.309 C  
HETATM   15 CL   UNL     1     -10.349   5.035  69.684  1.00  0.00    -0.316 Cl 
ENDBRANCH  12  13
ENDBRANCH   4   6
ENDBRANCH   3   4
TORSDOF 3
ENDMDL
MODEL      109
REMARK 921   NORMALIZED FREE ENERGY PREDICTED BY IDOCK:   -3.23 KCAL/MOL
REMARK 922        TOTAL FREE ENERGY PREDICTED BY IDOCK:   -3.73 KCAL/MOL
REMARK 923 INTER-LIGAND FREE ENERGY PREDICTED BY IDOCK:   -3.46 KCAL/MOL
REMARK 924 INTRA-LIGAND FREE ENERGY PREDICTED BY IDOCK:   -0.27 KCAL/MOL
REMARK 927      BINDING AFFINITY PREDICTED BY RF-SCORE:    0.00 PKD
ROOT
HETATM    1 CL   UNL     1     -11.317   4.976  73.045  1.00  0.00    -0.380 Cl 
HETATM    2  C   UNL     1     -10.782   5.654  71.486  1.00  0.00    -0.242 C  
HETATM    3  C   UNL     1     -11.897   6.493  70.872  1.00  0.00    -0.331 C  
ENDROOT
BRANCH   3   4
HETATM    4  N   UNL     1     -11.407   7.361  69.822  1.00  0.00    -0.469 NA 
HETATM    5  H   UNL     1     -11.491   7.034  68.859  1.00  0.00     0.000 HD 
BRANCH   4   6
HETATM    6  P   UNL     1     -10.730   8.825  70.068  1.00  0.00    -0.196 P  
HETATM    7  O   UNL     1      -9.156   8.504  70.210  1.00  0.00    -0.146 OA 
HETATM    8  O   UNL     1     -11.254   9.599  71.234  1.00  0.00    -0.346 OA 
HETATM    9  C   UNL     1      -8.506   7.788  69.174  1.00  0.00    -0.138 C  
HETATM   10  C   UNL     1      -8.916   8.159  67.738  1.00  0.00    -0.134 C  
HETATM   11  C   UNL     1     -10.337   8.690  67.526  1.00  0.00    -0.269 C  
HETATM   12  N   UNL     1     -10.772   9.585  68.597  1.00  0.00    -0.210 NA 
BRANCH  12  13
HETATM   13  C   UNL     1     -10.055  10.887  68.551  1.00  0.00    -0.183 C  
HETATM   14  C   UNL     1     -10.307  11.713  67.281  1.00  0.00    -0.204 C  
HETATM   15 CL   UNL     1      -9.314  13.196  67.291  1.00  0.00    -0.216 Cl 
ENDBRANCH  12  13
ENDBRANCH   4   6
ENDBRANCH   3   4
TORSDOF 3
ENDMDL
MODEL      110
REMARK 921   NORMALIZED FREE ENERGY PREDICTED BY IDOCK:   -3.21 KCAL/MOL
REMARK 922        TOTAL FREE ENERGY PREDICTED BY IDOCK:   -3.71 KCAL/MOL
REMARK 923 INTER-LIGAND FREE ENERGY PREDICTED BY IDOCK:   -3.55 KCAL/MOL
REMARK 924 INTRA-LIGAND FREE ENERGY PREDICTED BY IDOCK:   -0.16 KCAL/MOL
REMARK 927      BINDING AFFINITY PREDICTED BY RF-SCORE:    0.00 PKD
ROOT
HETATM    1 CL   UNL     1     -10.489   8.935  71.940  1.00  0.00    -0.417 Cl 
HETATM    2  C   UNL     1      -9.363   9.101  70.569  1.00  0.00    -0.240 C  
HETATM    3  C   UNL     1     -10.063   9.782  69.398  1.00  0.00    -0.209 C  
ENDROOT
BRANCH   3   4
HETATM    4  N   UNL     1      -9.120  10.279  68.418  1.00  0.00    -0.132 NA 
HETATM    5  H   UNL     1      -8.244   9.769  68.301  1.00  0.00     0.000 HD 
BRANCH   4   6
HETATM    6  P   UNL     1      -9.359  11.597  67.487  1.00  0.00    -0.176 P  
HETATM    7  O   UNL     1      -8.017  11.692  66.599  1.00  0.00    -0.155 OA 
HETATM    8  O   UNL     1      -9.642  12.870  68.217  1.00  0.00    -0.218 OA 
HETATM    9  C   UNL     1      -7.622  10.567  65.832  1.00  0.00    -0.148 C  
HETATM   10  C   UNL     1      -8.755   9.799  65.129  1.00  0.00    -0.192 C  
HETATM   11  C   UNL     1     -10.139   9.830  65.782  1.00  0.00    -0.238 C  
HETATM   12  N   UNL     1     -10.469  11.139  66.346  1.00  0.00    -0.252 NA 
BRANCH  12  13
HETATM   13  C   UNL     1     -10.718  12.148  65.283  1.00  0.00    -0.288 C  
HETATM   14  C   UNL     1     -12.200  12.483  65.053  1.00  0.00    -0.456 C  
HETATM   15 CL   UNL     1     -12.380  13.619  63.688  1.00  0.00    -0.428 Cl 
ENDBRANCH  12  13
ENDBRANCH   4   6
ENDBRANCH   3   4
TORSDOF 3
ENDMDL
MODEL      111
REMARK 921   NORMALIZED FREE ENERGY PREDICTED BY IDOCK:   -3.19 KCAL/MOL
REMARK 922        TOTAL FREE ENERGY PREDICTED BY IDOCK:   -3.68 KCAL/MOL
REMARK 923 INTER-LIGAND FREE ENERGY PREDICTED BY IDOCK:   -3.45 KCAL/MOL
REMARK 924 INTRA-LIGAND FREE ENERGY PREDICTED BY IDOCK:   -0.24 KCAL/MOL
REMARK 927      BINDING AFFINITY PREDICTED BY RF-SCORE:    0.00 PKD
ROOT
HETATM    1 CL   UNL     1      -6.886   4.498  72.358  1.00  0.00    -0.050 Cl 
HETATM    2  C   UNL     1      -8.141   5.574  71.692  1.00  0.00    -0.118 C  
HETATM    3  C   UNL     1      -9.503   5.209  72.269  1.00  0.00    -0.138 C  
ENDROOT
BRANCH   3   4
HETATM    4  N   UNL     1     -10.477   6.261  72.068  1.00  0.00    -0.203 NA 
HETATM    5  H   UNL     1     -10.836   6.739  72.895  1.00  0.00     0.000 HD 
BRANCH   4   6
HETATM    6  P   UNL     1     -11.042   6.737  70.614  1.00  0.00    -0.335 P  
HETATM    7  O   UNL     1     -12.612   6.992  70.873  1.00  0.00    -0.353 OA 
HETATM    8  O   UNL     1     -10.804   5.793  69.480  1.00  0.00    -0.325 OA 
HETATM    9  C   UNL     1     -13.001   7.880  71.908  1.00  0.00    -0.298 C  
HETATM   10  C   UNL     1     -12.153   9.155  72.056  1.00  0.00    -0.431 C  
HETATM   11  C   UNL     1     -10.686   9.080  71.624  1.00  0.00    -0.371 C  
HETATM   12  N   UNL     1     -10.493   8.287  70.411  1.00  0.00    -0.210 NA 
BRANCH  12  13
HETATM   13  C   UNL     1     -11.028   8.982  69.210  1.00  0.00    -0.032 C  
HETATM   14  C   UNL     1     -10.546  10.430  69.040  1.00  0.00    -0.221 C  
HETATM   15 CL   UNL     1     -11.334  11.191  67.632  1.00  0.00    -0.360 Cl 
ENDBRANCH  12  13
ENDBRANCH   4   6
ENDBRANCH   3   4
TORSDOF 3
ENDMDL
MODEL      112
REMARK 921   NORMALIZED FREE ENERGY PREDICTED BY IDOCK:   -3.19 KCAL/MOL
REMARK 922        TOTAL FREE ENERGY PREDICTED BY IDOCK:   -3.68 KCAL/MOL
REMARK 923 INTER-LIGAND FREE ENERGY PREDICTED BY IDOCK:   -3.69 KCAL/MOL
REMARK 924 INTRA-LIGAND FREE ENERGY PREDICTED BY IDOCK:    0.01 KCAL/MOL
REMARK 927      BINDING AFFINITY PREDICTED BY RF-SCORE:    0.00 PKD
ROOT
HETATM    1 CL   UNL     1      -5.225  11.953  69.091  1.00  0.00    -0.051 Cl 
HETATM    2  C   UNL     1      -6.521  13.150  68.838  1.00  0.00    -0.097 C  
HETATM    3  C   UNL     1      -7.809  12.447  68.426  1.00  0.00    -0.142 C  
ENDROOT
BRANCH   3   4
HETATM    4  N   UNL     1      -8.966  13.304  68.575  1.00  0.00    -0.347 NA 
HETATM    5  H   UNL     1      -9.666  13.040  69.268  1.00  0.00     0.000 HD 
BRANCH   4   6
HETATM    6  P   UNL     1      -9.230  14.664  67.712  1.00  0.00    -0.209 P  
HETATM    7  O   UNL     1     -10.059  14.153  66.428  1.00  0.00    -0.276 OA 
HETATM    8  O   UNL     1      -8.012  15.438  67.324  1.00  0.00    -0.167 OA 
HETATM    9  C   UNL     1     -11.253  13.415  66.632  1.00  0.00    -0.309 C  
HETATM   10  C   UNL     1     -12.158  13.901  67.778  1.00  0.00    -0.328 C  
HETATM   11  C   UNL     1     -11.484  14.607  68.958  1.00  0.00    -0.291 C  
HETATM   12  N   UNL     1     -10.399  15.495  68.541  1.00  0.00    -0.222 NA 
BRANCH  12  13
HETATM   13  C   UNL     1     -10.914  16.703  67.844  1.00  0.00    -0.276 C  
HETATM   14  C   UNL     1     -10.117  17.987  68.116  1.00  0.00    -0.372 C  
HETATM   15 CL   UNL     1     -10.888  19.384  67.316  1.00  0.00    -0.599 Cl 
ENDBRANCH  12  13
ENDBRANCH   4   6
ENDBRANCH   3   4
TORSDOF 3
ENDMDL
MODEL      113
REMARK 921   NORMALIZED FREE ENERGY PREDICTED BY IDOCK:   -3.18 KCAL/MOL
REMARK 922        TOTAL FREE ENERGY PREDICTED BY IDOCK:   -3.67 KCAL/MOL
REMARK 923 INTER-LIGAND FREE ENERGY PREDICTED BY IDOCK:   -3.72 KCAL/MOL
REMARK 924 INTRA-LIGAND FREE ENERGY PREDICTED BY IDOCK:    0.05 KCAL/MOL
REMARK 927      BINDING AFFINITY PREDICTED BY RF-SCORE:    0.00 PKD
ROOT
HETATM    1 CL   UNL     1     -10.029  20.926  66.992  1.00  0.00    -0.309 Cl 
HETATM    2  C   UNL     1     -10.411  19.207  66.716  1.00  0.00    -0.436 C  
HETATM    3  C   UNL     1     -10.414  18.453  68.040  1.00  0.00    -0.363 C  
ENDROOT
BRANCH   3   4
HETATM    4  N   UNL     1     -11.075  17.170  67.932  1.00  0.00    -0.204 NA 
HETATM    5  H   UNL     1     -11.999  17.147  67.500  1.00  0.00     0.000 HD 
BRANCH   4   6
HETATM    6  P   UNL     1     -10.449  15.756  68.453  1.00  0.00    -0.266 P  
HETATM    7  O   UNL     1     -11.297  14.641  67.657  1.00  0.00    -0.307 OA 
HETATM    8  O   UNL     1     -10.475  15.535  69.931  1.00  0.00    -0.279 OA 
HETATM    9  C   UNL     1     -11.355  14.703  66.241  1.00  0.00    -0.347 C  
HETATM   10  C   UNL     1     -10.045  15.084  65.529  1.00  0.00    -0.400 C  
HETATM   11  C   UNL     1      -9.059  15.971  66.294  1.00  0.00    -0.344 C  
HETATM   12  N   UNL     1      -8.972  15.627  67.713  1.00  0.00    -0.176 NA 
BRANCH  12  13
HETATM   13  C   UNL     1      -8.286  14.325  67.922  1.00  0.00    -0.156 C  
HETATM   14  C   UNL     1      -7.486  14.225  69.230  1.00  0.00    -0.022 C  
HETATM   15 CL   UNL     1      -6.623  12.665  69.319  1.00  0.00    -0.108 Cl 
ENDBRANCH  12  13
ENDBRANCH   4   6
ENDBRANCH   3   4
TORSDOF 3
ENDMDL
MODEL      114
REMARK 921   NORMALIZED FREE ENERGY PREDICTED BY IDOCK:   -3.17 KCAL/MOL
REMARK 922        TOTAL FREE ENERGY PREDICTED BY IDOCK:   -3.66 KCAL/MOL
REMARK 923 INTER-LIGAND FREE ENERGY PREDICTED BY IDOCK:   -3.52 KCAL/MOL
REMARK 924 INTRA-LIGAND FREE ENERGY PREDICTED BY IDOCK:   -0.14 KCAL/MOL
REMARK 927      BINDING AFFINITY PREDICTED BY RF-SCORE:    0.00 PKD
ROOT
HETATM    1 CL   UNL     1     -12.226  11.195  69.145  1.00  0.00    -0.342 Cl 
HETATM    2  C   UNL     1     -11.768  10.748  70.809  1.00  0.00    -0.298 C  
HETATM    3  C   UNL     1     -11.784   9.232  70.965  1.00  0.00    -0.311 C  
ENDROOT
BRANCH   3   4
HETATM    4  N   UNL     1     -11.070   8.801  72.149  1.00  0.00    -0.363 NA 
HETATM    5  H   UNL     1     -11.549   8.881  73.047  1.00  0.00     0.000 HD 
BRANCH   4   6
HETATM    6  P   UNL     1      -9.554   8.198  72.149  1.00  0.00    -0.300 P  
HETATM    7  O   UNL     1      -9.360   7.643  73.650  1.00  0.00    -0.252 OA 
HETATM    8  O   UNL     1      -8.472   9.150  71.757  1.00  0.00    -0.340 OA 
HETATM    9  C   UNL     1     -10.300   6.714  74.165  1.00  0.00    -0.321 C  
HETATM   10  C   UNL     1     -10.787   5.634  73.184  1.00  0.00    -0.321 C  
HETATM   11  C   UNL     1     -10.801   5.990  71.694  1.00  0.00    -0.260 C  
HETATM   12  N   UNL     1      -9.641   6.783  71.292  1.00  0.00    -0.169 NA 
BRANCH  12  13
HETATM   13  C   UNL     1      -8.392   5.976  71.300  1.00  0.00    -0.124 C  
HETATM   14  C   UNL     1      -8.418   4.746  70.380  1.00  0.00    -0.090 C  
HETATM   15 CL   UNL     1      -6.915   3.801  70.556  1.00  0.00    -0.033 Cl 
ENDBRANCH  12  13
ENDBRANCH   4   6
ENDBRANCH   3   4
TORSDOF 3
ENDMDL
MODEL      115
REMARK 921   NORMALIZED FREE ENERGY PREDICTED BY IDOCK:   -3.17 KCAL/MOL
REMARK 922        TOTAL FREE ENERGY PREDICTED BY IDOCK:   -3.66 KCAL/MOL
REMARK 923 INTER-LIGAND FREE ENERGY PREDICTED BY IDOCK:   -3.47 KCAL/MOL
REMARK 924 INTRA-LIGAND FREE ENERGY PREDICTED BY IDOCK:   -0.18 KCAL/MOL
REMARK 927      BINDING AFFINITY PREDICTED BY RF-SCORE:    0.00 PKD
ROOT
HETATM    1 CL   UNL     1     -10.127  17.282  68.745  1.00  0.00    -0.320 Cl 
HETATM    2  C   UNL     1      -9.963  15.570  69.216  1.00  0.00    -0.264 C  
HETATM    3  C   UNL     1     -10.540  14.672  68.128  1.00  0.00    -0.237 C  
ENDROOT
BRANCH   3   4
HETATM    4  N   UNL     1     -10.103  13.299  68.271  1.00  0.00    -0.247 NA 
HETATM    5  H   UNL     1      -9.383  13.100  68.966  1.00  0.00     0.000 HD 
BRANCH   4   6
HETATM    6  P   UNL     1     -10.682  12.047  67.400  1.00  0.00    -0.252 P  
HETATM    7  O   UNL     1      -9.577  11.835  66.246  1.00  0.00    -0.214 OA 
HETATM    8  O   UNL     1     -12.056  12.221  66.838  1.00  0.00    -0.583 OA 
HETATM    9  C   UNL     1      -8.223  11.639  66.620  1.00  0.00    -0.140 C  
HETATM   10  C   UNL     1      -7.986  10.745  67.850  1.00  0.00    -0.110 C  
HETATM   11  C   UNL     1      -9.088  10.703  68.913  1.00  0.00    -0.176 C  
HETATM   12  N   UNL     1     -10.431  10.703  68.336  1.00  0.00    -0.177 NA 
BRANCH  12  13
HETATM   13  C   UNL     1     -10.742   9.413  67.664  1.00  0.00    -0.230 C  
HETATM   14  C   UNL     1     -10.532   8.169  68.540  1.00  0.00    -0.162 C  
HETATM   15 CL   UNL     1     -10.832   6.683  67.598  1.00  0.00    -0.360 Cl 
ENDBRANCH  12  13
ENDBRANCH   4   6
ENDBRANCH   3   4
TORSDOF 3
ENDMDL
MODEL      116
REMARK 921   NORMALIZED FREE ENERGY PREDICTED BY IDOCK:   -3.16 KCAL/MOL
REMARK 922        TOTAL FREE ENERGY PREDICTED BY IDOCK:   -3.65 KCAL/MOL
REMARK 923 INTER-LIGAND FREE ENERGY PREDICTED BY IDOCK:   -3.44 KCAL/MOL
REMARK 924 INTRA-LIGAND FREE ENERGY PREDICTED BY IDOCK:   -0.21 KCAL/MOL
REMARK 927      BINDING AFFINITY PREDICTED BY RF-SCORE:    0.00 PKD
ROOT
HETATM    1 CL   UNL     1     -10.075  11.849  63.352  1.00  0.00    -0.454 Cl 
HETATM    2  C   UNL     1      -9.864  11.417  65.069  1.00  0.00    -0.261 C  
HETATM    3  C   UNL     1      -9.798   9.902  65.221  1.00  0.00    -0.303 C  
ENDROOT
BRANCH   3   4
HETATM    4  N   UNL     1      -9.258   9.509  66.505  1.00  0.00    -0.153 NA 
HETATM    5  H   UNL     1      -8.361   9.907  66.784  1.00  0.00     0.000 HD 
BRANCH   4   6
HETATM    6  P   UNL     1      -9.982   8.475  67.539  1.00  0.00    -0.239 P  
HETATM    7  O   UNL     1      -8.751   7.774  68.309  1.00  0.00    -0.127 OA 
HETATM    8  O   UNL     1     -10.904   7.474  66.923  1.00  0.00    -0.345 OA 
HETATM    9  C   UNL     1      -7.795   8.591  68.962  1.00  0.00    -0.104 C  
HETATM   10  C   UNL     1      -8.353   9.815  69.710  1.00  0.00    -0.189 C  
HETATM   11  C   UNL     1      -9.654  10.429  69.185  1.00  0.00    -0.213 C  
HETATM   12  N   UNL     1     -10.616   9.422  68.741  1.00  0.00    -0.222 NA 
BRANCH  12  13
HETATM   13  C   UNL     1     -11.190   8.667  69.887  1.00  0.00    -0.041 C  
HETATM   14  C   UNL     1     -11.772   9.545  71.005  1.00  0.00    -0.343 C  
HETATM   15 CL   UNL     1     -12.331   8.536  72.366  1.00  0.00    -0.444 Cl 
ENDBRANCH  12  13
ENDBRANCH   4   6
ENDBRANCH   3   4
TORSDOF 3
ENDMDL
MODEL      117
REMARK 921   NORMALIZED FREE ENERGY PREDICTED BY IDOCK:   -3.15 KCAL/MOL
REMARK 922        TOTAL FREE ENERGY PREDICTED BY IDOCK:   -3.64 KCAL/MOL
REMARK 923 INTER-LIGAND FREE ENERGY PREDICTED BY IDOCK:   -3.45 KCAL/MOL
REMARK 924 INTRA-LIGAND FREE ENERGY PREDICTED BY IDOCK:   -0.19 KCAL/MOL
REMARK 927      BINDING AFFINITY PREDICTED BY RF-SCORE:    0.00 PKD
ROOT
HETATM    1 CL   UNL     1      -7.296   9.860  63.246  1.00  0.00    -0.128 Cl 
HETATM    2  C   UNL     1      -7.385  10.183  64.996  1.00  0.00    -0.139 C  
HETATM    3  C   UNL     1      -8.839  10.334  65.427  1.00  0.00    -0.172 C  
ENDROOT
BRANCH   3   4
HETATM    4  N   UNL     1      -8.995  10.219  66.861  1.00  0.00    -0.136 NA 
HETATM    5  H   UNL     1      -8.148  10.140  67.426  1.00  0.00     0.000 HD 
BRANCH   4   6
HETATM    6  P   UNL     1     -10.428  10.206  67.641  1.00  0.00    -0.281 P  
HETATM    7  O   UNL     1     -10.891   8.664  67.574  1.00  0.00    -0.202 OA 
HETATM    8  O   UNL     1     -11.472  11.131  67.103  1.00  0.00    -0.461 OA 
HETATM    9  C   UNL     1     -10.014   7.662  68.063  1.00  0.00    -0.175 C  
HETATM   10  C   UNL     1      -9.253   8.007  69.356  1.00  0.00    -0.152 C  
HETATM   11  C   UNL     1      -8.954   9.484  69.626  1.00  0.00    -0.188 C  
HETATM   12  N   UNL     1     -10.060  10.363  69.248  1.00  0.00    -0.220 NA 
BRANCH  12  13
HETATM   13  C   UNL     1     -11.219  10.215  70.167  1.00  0.00    -0.310 C  
HETATM   14  C   UNL     1     -11.916  11.532  70.537  1.00  0.00    -0.344 C  
HETATM   15 CL   UNL     1     -13.217  11.241  71.723  1.00  0.00    -0.540 Cl 
ENDBRANCH  12  13
ENDBRANCH   4   6
ENDBRANCH   3   4
TORSDOF 3
ENDMDL
MODEL      118
REMARK 921   NORMALIZED FREE ENERGY PREDICTED BY IDOCK:   -3.15 KCAL/MOL
REMARK 922        TOTAL FREE ENERGY PREDICTED BY IDOCK:   -3.63 KCAL/MOL
REMARK 923 INTER-LIGAND FREE ENERGY PREDICTED BY IDOCK:   -3.64 KCAL/MOL
REMARK 924 INTRA-LIGAND FREE ENERGY PREDICTED BY IDOCK:    0.01 KCAL/MOL
REMARK 927      BINDING AFFINITY PREDICTED BY RF-SCORE:    0.00 PKD
ROOT
HETATM    1 CL   UNL     1      -7.741   6.638  65.436  1.00  0.00    -0.093 Cl 
HETATM    2  C   UNL     1      -8.892   7.632  66.367  1.00  0.00    -0.156 C  
HETATM    3  C   UNL     1      -8.985   9.028  65.762  1.00  0.00    -0.197 C  
ENDROOT
BRANCH   3   4
HETATM    4  N   UNL     1     -10.155   9.743  66.225  1.00  0.00    -0.251 NA 
HETATM    5  H   UNL     1     -10.950   9.813  65.590  1.00  0.00     0.000 HD 
BRANCH   4   6
HETATM    6  P   UNL     1     -10.294  10.443  67.692  1.00  0.00    -0.255 P  
HETATM    7  O   UNL     1      -9.167  11.596  67.678  1.00  0.00    -0.170 OA 
HETATM    8  O   UNL     1     -10.151   9.532  68.868  1.00  0.00    -0.175 OA 
HETATM    9  C   UNL     1      -9.178  12.553  66.631  1.00  0.00    -0.223 C  
HETATM   10  C   UNL     1     -10.565  13.061  66.197  1.00  0.00    -0.289 C  
HETATM   11  C   UNL     1     -11.752  12.112  66.378  1.00  0.00    -0.324 C  
HETATM   12  N   UNL     1     -11.680  11.347  67.622  1.00  0.00    -0.594 NA 
BRANCH  12  13
HETATM   13  C   UNL     1     -11.921  12.207  68.811  1.00  0.00    -0.239 C  
HETATM   14  C   UNL     1     -12.302  11.443  70.088  1.00  0.00    -0.266 C  
HETATM   15 CL   UNL     1     -12.669  12.581  71.412  1.00  0.00    -0.410 Cl 
ENDBRANCH  12  13
ENDBRANCH   4   6
ENDBRANCH   3   4
TORSDOF 3
ENDMDL
MODEL      119
REMARK 921   NORMALIZED FREE ENERGY PREDICTED BY IDOCK:   -3.14 KCAL/MOL
REMARK 922        TOTAL FREE ENERGY PREDICTED BY IDOCK:   -3.63 KCAL/MOL
REMARK 923 INTER-LIGAND FREE ENERGY PREDICTED BY IDOCK:   -3.40 KCAL/MOL
REMARK 924 INTRA-LIGAND FREE ENERGY PREDICTED BY IDOCK:   -0.23 KCAL/MOL
REMARK 927      BINDING AFFINITY PREDICTED BY RF-SCORE:    0.00 PKD
ROOT
HETATM    1 CL   UNL     1     -12.267  14.259  64.132  1.00  0.00    -0.475 Cl 
HETATM    2  C   UNL     1     -12.084  12.512  64.438  1.00  0.00    -0.424 C  
HETATM    3  C   UNL     1     -10.892  11.968  63.660  1.00  0.00    -0.446 C  
ENDROOT
BRANCH   3   4
HETATM    4  N   UNL     1     -10.469  10.674  64.151  1.00  0.00    -0.429 NA 
HETATM    5  H   UNL     1     -11.178   9.945  64.239  1.00  0.00     0.000 HD 
BRANCH   4   6
HETATM    6  P   UNL     1      -8.939  10.297  64.576  1.00  0.00    -0.257 P  
HETATM    7  O   UNL     1      -8.611  11.315  65.782  1.00  0.00    -0.160 OA 
HETATM    8  O   UNL     1      -7.922  10.370  63.484  1.00  0.00    -0.157 OA 
HETATM    9  C   UNL     1      -9.477  11.353  66.904  1.00  0.00    -0.179 C  
HETATM   10  C   UNL     1     -10.006   9.993  67.393  1.00  0.00    -0.242 C  
HETATM   11  C   UNL     1     -10.146   8.876  66.354  1.00  0.00    -0.263 C  
HETATM   12  N   UNL     1      -9.047   8.858  65.390  1.00  0.00    -0.194 NA 
BRANCH  12  13
HETATM   13  C   UNL     1      -7.776   8.402  66.014  1.00  0.00    -0.090 C  
HETATM   14  C   UNL     1      -6.959   7.423  65.158  1.00  0.00    -0.058 C  
HETATM   15 CL   UNL     1      -5.518   6.865  66.051  1.00  0.00    -0.022 Cl 
ENDBRANCH  12  13
ENDBRANCH   4   6
ENDBRANCH   3   4
TORSDOF 3
ENDMDL
MODEL      120
REMARK 921   NORMALIZED FREE ENERGY PREDICTED BY IDOCK:   -3.13 KCAL/MOL
REMARK 922        TOTAL FREE ENERGY PREDICTED BY IDOCK:   -3.61 KCAL/MOL
REMARK 923 INTER-LIGAND FREE ENERGY PREDICTED BY IDOCK:   -3.64 KCAL/MOL
REMARK 924 INTRA-LIGAND FREE ENERGY PREDICTED BY IDOCK:    0.03 KCAL/MOL
REMARK 927      BINDING AFFINITY PREDICTED BY RF-SCORE:    0.00 PKD
ROOT
HETATM    1 CL   UNL     1     -12.381  14.621  64.138  1.00  0.00    -0.434 Cl 
HETATM    2  C   UNL     1     -12.848  13.841  65.671  1.00  0.00    -0.408 C  
HETATM    3  C   UNL     1     -11.944  12.645  65.946  1.00  0.00    -0.438 C  
ENDROOT
BRANCH   3   4
HETATM    4  N   UNL     1     -12.021  12.212  67.325  1.00  0.00    -0.578 NA 
HETATM    5  H   UNL     1     -12.892  11.781  67.639  1.00  0.00     0.000 HD 
BRANCH   4   6
HETATM    6  P   UNL     1     -10.816  12.364  68.414  1.00  0.00    -0.261 P  
HETATM    7  O   UNL     1     -11.132  11.218  69.502  1.00  0.00    -0.250 OA 
HETATM    8  O   UNL     1     -10.669  13.712  69.041  1.00  0.00    -0.234 OA 
HETATM    9  C   UNL     1     -11.283   9.878  69.064  1.00  0.00    -0.087 C  
HETATM   10  C   UNL     1     -10.308   9.414  67.968  1.00  0.00    -0.267 C  
HETATM   11  C   UNL     1      -9.769  10.477  67.007  1.00  0.00    -0.177 C  
HETATM   12  N   UNL     1      -9.470  11.743  67.674  1.00  0.00    -0.176 NA 
BRANCH  12  13
HETATM   13  C   UNL     1      -8.275  11.633  68.552  1.00  0.00    -0.144 C  
HETATM   14  C   UNL     1      -7.191  12.690  68.293  1.00  0.00    -0.113 C  
HETATM   15 CL   UNL     1      -5.767  12.392  69.327  1.00  0.00    -0.074 Cl 
ENDBRANCH  12  13
ENDBRANCH   4   6
ENDBRANCH   3   4
TORSDOF 3
ENDMDL
MODEL      121
REMARK 921   NORMALIZED FREE ENERGY PREDICTED BY IDOCK:   -3.07 KCAL/MOL
REMARK 922        TOTAL FREE ENERGY PREDICTED BY IDOCK:   -3.54 KCAL/MOL
REMARK 923 INTER-LIGAND FREE ENERGY PREDICTED BY IDOCK:   -3.48 KCAL/MOL
REMARK 924 INTRA-LIGAND FREE ENERGY PREDICTED BY IDOCK:   -0.06 KCAL/MOL
REMARK 927      BINDING AFFINITY PREDICTED BY RF-SCORE:    0.00 PKD
ROOT
HETATM    1 CL   UNL     1     -13.166   9.942  70.990  1.00  0.00    -0.419 Cl 
HETATM    2  C   UNL     1     -12.901   8.670  72.210  1.00  0.00    -0.383 C  
HETATM    3  C   UNL     1     -12.673   7.328  71.524  1.00  0.00    -0.384 C  
ENDROOT
BRANCH   3   4
HETATM    4  N   UNL     1     -12.087   6.353  72.420  1.00  0.00    -0.525 NA 
HETATM    5  H   UNL     1     -12.654   5.545  72.677  1.00  0.00     0.000 HD 
BRANCH   4   6
HETATM    6  P   UNL     1     -10.585   6.455  73.047  1.00  0.00    -0.266 P  
HETATM    7  O   UNL     1     -10.577   5.341  74.213  1.00  0.00    -0.281 OA 
HETATM    8  O   UNL     1     -10.178   7.801  73.552  1.00  0.00    -0.323 OA 
HETATM    9  C   UNL     1     -10.925   4.006  73.888  1.00  0.00    -0.211 C  
HETATM   10  C   UNL     1     -10.387   3.476  72.547  1.00  0.00    -0.196 C  
HETATM   11  C   UNL     1     -10.147   4.497  71.431  1.00  0.00    -0.160 C  
HETATM   12  N   UNL     1      -9.588   5.755  71.925  1.00  0.00    -0.151 NA 
BRANCH  12  13
HETATM   13  C   UNL     1      -8.176   5.593  72.365  1.00  0.00    -0.111 C  
HETATM   14  C   UNL     1      -7.216   5.105  71.270  1.00  0.00    -0.069 C  
HETATM   15 CL   UNL     1      -5.583   4.846  71.940  1.00  0.00    -0.004 Cl 
ENDBRANCH  12  13
ENDBRANCH   4   6
ENDBRANCH   3   4
TORSDOF 3
ENDMDL
MODEL      122
REMARK 921   NORMALIZED FREE ENERGY PREDICTED BY IDOCK:   -3.06 KCAL/MOL
REMARK 922        TOTAL FREE ENERGY PREDICTED BY IDOCK:   -3.53 KCAL/MOL
REMARK 923 INTER-LIGAND FREE ENERGY PREDICTED BY IDOCK:   -3.34 KCAL/MOL
REMARK 924 INTRA-LIGAND FREE ENERGY PREDICTED BY IDOCK:   -0.19 KCAL/MOL
REMARK 927      BINDING AFFINITY PREDICTED BY RF-SCORE:    0.00 PKD
ROOT
HETATM    1 CL   UNL     1     -13.247  12.393  71.846  1.00  0.00    -0.550 Cl 
HETATM    2  C   UNL     1     -12.295  11.982  70.396  1.00  0.00    -0.233 C  
HETATM    3  C   UNL     1     -11.977  10.492  70.385  1.00  0.00    -0.335 C  
ENDROOT
BRANCH   3   4
HETATM    4  N   UNL     1     -11.549  10.038  69.079  1.00  0.00    -0.489 NA 
HETATM    5  H   UNL     1     -12.233   9.554  68.497  1.00  0.00     0.000 HD 
BRANCH   4   6
HETATM    6  P   UNL     1     -10.049  10.246  68.470  1.00  0.00    -0.186 P  
HETATM    7  O   UNL     1      -9.119   9.329  69.414  1.00  0.00    -0.141 OA 
HETATM    8  O   UNL     1      -9.563  11.657  68.400  1.00  0.00    -0.189 OA 
HETATM    9  C   UNL     1      -9.441   7.957  69.571  1.00  0.00    -0.160 C  
HETATM   10  C   UNL     1      -9.914   7.227  68.301  1.00  0.00    -0.177 C  
HETATM   11  C   UNL     1     -10.621   8.062  67.230  1.00  0.00    -0.290 C  
HETATM   12  N   UNL     1     -10.022   9.384  67.056  1.00  0.00    -0.205 NA 
BRANCH  12  13
HETATM   13  C   UNL     1      -8.687   9.302  66.406  1.00  0.00    -0.132 C  
HETATM   14  C   UNL     1      -8.726   9.015  64.897  1.00  0.00    -0.166 C  
HETATM   15 CL   UNL     1      -7.072   8.832  64.252  1.00  0.00    -0.088 Cl 
ENDBRANCH  12  13
ENDBRANCH   4   6
ENDBRANCH   3   4
TORSDOF 3
ENDMDL
MODEL      123
REMARK 921   NORMALIZED FREE ENERGY PREDICTED BY IDOCK:   -3.05 KCAL/MOL
REMARK 922        TOTAL FREE ENERGY PREDICTED BY IDOCK:   -3.52 KCAL/MOL
REMARK 923 INTER-LIGAND FREE ENERGY PREDICTED BY IDOCK:   -3.31 KCAL/MOL
REMARK 924 INTRA-LIGAND FREE ENERGY PREDICTED BY IDOCK:   -0.21 KCAL/MOL
REMARK 927      BINDING AFFINITY PREDICTED BY RF-SCORE:    0.00 PKD
ROOT
HETATM    1 CL   UNL     1      -7.942   7.415  69.897  1.00  0.00    -0.118 Cl 
HETATM    2  C   UNL     1      -8.776   8.991  69.940  1.00  0.00    -0.156 C  
HETATM    3  C   UNL     1      -7.829  10.095  69.486  1.00  0.00    -0.162 C  
ENDROOT
BRANCH   3   4
HETATM    4  N   UNL     1      -8.537  11.309  69.141  1.00  0.00    -0.379 NA 
HETATM    5  H   UNL     1      -9.215  11.670  69.812  1.00  0.00     0.000 HD 
BRANCH   4   6
HETATM    6  P   UNL     1      -8.329  12.142  67.753  1.00  0.00    -0.184 P  
HETATM    7  O   UNL     1      -8.676  11.068  66.602  1.00  0.00    -0.150 OA 
HETATM    8  O   UNL     1      -6.983  12.761  67.559  1.00  0.00    -0.130 OA 
HETATM    9  C   UNL     1      -9.928  10.404  66.637  1.00  0.00    -0.210 C  
HETATM   10  C   UNL     1     -11.138  11.268  67.038  1.00  0.00    -0.356 C  
HETATM   11  C   UNL     1     -10.877  12.460  67.963  1.00  0.00    -0.221 C  
HETATM   12  N   UNL     1      -9.632  13.159  67.647  1.00  0.00    -0.204 NA 
BRANCH  12  13
HETATM   13  C   UNL     1      -9.732  13.909  66.367  1.00  0.00    -0.297 C  
HETATM   14  C   UNL     1     -10.541  15.212  66.449  1.00  0.00    -0.305 C  
HETATM   15 CL   UNL     1     -10.681  15.964  64.836  1.00  0.00    -0.436 Cl 
ENDBRANCH  12  13
ENDBRANCH   4   6
ENDBRANCH   3   4
TORSDOF 3
ENDMDL
MODEL      124
REMARK 921   NORMALIZED FREE ENERGY PREDICTED BY IDOCK:   -3.05 KCAL/MOL
REMARK 922        TOTAL FREE ENERGY PREDICTED BY IDOCK:   -3.52 KCAL/MOL
REMARK 923 INTER-LIGAND FREE ENERGY PREDICTED BY IDOCK:   -3.68 KCAL/MOL
REMARK 924 INTRA-LIGAND FREE ENERGY PREDICTED BY IDOCK:    0.17 KCAL/MOL
REMARK 927      BINDING AFFINITY PREDICTED BY RF-SCORE:    0.00 PKD
ROOT
HETATM    1 CL   UNL     1     -11.145  14.293  69.412  1.00  0.00    -0.289 Cl 
HETATM    2  C   UNL     1      -9.931  15.592  69.546  1.00  0.00    -0.285 C  
HETATM    3  C   UNL     1      -8.582  15.101  69.036  1.00  0.00    -0.219 C  
ENDROOT
BRANCH   3   4
HETATM    4  N   UNL     1      -7.673  16.195  68.768  1.00  0.00    -0.186 NA 
HETATM    5  H   UNL     1      -7.435  16.815  69.543  1.00  0.00     0.000 HD 
BRANCH   4   6
HETATM    6  P   UNL     1      -7.001  16.508  67.314  1.00  0.00    -0.209 P  
HETATM    7  O   UNL     1      -8.126  16.040  66.260  1.00  0.00    -0.270 OA 
HETATM    8  O   UNL     1      -5.680  15.860  67.053  1.00  0.00    -0.332 OA 
HETATM    9  C   UNL     1      -9.433  16.581  66.365  1.00  0.00    -0.288 C  
HETATM   10  C   UNL     1      -9.517  18.078  66.710  1.00  0.00    -0.293 C  
HETATM   11  C   UNL     1      -8.372  18.678  67.531  1.00  0.00    -0.265 C  
HETATM   12  N   UNL     1      -7.063  18.155  67.143  1.00  0.00    -0.192 NA 
BRANCH  12  13
HETATM   13  C   UNL     1      -6.644  18.655  65.807  1.00  0.00    -0.269 C  
HETATM   14  C   UNL     1      -6.790  20.172  65.617  1.00  0.00    -0.287 C  
HETATM   15 CL   UNL     1      -6.361  20.638  63.949  1.00  0.00    -0.299 Cl 
ENDBRANCH  12  13
ENDBRANCH   4   6
ENDBRANCH   3   4
TORSDOF 3
ENDMDL
MODEL      125
REMARK 921   NORMALIZED FREE ENERGY PREDICTED BY IDOCK:   -3.04 KCAL/MOL
REMARK 922        TOTAL FREE ENERGY PREDICTED BY IDOCK:   -3.51 KCAL/MOL
REMARK 923 INTER-LIGAND FREE ENERGY PREDICTED BY IDOCK:   -3.38 KCAL/MOL
REMARK 924 INTRA-LIGAND FREE ENERGY PREDICTED BY IDOCK:   -0.13 KCAL/MOL
REMARK 927      BINDING AFFINITY PREDICTED BY RF-SCORE:    0.00 PKD
ROOT
HETATM    1 CL   UNL     1     -13.187  10.718  72.016  1.00  0.00    -0.561 Cl 
HETATM    2  C   UNL     1     -12.607   9.147  71.406  1.00  0.00    -0.323 C  
HETATM    3  C   UNL     1     -12.012   8.331  72.547  1.00  0.00    -0.356 C  
ENDROOT
BRANCH   3   4
HETATM    4  N   UNL     1     -11.877   6.932  72.201  1.00  0.00    -0.349 NA 
HETATM    5  H   UNL     1     -12.706   6.342  72.276  1.00  0.00     0.000 HD 
BRANCH   4   6
HETATM    6  P   UNL     1     -10.492   6.231  71.698  1.00  0.00    -0.230 P  
HETATM    7  O   UNL     1      -9.410   6.671  72.809  1.00  0.00    -0.140 OA 
HETATM    8  O   UNL     1     -10.050   6.578  70.313  1.00  0.00    -0.176 OA 
HETATM    9  C   UNL     1      -9.677   6.395  74.174  1.00  0.00    -0.252 C  
HETATM   10  C   UNL     1     -10.324   5.030  74.471  1.00  0.00    -0.315 C  
HETATM   11  C   UNL     1     -11.203   4.414  73.379  1.00  0.00    -0.295 C  
HETATM   12  N   UNL     1     -10.663   4.619  72.035  1.00  0.00    -0.073 NA 
BRANCH  12  13
HETATM   13  C   UNL     1      -9.442   3.803  71.803  1.00  0.00    -0.146 C  
HETATM   14  C   UNL     1      -9.612   2.675  70.774  1.00  0.00    -0.111 C  
HETATM   15 CL   UNL     1      -8.120   1.703  70.660  1.00  0.00    -0.048 Cl 
ENDBRANCH  12  13
ENDBRANCH   4   6
ENDBRANCH   3   4
TORSDOF 3
ENDMDL
MODEL      126
REMARK 921   NORMALIZED FREE ENERGY PREDICTED BY IDOCK:   -3.02 KCAL/MOL
REMARK 922        TOTAL FREE ENERGY PREDICTED BY IDOCK:   -3.48 KCAL/MOL
REMARK 923 INTER-LIGAND FREE ENERGY PREDICTED BY IDOCK:   -3.21 KCAL/MOL
REMARK 924 INTRA-LIGAND FREE ENERGY PREDICTED BY IDOCK:   -0.27 KCAL/MOL
REMARK 927      BINDING AFFINITY PREDICTED BY RF-SCORE:    0.00 PKD
ROOT
HETATM    1 CL   UNL     1     -11.767  15.966  64.228  1.00  0.00    -0.295 Cl 
HETATM    2  C   UNL     1     -10.911  14.547  64.883  1.00  0.00    -0.410 C  
HETATM    3  C   UNL     1     -11.394  14.254  66.299  1.00  0.00    -0.346 C  
ENDROOT
BRANCH   3   4
HETATM    4  N   UNL     1     -11.027  12.923  66.732  1.00  0.00    -0.267 NA 
HETATM    5  H   UNL     1     -11.749  12.202  66.715  1.00  0.00     0.000 HD 
BRANCH   4   6
HETATM    6  P   UNL     1      -9.539  12.491  67.247  1.00  0.00    -0.217 P  
HETATM    7  O   UNL     1      -9.831  11.505  68.488  1.00  0.00    -0.192 OA 
HETATM    8  O   UNL     1      -8.627  13.614  67.621  1.00  0.00    -0.161 OA 
HETATM    9  C   UNL     1     -10.669  10.379  68.288  1.00  0.00    -0.235 C  
HETATM   10  C   UNL     1     -10.484   9.630  66.956  1.00  0.00    -0.302 C  
HETATM   11  C   UNL     1      -9.992  10.441  65.754  1.00  0.00    -0.270 C  
HETATM   12  N   UNL     1      -8.971  11.424  66.114  1.00  0.00    -0.202 NA 
BRANCH  12  13
HETATM   13  C   UNL     1      -7.682  10.773  66.467  1.00  0.00    -0.145 C  
HETATM   14  C   UNL     1      -7.003  10.026  65.310  1.00  0.00    -0.132 C  
HETATM   15 CL   UNL     1      -5.527   9.200  65.878  1.00  0.00    -0.040 Cl 
ENDBRANCH  12  13
ENDBRANCH   4   6
ENDBRANCH   3   4
TORSDOF 3
ENDMDL
MODEL      127
REMARK 921   NORMALIZED FREE ENERGY PREDICTED BY IDOCK:   -3.02 KCAL/MOL
REMARK 922        TOTAL FREE ENERGY PREDICTED BY IDOCK:   -3.48 KCAL/MOL
REMARK 923 INTER-LIGAND FREE ENERGY PREDICTED BY IDOCK:   -3.41 KCAL/MOL
REMARK 924 INTRA-LIGAND FREE ENERGY PREDICTED BY IDOCK:   -0.07 KCAL/MOL
REMARK 927      BINDING AFFINITY PREDICTED BY RF-SCORE:    0.00 PKD
ROOT
HETATM    1 CL   UNL     1      -5.656  12.354  69.796  1.00  0.00    -0.091 Cl 
HETATM    2  C   UNL     1      -6.197  13.790  68.888  1.00  0.00    -0.091 C  
HETATM    3  C   UNL     1      -7.013  13.364  67.674  1.00  0.00    -0.162 C  
ENDROOT
BRANCH   3   4
HETATM    4  N   UNL     1      -7.783  14.461  67.126  1.00  0.00    -0.339 NA 
HETATM    5  H   UNL     1      -8.716  14.254  66.768  1.00  0.00     0.000 HD 
BRANCH   4   6
HETATM    6  P   UNL     1      -7.265  16.006  67.040  1.00  0.00    -0.113 P  
HETATM    7  O   UNL     1      -8.208  16.668  65.914  1.00  0.00    -0.405 OA 
HETATM    8  O   UNL     1      -5.813  16.192  66.740  1.00  0.00    -0.306 OA 
HETATM    9  C   UNL     1      -9.616  16.590  66.064  1.00  0.00    -0.290 C  
HETATM   10  C   UNL     1     -10.153  16.792  67.493  1.00  0.00    -0.276 C  
HETATM   11  C   UNL     1      -9.236  16.396  68.653  1.00  0.00    -0.231 C  
HETATM   12  N   UNL     1      -7.836  16.741  68.411  1.00  0.00    -0.203 NA 
BRANCH  12  13
HETATM   13  C   UNL     1      -7.615  18.211  68.464  1.00  0.00    -0.289 C  
HETATM   14  C   UNL     1      -6.281  18.635  69.096  1.00  0.00    -0.255 C  
HETATM   15 CL   UNL     1      -6.176  20.413  69.202  1.00  0.00    -0.362 Cl 
ENDBRANCH  12  13
ENDBRANCH   4   6
ENDBRANCH   3   4
TORSDOF 3
ENDMDL
MODEL      128
REMARK 921   NORMALIZED FREE ENERGY PREDICTED BY IDOCK:   -3.00 KCAL/MOL
REMARK 922        TOTAL FREE ENERGY PREDICTED BY IDOCK:   -3.46 KCAL/MOL
REMARK 923 INTER-LIGAND FREE ENERGY PREDICTED BY IDOCK:   -3.23 KCAL/MOL
REMARK 924 INTRA-LIGAND FREE ENERGY PREDICTED BY IDOCK:   -0.23 KCAL/MOL
REMARK 927      BINDING AFFINITY PREDICTED BY RF-SCORE:    0.00 PKD
ROOT
HETATM    1 CL   UNL     1      -9.834   4.257  67.558  1.00  0.00    -0.200 Cl 
HETATM    2  C   UNL     1      -9.578   5.964  68.005  1.00  0.00    -0.116 C  
HETATM    3  C   UNL     1      -9.323   6.078  69.503  1.00  0.00    -0.136 C  
ENDROOT
BRANCH   3   4
HETATM    4  N   UNL     1      -8.743   7.356  69.858  1.00  0.00    -0.140 NA 
HETATM    5  H   UNL     1      -7.831   7.590  69.464  1.00  0.00     0.000 HD 
BRANCH   4   6
HETATM    6  P   UNL     1      -9.445   8.451  70.844  1.00  0.00    -0.195 P  
HETATM    7  O   UNL     1      -8.316   9.588  71.024  1.00  0.00    -0.294 OA 
HETATM    8  O   UNL     1      -9.932   7.929  72.157  1.00  0.00    -0.181 OA 
HETATM    9  C   UNL     1      -7.764  10.195  69.868  1.00  0.00    -0.160 C  
HETATM   10  C   UNL     1      -8.754  10.505  68.731  1.00  0.00    -0.154 C  
HETATM   11  C   UNL     1      -9.989   9.608  68.608  1.00  0.00    -0.165 C  
HETATM   12  N   UNL     1     -10.556   9.245  69.906  1.00  0.00    -0.217 NA 
BRANCH  12  13
HETATM   13  C   UNL     1     -11.208  10.406  70.566  1.00  0.00    -0.314 C  
HETATM   14  C   UNL     1     -12.499  10.069  71.327  1.00  0.00    -0.392 C  
HETATM   15 CL   UNL     1     -13.244  11.551  71.983  1.00  0.00    -0.568 Cl 
ENDBRANCH  12  13
ENDBRANCH   4   6
ENDBRANCH   3   4
TORSDOF 3
ENDMDL
MODEL      129
REMARK 921   NORMALIZED FREE ENERGY PREDICTED BY IDOCK:   -2.99 KCAL/MOL
REMARK 922        TOTAL FREE ENERGY PREDICTED BY IDOCK:   -3.44 KCAL/MOL
REMARK 923 INTER-LIGAND FREE ENERGY PREDICTED BY IDOCK:   -3.20 KCAL/MOL
REMARK 924 INTRA-LIGAND FREE ENERGY PREDICTED BY IDOCK:   -0.25 KCAL/MOL
REMARK 927      BINDING AFFINITY PREDICTED BY RF-SCORE:    0.00 PKD
ROOT
HETATM    1 CL   UNL     1     -14.357   9.026  72.243  1.00  0.00    -0.427 Cl 
HETATM    2  C   UNL     1     -12.640   8.546  72.242  1.00  0.00    -0.381 C  
HETATM    3  C   UNL     1     -12.452   7.279  71.417  1.00  0.00    -0.383 C  
ENDROOT
BRANCH   3   4
HETATM    4  N   UNL     1     -11.064   7.060  71.070  1.00  0.00    -0.254 NA 
HETATM    5  H   UNL     1     -10.413   6.846  71.826  1.00  0.00     0.000 HD 
BRANCH   4   6
HETATM    6  P   UNL     1     -10.465   7.129  69.553  1.00  0.00    -0.233 P  
HETATM    7  O   UNL     1     -10.508   8.699  69.192  1.00  0.00    -0.220 OA 
HETATM    8  O   UNL     1     -11.172   6.296  68.533  1.00  0.00    -0.352 OA 
HETATM    9  C   UNL     1      -9.865   9.620  70.057  1.00  0.00    -0.246 C  
HETATM   10  C   UNL     1      -8.509   9.172  70.630  1.00  0.00    -0.246 C  
HETATM   11  C   UNL     1      -8.281   7.669  70.808  1.00  0.00    -0.109 C  
HETATM   12  N   UNL     1      -8.835   6.879  69.709  1.00  0.00    -0.141 NA 
BRANCH  12  13
HETATM   13  C   UNL     1      -8.057   7.060  68.455  1.00  0.00    -0.124 C  
HETATM   14  C   UNL     1      -6.731   6.287  68.406  1.00  0.00    -0.068 C  
HETATM   15 CL   UNL     1      -5.840   6.665  66.907  1.00  0.00    -0.014 Cl 
ENDBRANCH  12  13
ENDBRANCH   4   6
ENDBRANCH   3   4
TORSDOF 3
ENDMDL
MODEL      130
REMARK 921   NORMALIZED FREE ENERGY PREDICTED BY IDOCK:   -2.98 KCAL/MOL
REMARK 922        TOTAL FREE ENERGY PREDICTED BY IDOCK:   -3.44 KCAL/MOL
REMARK 923 INTER-LIGAND FREE ENERGY PREDICTED BY IDOCK:   -3.22 KCAL/MOL
REMARK 924 INTRA-LIGAND FREE ENERGY PREDICTED BY IDOCK:   -0.22 KCAL/MOL
REMARK 927      BINDING AFFINITY PREDICTED BY RF-SCORE:    0.00 PKD
ROOT
HETATM    1 CL   UNL     1      -9.048   2.095  66.563  1.00  0.00    -0.110 Cl 
HETATM    2  C   UNL     1      -9.340   3.835  66.821  1.00  0.00    -0.190 C  
HETATM    3  C   UNL     1      -9.424   4.134  68.313  1.00  0.00    -0.154 C  
ENDROOT
BRANCH   3   4
HETATM    4  N   UNL     1      -9.280   5.548  68.591  1.00  0.00    -0.120 NA 
HETATM    5  H   UNL     1      -8.357   5.887  68.862  1.00  0.00     0.000 HD 
BRANCH   4   6
HETATM    6  P   UNL     1     -10.491   6.639  68.503  1.00  0.00    -0.255 P  
HETATM    7  O   UNL     1     -11.474   6.223  69.710  1.00  0.00    -0.430 OA 
HETATM    8  O   UNL     1     -11.207   6.714  67.193  1.00  0.00    -0.392 OA 
HETATM    9  C   UNL     1     -10.946   6.124  71.022  1.00  0.00    -0.293 C  
HETATM   10  C   UNL     1      -9.927   7.207  71.422  1.00  0.00    -0.193 C  
HETATM   11  C   UNL     1      -9.088   7.831  70.304  1.00  0.00    -0.152 C  
HETATM   12  N   UNL     1      -9.854   8.055  69.079  1.00  0.00    -0.174 NA 
BRANCH  12  13
HETATM   13  C   UNL     1     -10.838   9.158  69.239  1.00  0.00    -0.132 C  
HETATM   14  C   UNL     1     -10.741  10.263  68.177  1.00  0.00    -0.246 C  
HETATM   15 CL   UNL     1     -11.893  11.577  68.533  1.00  0.00    -0.384 Cl 
ENDBRANCH  12  13
ENDBRANCH   4   6
ENDBRANCH   3   4
TORSDOF 3
ENDMDL
MODEL      131
REMARK 921   NORMALIZED FREE ENERGY PREDICTED BY IDOCK:   -2.98 KCAL/MOL
REMARK 922        TOTAL FREE ENERGY PREDICTED BY IDOCK:   -3.43 KCAL/MOL
REMARK 923 INTER-LIGAND FREE ENERGY PREDICTED BY IDOCK:   -3.43 KCAL/MOL
REMARK 924 INTRA-LIGAND FREE ENERGY PREDICTED BY IDOCK:    0.00 KCAL/MOL
REMARK 927      BINDING AFFINITY PREDICTED BY RF-SCORE:    0.00 PKD
ROOT
HETATM    1 CL   UNL     1     -12.320  11.534  69.445  1.00  0.00    -0.234 Cl 
HETATM    2  C   UNL     1     -10.874  10.686  70.050  1.00  0.00    -0.217 C  
HETATM    3  C   UNL     1     -11.235   9.838  71.263  1.00  0.00    -0.347 C  
ENDROOT
BRANCH   3   4
HETATM    4  N   UNL     1     -10.215   8.854  71.559  1.00  0.00    -0.300 NA 
HETATM    5  H   UNL     1      -9.852   8.819  72.512  1.00  0.00     0.000 HD 
BRANCH   4   6
HETATM    6  P   UNL     1      -9.605   7.795  70.478  1.00  0.00    -0.165 P  
HETATM    7  O   UNL     1      -8.871   6.689  71.392  1.00  0.00    -0.138 OA 
HETATM    8  O   UNL     1      -8.689   8.371  69.446  1.00  0.00    -0.135 OA 
HETATM    9  C   UNL     1      -9.614   6.037  72.409  1.00  0.00    -0.151 C  
HETATM   10  C   UNL     1     -11.060   5.655  72.047  1.00  0.00    -0.291 C  
HETATM   11  C   UNL     1     -11.780   6.522  71.010  1.00  0.00    -0.343 C  
HETATM   12  N   UNL     1     -10.905   6.938  69.915  1.00  0.00    -0.244 NA 
BRANCH  12  13
HETATM   13  C   UNL     1     -10.558   5.798  69.026  1.00  0.00    -0.281 C  
HETATM   14  C   UNL     1     -10.674   6.098  67.524  1.00  0.00    -0.313 C  
HETATM   15 CL   UNL     1     -10.339   4.631  66.564  1.00  0.00    -0.274 Cl 
ENDBRANCH  12  13
ENDBRANCH   4   6
ENDBRANCH   3   4
TORSDOF 3
ENDMDL
MODEL      132
REMARK 921   NORMALIZED FREE ENERGY PREDICTED BY IDOCK:   -2.96 KCAL/MOL
REMARK 922        TOTAL FREE ENERGY PREDICTED BY IDOCK:   -3.41 KCAL/MOL
REMARK 923 INTER-LIGAND FREE ENERGY PREDICTED BY IDOCK:   -3.20 KCAL/MOL
REMARK 924 INTRA-LIGAND FREE ENERGY PREDICTED BY IDOCK:   -0.21 KCAL/MOL
REMARK 927      BINDING AFFINITY PREDICTED BY RF-SCORE:    0.00 PKD
ROOT
HETATM    1 CL   UNL     1      -7.133   2.498  73.081  1.00  0.00    -0.031 Cl 
HETATM    2  C   UNL     1      -8.410   3.742  73.105  1.00  0.00    -0.091 C  
HETATM    3  C   UNL     1      -8.509   4.414  71.741  1.00  0.00    -0.110 C  
ENDROOT
BRANCH   3   4
HETATM    4  N   UNL     1      -9.748   5.145  71.585  1.00  0.00    -0.157 NA 
HETATM    5  H   UNL     1     -10.577   4.620  71.304  1.00  0.00     0.000 HD 
BRANCH   4   6
HETATM    6  P   UNL     1      -9.916   6.750  71.827  1.00  0.00    -0.171 P  
HETATM    7  O   UNL     1      -8.932   7.411  70.735  1.00  0.00    -0.149 OA 
HETATM    8  O   UNL     1      -9.628   7.235  73.211  1.00  0.00    -0.172 OA 
HETATM    9  C   UNL     1      -9.090   7.063  69.370  1.00  0.00    -0.145 C  
HETATM   10  C   UNL     1     -10.540   6.932  68.871  1.00  0.00    -0.244 C  
HETATM   11  C   UNL     1     -11.602   6.520  69.894  1.00  0.00    -0.368 C  
HETATM   12  N   UNL     1     -11.399   7.141  71.202  1.00  0.00    -0.265 NA 
BRANCH  12  13
HETATM   13  C   UNL     1     -11.696   8.597  71.172  1.00  0.00    -0.288 C  
HETATM   14  C   UNL     1     -12.797   9.047  72.143  1.00  0.00    -0.410 C  
HETATM   15 CL   UNL     1     -13.138  10.787  71.940  1.00  0.00    -0.599 Cl 
ENDBRANCH  12  13
ENDBRANCH   4   6
ENDBRANCH   3   4
TORSDOF 3
ENDMDL
MODEL      133
REMARK 921   NORMALIZED FREE ENERGY PREDICTED BY IDOCK:   -2.95 KCAL/MOL
REMARK 922        TOTAL FREE ENERGY PREDICTED BY IDOCK:   -3.41 KCAL/MOL
REMARK 923 INTER-LIGAND FREE ENERGY PREDICTED BY IDOCK:   -3.22 KCAL/MOL
REMARK 924 INTRA-LIGAND FREE ENERGY PREDICTED BY IDOCK:   -0.19 KCAL/MOL
REMARK 927      BINDING AFFINITY PREDICTED BY RF-SCORE:    0.00 PKD
ROOT
HETATM    1 CL   UNL     1     -11.974  12.862  66.507  1.00  0.00    -0.465 Cl 
HETATM    2  C   UNL     1     -11.691  11.899  67.980  1.00  0.00    -0.312 C  
HETATM    3  C   UNL     1     -11.095  10.546  67.612  1.00  0.00    -0.309 C  
ENDROOT
BRANCH   3   4
HETATM    4  N   UNL     1     -10.501   9.886  68.756  1.00  0.00    -0.204 NA 
HETATM    5  H   UNL     1     -10.414  10.422  69.620  1.00  0.00     0.000 HD 
BRANCH   4   6
HETATM    6  P   UNL     1      -9.962   8.346  68.762  1.00  0.00    -0.194 P  
HETATM    7  O   UNL     1      -8.364   8.495  68.610  1.00  0.00    -0.121 OA 
HETATM    8  O   UNL     1     -10.545   7.446  67.721  1.00  0.00    -0.219 OA 
HETATM    9  C   UNL     1      -7.660   9.306  69.535  1.00  0.00    -0.081 C  
HETATM   10  C   UNL     1      -8.118   9.209  71.001  1.00  0.00    -0.179 C  
HETATM   11  C   UNL     1      -9.583   8.850  71.260  1.00  0.00    -0.278 C  
HETATM   12  N   UNL     1     -10.090   7.838  70.334  1.00  0.00    -0.193 NA 
BRANCH  12  13
HETATM   13  C   UNL     1      -9.499   6.501  70.603  1.00  0.00    -0.166 C  
HETATM   14  C   UNL     1     -10.523   5.368  70.764  1.00  0.00    -0.247 C  
HETATM   15 CL   UNL     1      -9.706   3.840  71.189  1.00  0.00    -0.249 Cl 
ENDBRANCH  12  13
ENDBRANCH   4   6
ENDBRANCH   3   4
TORSDOF 3
ENDMDL
MODEL      134
REMARK 921   NORMALIZED FREE ENERGY PREDICTED BY IDOCK:   -2.95 KCAL/MOL
REMARK 922        TOTAL FREE ENERGY PREDICTED BY IDOCK:   -3.40 KCAL/MOL
REMARK 923 INTER-LIGAND FREE ENERGY PREDICTED BY IDOCK:   -3.16 KCAL/MOL
REMARK 924 INTRA-LIGAND FREE ENERGY PREDICTED BY IDOCK:   -0.24 KCAL/MOL
REMARK 927      BINDING AFFINITY PREDICTED BY RF-SCORE:    0.00 PKD
ROOT
HETATM    1 CL   UNL     1     -10.760   5.198  66.392  1.00  0.00    -0.342 Cl 
HETATM    2  C   UNL     1     -10.693   6.840  67.083  1.00  0.00    -0.371 C  
HETATM    3  C   UNL     1      -9.392   7.030  67.853  1.00  0.00    -0.123 C  
ENDROOT
BRANCH   3   4
HETATM    4  N   UNL     1      -9.111   8.427  68.107  1.00  0.00    -0.138 NA 
HETATM    5  H   UNL     1      -8.406   8.882  67.527  1.00  0.00     0.000 HD 
BRANCH   4   6
HETATM    6  P   UNL     1      -9.843   9.327  69.254  1.00  0.00    -0.189 P  
HETATM    7  O   UNL     1      -8.624  10.091  69.982  1.00  0.00    -0.190 OA 
HETATM    8  O   UNL     1     -10.697   8.578  70.225  1.00  0.00    -0.223 OA 
HETATM    9  C   UNL     1      -7.730  10.861  69.195  1.00  0.00    -0.127 C  
HETATM   10  C   UNL     1      -8.368  11.687  68.064  1.00  0.00    -0.148 C  
HETATM   11  C   UNL     1      -9.665  11.156  67.449  1.00  0.00    -0.173 C  
HETATM   12  N   UNL     1     -10.568  10.576  68.443  1.00  0.00    -0.186 NA 
BRANCH  12  13
HETATM   13  C   UNL     1     -11.166  11.619  69.317  1.00  0.00    -0.265 C  
HETATM   14  C   UNL     1     -11.816  12.790  68.565  1.00  0.00    -0.306 C  
HETATM   15 CL   UNL     1     -12.400  14.025  69.713  1.00  0.00    -0.380 Cl 
ENDBRANCH  12  13
ENDBRANCH   4   6
ENDBRANCH   3   4
TORSDOF 3
ENDMDL
MODEL      135
REMARK 921   NORMALIZED FREE ENERGY PREDICTED BY IDOCK:   -2.95 KCAL/MOL
REMARK 922        TOTAL FREE ENERGY PREDICTED BY IDOCK:   -3.40 KCAL/MOL
REMARK 923 INTER-LIGAND FREE ENERGY PREDICTED BY IDOCK:   -3.22 KCAL/MOL
REMARK 924 INTRA-LIGAND FREE ENERGY PREDICTED BY IDOCK:   -0.18 KCAL/MOL
REMARK 927      BINDING AFFINITY PREDICTED BY RF-SCORE:    0.00 PKD
ROOT
HETATM    1 CL   UNL     1      -9.571  11.189  65.540  1.00  0.00    -0.247 Cl 
HETATM    2  C   UNL     1     -10.622  10.643  66.872  1.00  0.00    -0.254 C  
HETATM    3  C   UNL     1     -10.410   9.156  67.129  1.00  0.00    -0.267 C  
ENDROOT
BRANCH   3   4
HETATM    4  N   UNL     1     -10.936   8.747  68.414  1.00  0.00    -0.451 NA 
HETATM    5  H   UNL     1     -11.921   8.485  68.462  1.00  0.00     0.000 HD 
BRANCH   4   6
HETATM    6  P   UNL     1     -10.066   8.674  69.792  1.00  0.00    -0.211 P  
HETATM    7  O   UNL     1     -11.093   8.049  70.865  1.00  0.00    -0.246 OA 
HETATM    8  O   UNL     1      -9.477   9.965  70.261  1.00  0.00    -0.232 OA 
HETATM    9  C   UNL     1     -11.724   6.814  70.573  1.00  0.00    -0.375 C  
HETATM   10  C   UNL     1     -10.842   5.750  69.895  1.00  0.00    -0.417 C  
HETATM   11  C   UNL     1      -9.687   6.245  69.021  1.00  0.00    -0.130 C  
HETATM   12  N   UNL     1      -9.011   7.413  69.584  1.00  0.00    -0.141 NA 
BRANCH  12  13
HETATM   13  C   UNL     1      -8.220   7.061  70.792  1.00  0.00    -0.121 C  
HETATM   14  C   UNL     1      -7.195   5.936  70.582  1.00  0.00    -0.083 C  
HETATM   15 CL   UNL     1      -6.386   5.530  72.119  1.00  0.00    -0.045 Cl 
ENDBRANCH  12  13
ENDBRANCH   4   6
ENDBRANCH   3   4
TORSDOF 3
ENDMDL
MODEL      136
REMARK 921   NORMALIZED FREE ENERGY PREDICTED BY IDOCK:   -2.94 KCAL/MOL
REMARK 922        TOTAL FREE ENERGY PREDICTED BY IDOCK:   -3.39 KCAL/MOL
REMARK 923 INTER-LIGAND FREE ENERGY PREDICTED BY IDOCK:   -3.16 KCAL/MOL
REMARK 924 INTRA-LIGAND FREE ENERGY PREDICTED BY IDOCK:   -0.23 KCAL/MOL
REMARK 927      BINDING AFFINITY PREDICTED BY RF-SCORE:    0.00 PKD
ROOT
HETATM    1 CL   UNL     1     -10.995   7.645  73.218  1.00  0.00    -0.421 Cl 
HETATM    2  C   UNL     1     -11.303   7.263  71.504  1.00  0.00    -0.251 C  
HETATM    3  C   UNL     1     -11.396   8.549  70.692  1.00  0.00    -0.241 C  
ENDROOT
BRANCH   3   4
HETATM    4  N   UNL     1     -11.266   8.303  69.271  1.00  0.00    -0.409 NA 
HETATM    5  H   UNL     1     -12.072   7.913  68.782  1.00  0.00     0.000 HD 
BRANCH   4   6
HETATM    6  P   UNL     1      -9.922   8.606  68.396  1.00  0.00    -0.194 P  
HETATM    7  O   UNL     1      -8.895   7.452  68.854  1.00  0.00    -0.132 OA 
HETATM    8  O   UNL     1      -9.338   9.973  68.549  1.00  0.00    -0.139 OA 
HETATM    9  C   UNL     1      -9.297   6.096  68.754  1.00  0.00    -0.123 C  
HETATM   10  C   UNL     1     -10.098   5.722  67.494  1.00  0.00    -0.204 C  
HETATM   11  C   UNL     1     -10.944   6.821  66.845  1.00  0.00    -0.300 C  
HETATM   12  N   UNL     1     -10.281   8.124  66.853  1.00  0.00    -0.294 NA 
BRANCH  12  13
HETATM   13  C   UNL     1      -9.133   8.162  65.909  1.00  0.00    -0.130 C  
HETATM   14  C   UNL     1      -9.011   9.462  65.099  1.00  0.00    -0.212 C  
HETATM   15 CL   UNL     1      -7.668   9.349  63.930  1.00  0.00    -0.115 Cl 
ENDBRANCH  12  13
ENDBRANCH   4   6
ENDBRANCH   3   4
TORSDOF 3
ENDMDL
MODEL      137
REMARK 921   NORMALIZED FREE ENERGY PREDICTED BY IDOCK:   -2.94 KCAL/MOL
REMARK 922        TOTAL FREE ENERGY PREDICTED BY IDOCK:   -3.39 KCAL/MOL
REMARK 923 INTER-LIGAND FREE ENERGY PREDICTED BY IDOCK:   -3.25 KCAL/MOL
REMARK 924 INTRA-LIGAND FREE ENERGY PREDICTED BY IDOCK:   -0.14 KCAL/MOL
REMARK 927      BINDING AFFINITY PREDICTED BY RF-SCORE:    0.00 PKD
ROOT
HETATM    1 CL   UNL     1      -6.257   8.676  74.101  1.00  0.00    -0.143 Cl 
HETATM    2  C   UNL     1      -7.379   7.524  73.331  1.00  0.00    -0.092 C  
HETATM    3  C   UNL     1      -8.760   8.152  73.195  1.00  0.00    -0.240 C  
ENDROOT
BRANCH   3   4
HETATM    4  N   UNL     1      -9.594   7.430  72.257  1.00  0.00    -0.148 NA 
HETATM    5  H   UNL     1     -10.057   6.584  72.588  1.00  0.00     0.000 HD 
BRANCH   4   6
HETATM    6  P   UNL     1      -9.846   7.874  70.707  1.00  0.00    -0.180 P  
HETATM    7  O   UNL     1     -11.029   6.897  70.213  1.00  0.00    -0.253 OA 
HETATM    8  O   UNL     1      -8.653   7.814  69.809  1.00  0.00    -0.132 OA 
HETATM    9  C   UNL     1     -12.237   6.853  70.953  1.00  0.00    -0.353 C  
HETATM   10  C   UNL     1     -12.753   8.204  71.481  1.00  0.00    -0.327 C  
HETATM   11  C   UNL     1     -11.715   9.290  71.775  1.00  0.00    -0.386 C  
HETATM   12  N   UNL     1     -10.639   9.327  70.786  1.00  0.00    -0.259 NA 
BRANCH  12  13
HETATM   13  C   UNL     1     -11.114   9.845  69.476  1.00  0.00    -0.217 C  
HETATM   14  C   UNL     1     -10.310  11.033  68.927  1.00  0.00    -0.205 C  
HETATM   15 CL   UNL     1     -11.036  11.634  67.412  1.00  0.00    -0.316 Cl 
ENDBRANCH  12  13
ENDBRANCH   4   6
ENDBRANCH   3   4
TORSDOF 3
ENDMDL
MODEL      138
REMARK 921   NORMALIZED FREE ENERGY PREDICTED BY IDOCK:   -2.92 KCAL/MOL
REMARK 922        TOTAL FREE ENERGY PREDICTED BY IDOCK:   -3.37 KCAL/MOL
REMARK 923 INTER-LIGAND FREE ENERGY PREDICTED BY IDOCK:   -3.32 KCAL/MOL
REMARK 924 INTRA-LIGAND FREE ENERGY PREDICTED BY IDOCK:   -0.05 KCAL/MOL
REMARK 927      BINDING AFFINITY PREDICTED BY RF-SCORE:    0.00 PKD
ROOT
HETATM    1 CL   UNL     1     -10.479  17.060  65.659  1.00  0.00    -0.300 Cl 
HETATM    2  C   UNL     1     -10.894  15.523  66.460  1.00  0.00    -0.284 C  
HETATM    3  C   UNL     1     -10.563  14.351  65.544  1.00  0.00    -0.347 C  
ENDROOT
BRANCH   3   4
HETATM    4  N   UNL     1     -10.519  13.096  66.264  1.00  0.00    -0.280 NA 
HETATM    5  H   UNL     1     -11.109  12.335  65.928  1.00  0.00     0.000 HD 
BRANCH   4   6
HETATM    6  P   UNL     1      -9.593  12.811  67.577  1.00  0.00    -0.205 P  
HETATM    7  O   UNL     1     -10.490  13.342  68.806  1.00  0.00    -0.242 OA 
HETATM    8  O   UNL     1      -8.233  13.430  67.563  1.00  0.00    -0.162 OA 
HETATM    9  C   UNL     1     -11.804  12.835  68.966  1.00  0.00    -0.297 C  
HETATM   10  C   UNL     1     -11.982  11.330  68.698  1.00  0.00    -0.314 C  
HETATM   11  C   UNL     1     -11.025  10.673  67.700  1.00  0.00    -0.310 C  
HETATM   12  N   UNL     1      -9.656  11.173  67.817  1.00  0.00    -0.169 NA 
BRANCH  12  13
HETATM   13  C   UNL     1      -9.004  10.704  69.068  1.00  0.00    -0.157 C  
HETATM   14  C   UNL     1      -7.471  10.638  69.006  1.00  0.00    -0.117 C  
HETATM   15 CL   UNL     1      -6.811   9.963  70.520  1.00  0.00    -0.131 Cl 
ENDBRANCH  12  13
ENDBRANCH   4   6
ENDBRANCH   3   4
TORSDOF 3
ENDMDL
MODEL      139
REMARK 921   NORMALIZED FREE ENERGY PREDICTED BY IDOCK:   -2.91 KCAL/MOL
REMARK 922        TOTAL FREE ENERGY PREDICTED BY IDOCK:   -3.36 KCAL/MOL
REMARK 923 INTER-LIGAND FREE ENERGY PREDICTED BY IDOCK:   -3.41 KCAL/MOL
REMARK 924 INTRA-LIGAND FREE ENERGY PREDICTED BY IDOCK:    0.05 KCAL/MOL
REMARK 927      BINDING AFFINITY PREDICTED BY RF-SCORE:    0.00 PKD
ROOT
HETATM    1 CL   UNL     1     -10.336   4.569  65.417  1.00  0.00    -0.254 Cl 
HETATM    2  C   UNL     1     -10.232   5.182  67.087  1.00  0.00    -0.208 C  
HETATM    3  C   UNL     1     -11.016   6.482  67.216  1.00  0.00    -0.400 C  
ENDROOT
BRANCH   3   4
HETATM    4  N   UNL     1     -11.282   6.820  68.599  1.00  0.00    -0.540 NA 
HETATM    5  H   UNL     1     -12.228   7.117  68.840  1.00  0.00     0.000 HD 
BRANCH   4   6
HETATM    6  P   UNL     1     -10.178   6.759  69.798  1.00  0.00    -0.202 P  
HETATM    7  O   UNL     1      -8.941   7.620  69.229  1.00  0.00    -0.136 OA 
HETATM    8  O   UNL     1      -9.760   5.391  70.232  1.00  0.00    -0.169 OA 
HETATM    9  C   UNL     1      -9.173   8.949  68.792  1.00  0.00    -0.140 C  
HETATM   10  C   UNL     1     -10.141   9.782  69.651  1.00  0.00    -0.250 C  
HETATM   11  C   UNL     1     -11.230   9.027  70.418  1.00  0.00    -0.241 C  
HETATM   12  N   UNL     1     -10.754   7.765  70.982  1.00  0.00    -0.225 NA 
BRANCH  12  13
HETATM   13  C   UNL     1      -9.818   7.987  72.116  1.00  0.00    -0.223 C  
HETATM   14  C   UNL     1      -9.828   6.880  73.181  1.00  0.00    -0.186 C  
HETATM   15 CL   UNL     1      -8.751   7.308  74.538  1.00  0.00    -0.234 Cl 
ENDBRANCH  12  13
ENDBRANCH   4   6
ENDBRANCH   3   4
TORSDOF 3
ENDMDL
MODEL      140
REMARK 921   NORMALIZED FREE ENERGY PREDICTED BY IDOCK:   -2.91 KCAL/MOL
REMARK 922        TOTAL FREE ENERGY PREDICTED BY IDOCK:   -3.36 KCAL/MOL
REMARK 923 INTER-LIGAND FREE ENERGY PREDICTED BY IDOCK:   -3.25 KCAL/MOL
REMARK 924 INTRA-LIGAND FREE ENERGY PREDICTED BY IDOCK:   -0.11 KCAL/MOL
REMARK 927      BINDING AFFINITY PREDICTED BY RF-SCORE:    0.00 PKD
ROOT
HETATM    1 CL   UNL     1      -9.527  20.244  67.409  1.00  0.00    -0.523 Cl 
HETATM    2  C   UNL     1      -8.776  18.843  68.215  1.00  0.00    -0.333 C  
HETATM    3  C   UNL     1      -9.837  17.801  68.547  1.00  0.00    -0.355 C  
ENDROOT
BRANCH   3   4
HETATM    4  N   UNL     1      -9.255  16.510  68.847  1.00  0.00    -0.257 NA 
HETATM    5  H   UNL     1      -8.879  16.366  69.785  1.00  0.00     0.000 HD 
BRANCH   4   6
HETATM    6  P   UNL     1      -9.155  15.268  67.793  1.00  0.00    -0.186 P  
HETATM    7  O   UNL     1      -8.140  15.803  66.662  1.00  0.00    -0.257 OA 
HETATM    8  O   UNL     1     -10.450  14.800  67.212  1.00  0.00    -0.260 OA 
HETATM    9  C   UNL     1      -6.859  16.267  67.053  1.00  0.00    -0.200 C  
HETATM   10  C   UNL     1      -6.156  15.457  68.157  1.00  0.00    -0.136 C  
HETATM   11  C   UNL     1      -7.044  14.721  69.165  1.00  0.00    -0.143 C  
HETATM   12  N   UNL     1      -8.226  14.122  68.545  1.00  0.00    -0.147 NA 
BRANCH  12  13
HETATM   13  C   UNL     1      -7.869  12.957  67.694  1.00  0.00    -0.168 C  
HETATM   14  C   UNL     1      -8.832  11.765  67.803  1.00  0.00    -0.163 C  
HETATM   15 CL   UNL     1      -8.244  10.394  66.823  1.00  0.00    -0.124 Cl 
ENDBRANCH  12  13
ENDBRANCH   4   6
ENDBRANCH   3   4
TORSDOF 3
ENDMDL
MODEL      141
REMARK 921   NORMALIZED FREE ENERGY PREDICTED BY IDOCK:   -2.91 KCAL/MOL
REMARK 922        TOTAL FREE ENERGY PREDICTED BY IDOCK:   -3.36 KCAL/MOL
REMARK 923 INTER-LIGAND FREE ENERGY PREDICTED BY IDOCK:   -3.17 KCAL/MOL
REMARK 924 INTRA-LIGAND FREE ENERGY PREDICTED BY IDOCK:   -0.19 KCAL/MOL
REMARK 927      BINDING AFFINITY PREDICTED BY RF-SCORE:    0.00 PKD
ROOT
HETATM    1 CL   UNL     1     -13.491   9.075  72.696  1.00  0.00    -0.477 Cl 
HETATM    2  C   UNL     1     -13.090   9.254  70.968  1.00  0.00    -0.105 C  
HETATM    3  C   UNL     1     -11.760   9.983  70.814  1.00  0.00    -0.350 C  
ENDROOT
BRANCH   3   4
HETATM    4  N   UNL     1     -11.207   9.825  69.486  1.00  0.00    -0.381 NA 
HETATM    5  H   UNL     1     -11.833   9.509  68.745  1.00  0.00     0.000 HD 
BRANCH   4   6
HETATM    6  P   UNL     1      -9.651  10.116  69.089  1.00  0.00    -0.227 P  
HETATM    7  O   UNL     1      -9.362   9.089  67.880  1.00  0.00    -0.140 OA 
HETATM    8  O   UNL     1      -8.657   9.977  70.196  1.00  0.00    -0.168 OA 
HETATM    9  C   UNL     1     -10.210   9.109  66.745  1.00  0.00    -0.261 C  
HETATM   10  C   UNL     1     -10.652  10.501  66.258  1.00  0.00    -0.203 C  
HETATM   11  C   UNL     1     -10.746  11.617  67.303  1.00  0.00    -0.238 C  
HETATM   12  N   UNL     1      -9.663  11.565  68.284  1.00  0.00    -0.192 NA 
BRANCH  12  13
HETATM   13  C   UNL     1      -8.358  11.952  67.685  1.00  0.00    -0.152 C  
HETATM   14  C   UNL     1      -7.538  12.945  68.522  1.00  0.00    -0.120 C  
HETATM   15 CL   UNL     1      -6.051  13.415  67.655  1.00  0.00    -0.151 Cl 
ENDBRANCH  12  13
ENDBRANCH   4   6
ENDBRANCH   3   4
TORSDOF 3
ENDMDL
MODEL      142
REMARK 921   NORMALIZED FREE ENERGY PREDICTED BY IDOCK:   -2.90 KCAL/MOL
REMARK 922        TOTAL FREE ENERGY PREDICTED BY IDOCK:   -3.34 KCAL/MOL
REMARK 923 INTER-LIGAND FREE ENERGY PREDICTED BY IDOCK:   -3.19 KCAL/MOL
REMARK 924 INTRA-LIGAND FREE ENERGY PREDICTED BY IDOCK:   -0.15 KCAL/MOL
REMARK 927      BINDING AFFINITY PREDICTED BY RF-SCORE:    0.00 PKD
ROOT
HETATM    1 CL   UNL     1     -10.256   4.344  74.563  1.00  0.00    -0.257 Cl 
HETATM    2  C   UNL     1     -11.117   5.243  73.287  1.00  0.00    -0.316 C  
HETATM    3  C   UNL     1     -10.516   6.635  73.133  1.00  0.00    -0.253 C  
ENDROOT
BRANCH   3   4
HETATM    4  N   UNL     1     -10.908   7.260  71.887  1.00  0.00    -0.223 NA 
HETATM    5  H   UNL     1     -11.902   7.277  71.657  1.00  0.00     0.000 HD 
BRANCH   4   6
HETATM    6  P   UNL     1      -9.873   7.939  70.825  1.00  0.00    -0.180 P  
HETATM    7  O   UNL     1      -8.734   6.816  70.622  1.00  0.00    -0.141 OA 
HETATM    8  O   UNL     1      -9.297   9.259  71.226  1.00  0.00    -0.240 OA 
HETATM    9  C   UNL     1      -9.120   5.512  70.223  1.00  0.00    -0.138 C  
HETATM   10  C   UNL     1     -10.237   5.433  69.167  1.00  0.00    -0.302 C  
HETATM   11  C   UNL     1     -11.255   6.577  69.130  1.00  0.00    -0.303 C  
HETATM   12  N   UNL     1     -10.643   7.885  69.359  1.00  0.00    -0.223 NA 
BRANCH  12  13
HETATM   13  C   UNL     1      -9.809   8.312  68.204  1.00  0.00    -0.172 C  
HETATM   14  C   UNL     1     -10.589   8.539  66.900  1.00  0.00    -0.209 C  
HETATM   15 CL   UNL     1      -9.474   8.941  65.566  1.00  0.00    -0.232 Cl 
ENDBRANCH  12  13
ENDBRANCH   4   6
ENDBRANCH   3   4
TORSDOF 3
ENDMDL
MODEL      143
REMARK 921   NORMALIZED FREE ENERGY PREDICTED BY IDOCK:   -2.90 KCAL/MOL
REMARK 922        TOTAL FREE ENERGY PREDICTED BY IDOCK:   -3.34 KCAL/MOL
REMARK 923 INTER-LIGAND FREE ENERGY PREDICTED BY IDOCK:   -3.56 KCAL/MOL
REMARK 924 INTRA-LIGAND FREE ENERGY PREDICTED BY IDOCK:    0.22 KCAL/MOL
REMARK 927      BINDING AFFINITY PREDICTED BY RF-SCORE:    0.00 PKD
ROOT
HETATM    1 CL   UNL     1     -10.255  11.946  64.919  1.00  0.00    -0.295 Cl 
HETATM    2  C   UNL     1     -10.460  13.715  65.008  1.00  0.00    -0.391 C  
HETATM    3  C   UNL     1     -11.328  14.080  66.206  1.00  0.00    -0.333 C  
ENDROOT
BRANCH   3   4
HETATM    4  N   UNL     1     -11.219  15.482  66.547  1.00  0.00    -0.182 NA 
HETATM    5  H   UNL     1     -12.081  16.025  66.608  1.00  0.00     0.000 HD 
BRANCH   4   6
HETATM    6  P   UNL     1      -9.814  16.258  66.843  1.00  0.00    -0.268 P  
HETATM    7  O   UNL     1     -10.213  17.378  67.931  1.00  0.00    -0.314 OA 
HETATM    8  O   UNL     1      -9.131  16.849  65.652  1.00  0.00    -0.499 OA 
HETATM    9  C   UNL     1     -10.855  16.973  69.129  1.00  0.00    -0.164 C  
HETATM   10  C   UNL     1     -10.333  15.673  69.767  1.00  0.00    -0.309 C  
HETATM   11  C   UNL     1      -9.725  14.624  68.832  1.00  0.00    -0.196 C  
HETATM   12  N   UNL     1      -8.917  15.216  67.766  1.00  0.00    -0.176 NA 
BRANCH  12  13
HETATM   13  C   UNL     1      -7.648  15.787  68.291  1.00  0.00    -0.127 C  
HETATM   14  C   UNL     1      -6.971  14.945  69.382  1.00  0.00    -0.170 C  
HETATM   15 CL   UNL     1      -5.522  15.780  70.007  1.00  0.00    -0.135 Cl 
ENDBRANCH  12  13
ENDBRANCH   4   6
ENDBRANCH   3   4
TORSDOF 3
ENDMDL
MODEL      144
REMARK 921   NORMALIZED FREE ENERGY PREDICTED BY IDOCK:   -2.90 KCAL/MOL
REMARK 922        TOTAL FREE ENERGY PREDICTED BY IDOCK:   -3.34 KCAL/MOL
REMARK 923 INTER-LIGAND FREE ENERGY PREDICTED BY IDOCK:   -3.18 KCAL/MOL
REMARK 924 INTRA-LIGAND FREE ENERGY PREDICTED BY IDOCK:   -0.16 KCAL/MOL
REMARK 927      BINDING AFFINITY PREDICTED BY RF-SCORE:    0.00 PKD
ROOT
HETATM    1 CL   UNL     1     -12.260  14.986  64.208  1.00  0.00    -0.433 Cl 
HETATM    2  C   UNL     1     -11.079  14.133  65.234  1.00  0.00    -0.331 C  
HETATM    3  C   UNL     1     -10.905  12.699  64.748  1.00  0.00    -0.302 C  
ENDROOT
BRANCH   3   4
HETATM    4  N   UNL     1      -9.709  12.086  65.286  1.00  0.00    -0.369 NA 
HETATM    5  H   UNL     1      -9.087  12.669  65.846  1.00  0.00     0.000 HD 
BRANCH   4   6
HETATM    6  P   UNL     1      -9.283  10.527  65.059  1.00  0.00    -0.244 P  
HETATM    7  O   UNL     1      -7.696  10.515  65.339  1.00  0.00    -0.149 OA 
HETATM    8  O   UNL     1      -9.625   9.944  63.727  1.00  0.00    -0.237 OA 
HETATM    9  C   UNL     1      -7.212  11.021  66.571  1.00  0.00    -0.143 C  
HETATM   10  C   UNL     1      -8.045  10.670  67.817  1.00  0.00    -0.111 C  
HETATM   11  C   UNL     1      -9.546  10.440  67.621  1.00  0.00    -0.149 C  
HETATM   12  N   UNL     1      -9.850   9.716  66.388  1.00  0.00    -0.225 NA 
BRANCH  12  13
HETATM   13  C   UNL     1      -9.432   8.291  66.470  1.00  0.00    -0.220 C  
HETATM   14  C   UNL     1      -9.840   7.577  67.767  1.00  0.00    -0.155 C  
HETATM   15 CL   UNL     1      -9.193   5.914  67.797  1.00  0.00    -0.109 Cl 
ENDBRANCH  12  13
ENDBRANCH   4   6
ENDBRANCH   3   4
TORSDOF 3
ENDMDL
MODEL      145
REMARK 921   NORMALIZED FREE ENERGY PREDICTED BY IDOCK:   -2.82 KCAL/MOL
REMARK 922        TOTAL FREE ENERGY PREDICTED BY IDOCK:   -3.25 KCAL/MOL
REMARK 923 INTER-LIGAND FREE ENERGY PREDICTED BY IDOCK:   -3.06 KCAL/MOL
REMARK 924 INTRA-LIGAND FREE ENERGY PREDICTED BY IDOCK:   -0.19 KCAL/MOL
REMARK 927      BINDING AFFINITY PREDICTED BY RF-SCORE:    0.00 PKD
ROOT
HETATM    1 CL   UNL     1     -10.351   3.629  73.899  1.00  0.00    -0.213 Cl 
HETATM    2  C   UNL     1     -10.155   4.537  72.378  1.00  0.00    -0.183 C  
HETATM    3  C   UNL     1     -10.478   6.008  72.602  1.00  0.00    -0.205 C  
ENDROOT
BRANCH   3   4
HETATM    4  N   UNL     1      -9.981   6.843  71.529  1.00  0.00    -0.178 NA 
HETATM    5  H   UNL     1      -9.467   6.388  70.774  1.00  0.00     0.000 HD 
BRANCH   4   6
HETATM    6  P   UNL     1     -10.185   8.459  71.440  1.00  0.00    -0.265 P  
HETATM    7  O   UNL     1      -8.829   9.055  72.075  1.00  0.00    -0.373 OA 
HETATM    8  O   UNL     1     -11.406   9.002  72.109  1.00  0.00    -0.357 OA 
HETATM    9  C   UNL     1      -7.582   8.649  71.536  1.00  0.00    -0.106 C  
HETATM   10  C   UNL     1      -7.521   8.518  70.004  1.00  0.00    -0.060 C  
HETATM   11  C   UNL     1      -8.821   8.168  69.274  1.00  0.00    -0.144 C  
HETATM   12  N   UNL     1      -9.987   8.844  69.840  1.00  0.00    -0.183 NA 
BRANCH  12  13
HETATM   13  C   UNL     1      -9.973  10.302  69.550  1.00  0.00    -0.228 C  
HETATM   14  C   UNL     1     -11.320  10.876  69.088  1.00  0.00    -0.283 C  
HETATM   15 CL   UNL     1     -11.154  12.602  68.668  1.00  0.00    -0.284 Cl 
ENDBRANCH  12  13
ENDBRANCH   4   6
ENDBRANCH   3   4
TORSDOF 3
ENDMDL
MODEL      146
REMARK 921   NORMALIZED FREE ENERGY PREDICTED BY IDOCK:   -2.82 KCAL/MOL
REMARK 922        TOTAL FREE ENERGY PREDICTED BY IDOCK:   -3.24 KCAL/MOL
REMARK 923 INTER-LIGAND FREE ENERGY PREDICTED BY IDOCK:   -2.96 KCAL/MOL
REMARK 924 INTRA-LIGAND FREE ENERGY PREDICTED BY IDOCK:   -0.28 KCAL/MOL
REMARK 927      BINDING AFFINITY PREDICTED BY RF-SCORE:    0.00 PKD
ROOT
HETATM    1 CL   UNL     1     -11.029   5.902  66.796  1.00  0.00    -0.348 Cl 
HETATM    2  C   UNL     1     -10.608   7.581  67.220  1.00  0.00    -0.324 C  
HETATM    3  C   UNL     1      -9.364   7.602  68.100  1.00  0.00    -0.144 C  
ENDROOT
BRANCH   3   4
HETATM    4  N   UNL     1      -8.764   8.918  68.161  1.00  0.00    -0.133 NA 
HETATM    5  H   UNL     1      -7.865   9.051  67.698  1.00  0.00     0.000 HD 
BRANCH   4   6
HETATM    6  P   UNL     1      -9.424  10.205  68.917  1.00  0.00    -0.201 P  
HETATM    7  O   UNL     1      -8.156  11.127  69.289  1.00  0.00    -0.076 OA 
HETATM    8  O   UNL     1     -10.267   9.898  70.112  1.00  0.00    -0.254 OA 
HETATM    9  C   UNL     1      -7.266  11.519  68.257  1.00  0.00    -0.084 C  
HETATM   10  C   UNL     1      -7.917  11.904  66.917  1.00  0.00    -0.132 C  
HETATM   11  C   UNL     1      -9.252  11.242  66.565  1.00  0.00    -0.188 C  
HETATM   12  N   UNL     1     -10.136  11.104  67.722  1.00  0.00    -0.176 NA 
BRANCH  12  13
HETATM   13  C   UNL     1     -10.668  12.418  68.168  1.00  0.00    -0.221 C  
HETATM   14  C   UNL     1     -11.404  13.214  67.080  1.00  0.00    -0.316 C  
HETATM   15 CL   UNL     1     -11.900  14.812  67.701  1.00  0.00    -0.367 Cl 
ENDBRANCH  12  13
ENDBRANCH   4   6
ENDBRANCH   3   4
TORSDOF 3
ENDMDL
MODEL      147
REMARK 921   NORMALIZED FREE ENERGY PREDICTED BY IDOCK:   -2.80 KCAL/MOL
REMARK 922        TOTAL FREE ENERGY PREDICTED BY IDOCK:   -3.22 KCAL/MOL
REMARK 923 INTER-LIGAND FREE ENERGY PREDICTED BY IDOCK:   -3.03 KCAL/MOL
REMARK 924 INTRA-LIGAND FREE ENERGY PREDICTED BY IDOCK:   -0.19 KCAL/MOL
REMARK 927      BINDING AFFINITY PREDICTED BY RF-SCORE:    0.00 PKD
ROOT
HETATM    1 CL   UNL     1      -8.387   8.353  64.820  1.00  0.00    -0.165 Cl 
HETATM    2  C   UNL     1      -8.264   8.296  66.597  1.00  0.00    -0.106 C  
HETATM    3  C   UNL     1      -9.411   7.474  67.174  1.00  0.00    -0.142 C  
ENDROOT
BRANCH   3   4
HETATM    4  N   UNL     1      -9.160   7.080  68.544  1.00  0.00    -0.132 NA 
HETATM    5  H   UNL     1      -8.189   6.965  68.834  1.00  0.00     0.000 HD 
BRANCH   4   6
HETATM    6  P   UNL     1     -10.321   6.806  69.657  1.00  0.00    -0.221 P  
HETATM    7  O   UNL     1      -9.505   6.284  70.946  1.00  0.00    -0.170 OA 
HETATM    8  O   UNL     1     -11.402   5.857  69.254  1.00  0.00    -0.325 OA 
HETATM    9  C   UNL     1      -8.454   7.083  71.463  1.00  0.00    -0.116 C  
HETATM   10  C   UNL     1      -8.712   8.600  71.489  1.00  0.00    -0.266 C  
HETATM   11  C   UNL     1      -9.659   9.172  70.430  1.00  0.00    -0.224 C  
HETATM   12  N   UNL     1     -10.806   8.304  70.170  1.00  0.00    -0.241 NA 
BRANCH  12  13
HETATM   13  C   UNL     1     -11.757   8.291  71.313  1.00  0.00    -0.283 C  
HETATM   14  C   UNL     1     -12.920   9.286  71.190  1.00  0.00    -0.203 C  
HETATM   15 CL   UNL     1     -13.928   9.255  72.662  1.00  0.00    -0.432 Cl 
ENDBRANCH  12  13
ENDBRANCH   4   6
ENDBRANCH   3   4
TORSDOF 3
ENDMDL
MODEL      148
REMARK 921   NORMALIZED FREE ENERGY PREDICTED BY IDOCK:   -2.78 KCAL/MOL
REMARK 922        TOTAL FREE ENERGY PREDICTED BY IDOCK:   -3.20 KCAL/MOL
REMARK 923 INTER-LIGAND FREE ENERGY PREDICTED BY IDOCK:   -3.07 KCAL/MOL
REMARK 924 INTRA-LIGAND FREE ENERGY PREDICTED BY IDOCK:   -0.13 KCAL/MOL
REMARK 927      BINDING AFFINITY PREDICTED BY RF-SCORE:    0.00 PKD
ROOT
HETATM    1 CL   UNL     1     -12.202  14.650  64.345  1.00  0.00    -0.511 Cl 
HETATM    2  C   UNL     1     -10.783  14.540  65.419  1.00  0.00    -0.361 C  
HETATM    3  C   UNL     1     -10.352  13.086  65.569  1.00  0.00    -0.294 C  
ENDROOT
BRANCH   3   4
HETATM    4  N   UNL     1      -9.012  12.970  66.104  1.00  0.00    -0.437 NA 
HETATM    5  H   UNL     1      -8.248  12.833  65.442  1.00  0.00     0.000 HD 
BRANCH   4   6
HETATM    6  P   UNL     1      -8.637  13.043  67.690  1.00  0.00    -0.218 P  
HETATM    7  O   UNL     1      -9.048  11.589  68.252  1.00  0.00    -0.173 OA 
HETATM    8  O   UNL     1      -9.281  14.148  68.463  1.00  0.00    -0.200 OA 
HETATM    9  C   UNL     1      -8.504  10.435  67.632  1.00  0.00    -0.114 C  
HETATM   10  C   UNL     1      -7.024  10.525  67.222  1.00  0.00    -0.087 C  
HETATM   11  C   UNL     1      -6.470  11.911  66.878  1.00  0.00    -0.095 C  
HETATM   12  N   UNL     1      -6.984  12.959  67.759  1.00  0.00    -0.121 NA 
BRANCH  12  13
HETATM   13  C   UNL     1      -6.425  12.848  69.132  1.00  0.00    -0.108 C  
HETATM   14  C   UNL     1      -6.308  14.180  69.886  1.00  0.00    -0.141 C  
HETATM   15 CL   UNL     1      -5.528  13.936  71.472  1.00  0.00    -0.210 Cl 
ENDBRANCH  12  13
ENDBRANCH   4   6
ENDBRANCH   3   4
TORSDOF 3
ENDMDL
MODEL      149
REMARK 921   NORMALIZED FREE ENERGY PREDICTED BY IDOCK:   -2.75 KCAL/MOL
REMARK 922        TOTAL FREE ENERGY PREDICTED BY IDOCK:   -3.17 KCAL/MOL
REMARK 923 INTER-LIGAND FREE ENERGY PREDICTED BY IDOCK:   -3.11 KCAL/MOL
REMARK 924 INTRA-LIGAND FREE ENERGY PREDICTED BY IDOCK:   -0.06 KCAL/MOL
REMARK 927      BINDING AFFINITY PREDICTED BY RF-SCORE:    0.00 PKD
ROOT
HETATM    1 CL   UNL     1     -10.733   5.771  69.610  1.00  0.00    -0.394 Cl 
HETATM    2  C   UNL     1     -10.377   6.714  68.140  1.00  0.00    -0.190 C  
HETATM    3  C   UNL     1     -10.203   8.186  68.493  1.00  0.00    -0.208 C  
ENDROOT
BRANCH   3   4
HETATM    4  N   UNL     1      -9.552   8.925  67.431  1.00  0.00    -0.151 NA 
HETATM    5  H   UNL     1      -9.117   8.390  66.679  1.00  0.00     0.000 HD 
BRANCH   4   6
HETATM    6  P   UNL     1      -9.464  10.552  67.352  1.00  0.00    -0.155 P  
HETATM    7  O   UNL     1      -7.899  10.843  67.095  1.00  0.00    -0.118 OA 
HETATM    8  O   UNL     1      -9.986  11.293  68.541  1.00  0.00    -0.190 OA 
HETATM    9  C   UNL     1      -7.259  10.224  65.991  1.00  0.00    -0.128 C  
HETATM   10  C   UNL     1      -8.079  10.151  64.691  1.00  0.00    -0.153 C  
HETATM   11  C   UNL     1      -9.603  10.095  64.821  1.00  0.00    -0.314 C  
HETATM   12  N   UNL     1     -10.113  10.960  65.884  1.00  0.00    -0.243 NA 
BRANCH  12  13
HETATM   13  C   UNL     1      -9.988  12.399  65.529  1.00  0.00    -0.243 C  
HETATM   14  C   UNL     1     -10.985  13.323  66.244  1.00  0.00    -0.284 C  
HETATM   15 CL   UNL     1     -10.812  15.001  65.660  1.00  0.00    -0.335 Cl 
ENDBRANCH  12  13
ENDBRANCH   4   6
ENDBRANCH   3   4
TORSDOF 3
ENDMDL
MODEL      150
REMARK 921   NORMALIZED FREE ENERGY PREDICTED BY IDOCK:   -2.75 KCAL/MOL
REMARK 922        TOTAL FREE ENERGY PREDICTED BY IDOCK:   -3.16 KCAL/MOL
REMARK 923 INTER-LIGAND FREE ENERGY PREDICTED BY IDOCK:   -2.94 KCAL/MOL
REMARK 924 INTRA-LIGAND FREE ENERGY PREDICTED BY IDOCK:   -0.22 KCAL/MOL
REMARK 927      BINDING AFFINITY PREDICTED BY RF-SCORE:    0.00 PKD
ROOT
HETATM    1 CL   UNL     1      -9.429   3.246  70.506  1.00  0.00    -0.239 Cl 
HETATM    2  C   UNL     1      -9.345   4.410  69.159  1.00  0.00    -0.155 C  
HETATM    3  C   UNL     1      -9.586   5.824  69.674  1.00  0.00    -0.152 C  
ENDROOT
BRANCH   3   4
HETATM    4  N   UNL     1      -9.162   6.828  68.721  1.00  0.00    -0.131 NA 
HETATM    5  H   UNL     1      -8.168   7.054  68.680  1.00  0.00     0.000 HD 
BRANCH   4   6
HETATM    6  P   UNL     1     -10.161   7.625  67.707  1.00  0.00    -0.221 P  
HETATM    7  O   UNL     1     -10.719   8.848  68.596  1.00  0.00    -0.178 OA 
HETATM    8  O   UNL     1     -11.265   6.816  67.107  1.00  0.00    -0.379 OA 
HETATM    9  C   UNL     1      -9.793   9.722  69.220  1.00  0.00    -0.199 C  
HETATM   10  C   UNL     1      -8.556  10.100  68.386  1.00  0.00    -0.119 C  
HETATM   11  C   UNL     1      -8.071   9.087  67.345  1.00  0.00    -0.108 C  
HETATM   12  N   UNL     1      -9.171   8.424  66.646  1.00  0.00    -0.167 NA 
BRANCH  12  13
HETATM   13  C   UNL     1      -9.873   9.352  65.720  1.00  0.00    -0.275 C  
HETATM   14  C   UNL     1      -9.143   9.608  64.394  1.00  0.00    -0.229 C  
HETATM   15 CL   UNL     1     -10.023  10.814  63.417  1.00  0.00    -0.387 Cl 
ENDBRANCH  12  13
ENDBRANCH   4   6
ENDBRANCH   3   4
TORSDOF 3
ENDMDL
MODEL      151
REMARK 921   NORMALIZED FREE ENERGY PREDICTED BY IDOCK:   -2.72 KCAL/MOL
REMARK 922        TOTAL FREE ENERGY PREDICTED BY IDOCK:   -3.14 KCAL/MOL
REMARK 923 INTER-LIGAND FREE ENERGY PREDICTED BY IDOCK:   -2.90 KCAL/MOL
REMARK 924 INTRA-LIGAND FREE ENERGY PREDICTED BY IDOCK:   -0.24 KCAL/MOL
REMARK 927      BINDING AFFINITY PREDICTED BY RF-SCORE:    0.00 PKD
ROOT
HETATM    1 CL   UNL     1     -12.679   8.945  72.187  1.00  0.00    -0.444 Cl 
HETATM    2  C   UNL     1     -11.563   7.592  71.867  1.00  0.00    -0.280 C  
HETATM    3  C   UNL     1     -12.106   6.723  70.740  1.00  0.00    -0.347 C  
ENDROOT
BRANCH   3   4
HETATM    4  N   UNL     1     -11.089   5.853  70.188  1.00  0.00    -0.350 NA 
HETATM    5  H   UNL     1     -10.771   5.071  70.763  1.00  0.00     0.000 HD 
BRANCH   4   6
HETATM    6  P   UNL     1     -10.415   6.031  68.713  1.00  0.00    -0.295 P  
HETATM    7  O   UNL     1      -9.175   7.028  68.973  1.00  0.00    -0.139 OA 
HETATM    8  O   UNL     1     -11.323   6.531  67.637  1.00  0.00    -0.268 OA 
HETATM    9  C   UNL     1      -8.213   6.684  69.956  1.00  0.00    -0.130 C  
HETATM   10  C   UNL     1      -7.814   5.199  70.018  1.00  0.00    -0.078 C  
HETATM   11  C   UNL     1      -8.858   4.169  69.576  1.00  0.00    -0.089 C  
HETATM   12  N   UNL     1      -9.626   4.607  68.411  1.00  0.00    -0.149 NA 
BRANCH  12  13
HETATM   13  C   UNL     1      -8.798   4.606  67.176  1.00  0.00    -0.108 C  
HETATM   14  C   UNL     1      -8.874   3.310  66.355  1.00  0.00    -0.141 C  
HETATM   15 CL   UNL     1      -7.762   3.386  64.961  1.00  0.00    -0.080 Cl 
ENDBRANCH  12  13
ENDBRANCH   4   6
ENDBRANCH   3   4
TORSDOF 3
ENDMDL
MODEL      152
REMARK 921   NORMALIZED FREE ENERGY PREDICTED BY IDOCK:   -2.72 KCAL/MOL
REMARK 922        TOTAL FREE ENERGY PREDICTED BY IDOCK:   -3.13 KCAL/MOL
REMARK 923 INTER-LIGAND FREE ENERGY PREDICTED BY IDOCK:   -2.92 KCAL/MOL
REMARK 924 INTRA-LIGAND FREE ENERGY PREDICTED BY IDOCK:   -0.21 KCAL/MOL
REMARK 927      BINDING AFFINITY PREDICTED BY RF-SCORE:    0.00 PKD
ROOT
HETATM    1 CL   UNL     1      -7.120   6.878  64.988  1.00  0.00    -0.061 Cl 
HETATM    2  C   UNL     1      -7.960   7.294  66.505  1.00  0.00    -0.115 C  
HETATM    3  C   UNL     1      -8.497   6.031  67.166  1.00  0.00    -0.104 C  
ENDROOT
BRANCH   3   4
HETATM    4  N   UNL     1      -8.845   6.252  68.554  1.00  0.00    -0.115 NA 
HETATM    5  H   UNL     1      -8.084   6.285  69.234  1.00  0.00     0.000 HD 
BRANCH   4   6
HETATM    6  P   UNL     1     -10.366   6.452  69.110  1.00  0.00    -0.259 P  
HETATM    7  O   UNL     1     -10.509   5.330  70.258  1.00  0.00    -0.279 OA 
HETATM    8  O   UNL     1     -11.452   6.353  68.088  1.00  0.00    -0.169 OA 
HETATM    9  C   UNL     1      -9.561   5.302  71.312  1.00  0.00    -0.159 C  
HETATM   10  C   UNL     1      -9.122   6.672  71.860  1.00  0.00    -0.143 C  
HETATM   11  C   UNL     1      -9.162   7.862  70.898  1.00  0.00    -0.152 C  
HETATM   12  N   UNL     1     -10.328   7.838  70.016  1.00  0.00    -0.215 NA 
BRANCH  12  13
HETATM   13  C   UNL     1     -11.584   8.129  70.757  1.00  0.00    -0.238 C  
HETATM   14  C   UNL     1     -11.744   9.592  71.196  1.00  0.00    -0.372 C  
HETATM   15 CL   UNL     1     -13.229   9.796  72.164  1.00  0.00    -0.538 Cl 
ENDBRANCH  12  13
ENDBRANCH   4   6
ENDBRANCH   3   4
TORSDOF 3
ENDMDL
MODEL      153
REMARK 921   NORMALIZED FREE ENERGY PREDICTED BY IDOCK:   -2.71 KCAL/MOL
REMARK 922        TOTAL FREE ENERGY PREDICTED BY IDOCK:   -3.12 KCAL/MOL
REMARK 923 INTER-LIGAND FREE ENERGY PREDICTED BY IDOCK:   -2.88 KCAL/MOL
REMARK 924 INTRA-LIGAND FREE ENERGY PREDICTED BY IDOCK:   -0.24 KCAL/MOL
REMARK 927      BINDING AFFINITY PREDICTED BY RF-SCORE:    0.00 PKD
ROOT
HETATM    1 CL   UNL     1     -10.810   4.278  74.153  1.00  0.00    -0.299 Cl 
HETATM    2  C   UNL     1     -10.397   5.197  72.683  1.00  0.00    -0.200 C  
HETATM    3  C   UNL     1     -11.124   6.536  72.683  1.00  0.00    -0.257 C  
ENDROOT
BRANCH   3   4
HETATM    4  N   UNL     1     -10.549   7.465  71.733  1.00  0.00    -0.201 NA 
HETATM    5  H   UNL     1     -10.010   8.249  72.103  1.00  0.00     0.000 HD 
BRANCH   4   6
HETATM    6  P   UNL     1     -10.702   7.349  70.113  1.00  0.00    -0.243 P  
HETATM    7  O   UNL     1     -11.094   8.843  69.653  1.00  0.00    -0.175 OA 
HETATM    8  O   UNL     1     -11.682   6.333  69.621  1.00  0.00    -0.382 OA 
HETATM    9  C   UNL     1     -10.251   9.920  70.029  1.00  0.00    -0.271 C  
HETATM   10  C   UNL     1      -8.738   9.646  69.960  1.00  0.00    -0.256 C  
HETATM   11  C   UNL     1      -8.272   8.202  70.166  1.00  0.00    -0.119 C  
HETATM   12  N   UNL     1      -9.156   7.227  69.530  1.00  0.00    -0.143 NA 
BRANCH  12  13
HETATM   13  C   UNL     1      -9.048   7.270  68.048  1.00  0.00    -0.133 C  
HETATM   14  C   UNL     1      -7.749   6.675  67.483  1.00  0.00    -0.110 C  
HETATM   15 CL   UNL     1      -7.685   6.880  65.711  1.00  0.00    -0.095 Cl 
ENDBRANCH  12  13
ENDBRANCH   4   6
ENDBRANCH   3   4
TORSDOF 3
ENDMDL
MODEL      154
REMARK 921   NORMALIZED FREE ENERGY PREDICTED BY IDOCK:   -2.69 KCAL/MOL
REMARK 922        TOTAL FREE ENERGY PREDICTED BY IDOCK:   -3.10 KCAL/MOL
REMARK 923 INTER-LIGAND FREE ENERGY PREDICTED BY IDOCK:   -2.92 KCAL/MOL
REMARK 924 INTRA-LIGAND FREE ENERGY PREDICTED BY IDOCK:   -0.18 KCAL/MOL
REMARK 927      BINDING AFFINITY PREDICTED BY RF-SCORE:    0.00 PKD
ROOT
HETATM    1 CL   UNL     1     -13.492  10.579  71.586  1.00  0.00    -0.364 Cl 
HETATM    2  C   UNL     1     -11.844  10.169  71.046  1.00  0.00    -0.383 C  
HETATM    3  C   UNL     1     -11.517  10.913  69.757  1.00  0.00    -0.313 C  
ENDROOT
BRANCH   3   4
HETATM    4  N   UNL     1     -10.096  10.922  69.481  1.00  0.00    -0.437 NA 
HETATM    5  H   UNL     1      -9.477  10.486  70.166  1.00  0.00     0.000 HD 
BRANCH   4   6
HETATM    6  P   UNL     1      -9.412  11.578  68.152  1.00  0.00    -0.191 P  
HETATM    7  O   UNL     1      -7.983  12.108  68.675  1.00  0.00    -0.130 OA 
HETATM    8  O   UNL     1     -10.199  12.654  67.477  1.00  0.00    -0.211 OA 
HETATM    9  C   UNL     1      -7.110  11.200  69.325  1.00  0.00    -0.123 C  
HETATM   10  C   UNL     1      -7.043   9.783  68.726  1.00  0.00    -0.067 C  
HETATM   11  C   UNL     1      -8.290   9.264  68.005  1.00  0.00    -0.120 C  
HETATM   12  N   UNL     1      -8.955  10.295  67.210  1.00  0.00    -0.132 NA 
BRANCH  12  13
HETATM   13  C   UNL     1      -8.159  10.661  66.008  1.00  0.00    -0.159 C  
HETATM   14  C   UNL     1      -8.353   9.728  64.803  1.00  0.00    -0.155 C  
HETATM   15 CL   UNL     1      -7.272  10.202  63.465  1.00  0.00    -0.136 Cl 
ENDBRANCH  12  13
ENDBRANCH   4   6
ENDBRANCH   3   4
TORSDOF 3
ENDMDL
MODEL      155
REMARK 921   NORMALIZED FREE ENERGY PREDICTED BY IDOCK:   -2.69 KCAL/MOL
REMARK 922        TOTAL FREE ENERGY PREDICTED BY IDOCK:   -3.09 KCAL/MOL
REMARK 923 INTER-LIGAND FREE ENERGY PREDICTED BY IDOCK:   -3.05 KCAL/MOL
REMARK 924 INTRA-LIGAND FREE ENERGY PREDICTED BY IDOCK:   -0.04 KCAL/MOL
REMARK 927      BINDING AFFINITY PREDICTED BY RF-SCORE:    0.00 PKD
ROOT
HETATM    1 CL   UNL     1      -8.219  14.024  67.318  1.00  0.00    -0.199 Cl 
HETATM    2  C   UNL     1      -7.997  12.558  68.306  1.00  0.00    -0.153 C  
HETATM    3  C   UNL     1      -9.351  11.961  68.667  1.00  0.00    -0.069 C  
ENDROOT
BRANCH   3   4
HETATM    4  N   UNL     1      -9.236  10.595  69.131  1.00  0.00    -0.302 NA 
HETATM    5  H   UNL     1      -8.453  10.040  68.783  1.00  0.00     0.000 HD 
BRANCH   4   6
HETATM    6  P   UNL     1     -10.268   9.878  70.172  1.00  0.00    -0.187 P  
HETATM    7  O   UNL     1     -10.683   8.511  69.425  1.00  0.00    -0.222 OA 
HETATM    8  O   UNL     1     -11.460  10.686  70.570  1.00  0.00    -0.311 OA 
HETATM    9  C   UNL     1      -9.662   7.625  68.998  1.00  0.00    -0.160 C  
HETATM   10  C   UNL     1      -8.478   7.446  69.965  1.00  0.00    -0.138 C  
HETATM   11  C   UNL     1      -8.136   8.620  70.886  1.00  0.00    -0.136 C  
HETATM   12  N   UNL     1      -9.325   9.298  71.404  1.00  0.00    -0.289 NA 
BRANCH  12  13
HETATM   13  C   UNL     1     -10.047   8.460  72.396  1.00  0.00    -0.316 C  
HETATM   14  C   UNL     1      -9.142   7.581  73.273  1.00  0.00    -0.191 C  
HETATM   15 CL   UNL     1     -10.123   6.546  74.345  1.00  0.00    -0.374 Cl 
ENDBRANCH  12  13
ENDBRANCH   4   6
ENDBRANCH   3   4
TORSDOF 3
ENDMDL
MODEL      156
REMARK 921   NORMALIZED FREE ENERGY PREDICTED BY IDOCK:   -2.68 KCAL/MOL
REMARK 922        TOTAL FREE ENERGY PREDICTED BY IDOCK:   -3.08 KCAL/MOL
REMARK 923 INTER-LIGAND FREE ENERGY PREDICTED BY IDOCK:   -2.99 KCAL/MOL
REMARK 924 INTRA-LIGAND FREE ENERGY PREDICTED BY IDOCK:   -0.09 KCAL/MOL
REMARK 927      BINDING AFFINITY PREDICTED BY RF-SCORE:    0.00 PKD
ROOT
HETATM    1 CL   UNL     1     -11.761  14.923  64.810  1.00  0.00    -0.410 Cl 
HETATM    2  C   UNL     1     -11.305  13.231  65.137  1.00  0.00    -0.297 C  
HETATM    3  C   UNL     1     -11.117  13.020  66.634  1.00  0.00    -0.289 C  
ENDROOT
BRANCH   3   4
HETATM    4  N   UNL     1     -11.122  11.617  66.990  1.00  0.00    -0.287 NA 
HETATM    5  H   UNL     1     -11.847  11.293  67.631  1.00  0.00     0.000 HD 
BRANCH   4   6
HETATM    6  P   UNL     1     -10.051  10.517  66.438  1.00  0.00    -0.223 P  
HETATM    7  O   UNL     1      -8.618  11.200  66.715  1.00  0.00    -0.146 OA 
HETATM    8  O   UNL     1     -10.213  10.106  65.010  1.00  0.00    -0.309 OA 
HETATM    9  C   UNL     1      -8.305  11.629  68.030  1.00  0.00    -0.148 C  
HETATM   10  C   UNL     1      -8.757  10.698  69.169  1.00  0.00    -0.135 C  
HETATM   11  C   UNL     1      -9.995   9.832  68.921  1.00  0.00    -0.176 C  
HETATM   12  N   UNL     1     -10.050   9.298  67.561  1.00  0.00    -0.203 NA 
BRANCH  12  13
HETATM   13  C   UNL     1      -9.017   8.252  67.339  1.00  0.00    -0.134 C  
HETATM   14  C   UNL     1      -9.195   6.986  68.191  1.00  0.00    -0.130 C  
HETATM   15 CL   UNL     1      -7.843   5.853  67.918  1.00  0.00    -0.103 Cl 
ENDBRANCH  12  13
ENDBRANCH   4   6
ENDBRANCH   3   4
TORSDOF 3
ENDMDL
MODEL      157
REMARK 921   NORMALIZED FREE ENERGY PREDICTED BY IDOCK:   -2.66 KCAL/MOL
REMARK 922        TOTAL FREE ENERGY PREDICTED BY IDOCK:   -3.06 KCAL/MOL
REMARK 923 INTER-LIGAND FREE ENERGY PREDICTED BY IDOCK:   -2.94 KCAL/MOL
REMARK 924 INTRA-LIGAND FREE ENERGY PREDICTED BY IDOCK:   -0.13 KCAL/MOL
REMARK 927      BINDING AFFINITY PREDICTED BY RF-SCORE:    0.00 PKD
ROOT
HETATM    1 CL   UNL     1      -9.647   3.563  69.855  1.00  0.00    -0.250 Cl 
HETATM    2  C   UNL     1      -9.445   5.270  69.382  1.00  0.00    -0.138 C  
HETATM    3  C   UNL     1      -9.272   6.138  70.623  1.00  0.00    -0.154 C  
ENDROOT
BRANCH   3   4
HETATM    4  N   UNL     1      -8.735   7.444  70.301  1.00  0.00    -0.145 NA 
HETATM    5  H   UNL     1      -7.799   7.485  69.896  1.00  0.00     0.000 HD 
BRANCH   4   6
HETATM    6  P   UNL     1      -9.520   8.854  70.539  1.00  0.00    -0.243 P  
HETATM    7  O   UNL     1      -8.338   9.949  70.594  1.00  0.00    -0.180 OA 
HETATM    8  O   UNL     1     -10.401   8.916  71.744  1.00  0.00    -0.310 OA 
HETATM    9  C   UNL     1      -7.425  10.028  69.512  1.00  0.00    -0.123 C  
HETATM   10  C   UNL     1      -8.030   9.867  68.107  1.00  0.00    -0.100 C  
HETATM   11  C   UNL     1      -9.297   9.016  67.978  1.00  0.00    -0.141 C  
HETATM   12  N   UNL     1     -10.228   9.218  69.086  1.00  0.00    -0.199 NA 
BRANCH  12  13
HETATM   13  C   UNL     1     -10.871  10.557  69.028  1.00  0.00    -0.232 C  
HETATM   14  C   UNL     1     -11.184  11.056  67.610  1.00  0.00    -0.305 C  
HETATM   15 CL   UNL     1     -11.851  12.711  67.661  1.00  0.00    -0.416 Cl 
ENDBRANCH  12  13
ENDBRANCH   4   6
ENDBRANCH   3   4
TORSDOF 3
ENDMDL
MODEL      158
REMARK 921   NORMALIZED FREE ENERGY PREDICTED BY IDOCK:   -2.65 KCAL/MOL
REMARK 922        TOTAL FREE ENERGY PREDICTED BY IDOCK:   -3.05 KCAL/MOL
REMARK 923 INTER-LIGAND FREE ENERGY PREDICTED BY IDOCK:   -2.82 KCAL/MOL
REMARK 924 INTRA-LIGAND FREE ENERGY PREDICTED BY IDOCK:   -0.22 KCAL/MOL
REMARK 927      BINDING AFFINITY PREDICTED BY RF-SCORE:    0.00 PKD
ROOT
HETATM    1 CL   UNL     1      -7.793   3.956  66.234  1.00  0.00    -0.089 Cl 
HETATM    2  C   UNL     1      -8.435   4.905  67.600  1.00  0.00    -0.104 C  
HETATM    3  C   UNL     1      -7.684   6.226  67.717  1.00  0.00    -0.102 C  
ENDROOT
BRANCH   3   4
HETATM    4  N   UNL     1      -8.392   7.181  68.542  1.00  0.00    -0.124 NA 
HETATM    5  H   UNL     1      -8.043   7.342  69.487  1.00  0.00     0.000 HD 
BRANCH   4   6
HETATM    6  P   UNL     1      -9.710   8.019  68.068  1.00  0.00    -0.173 P  
HETATM    7  O   UNL     1     -10.822   7.648  69.174  1.00  0.00    -0.180 OA 
HETATM    8  O   UNL     1     -10.188   7.753  66.677  1.00  0.00    -0.269 OA 
HETATM    9  C   UNL     1     -10.525   7.860  70.544  1.00  0.00    -0.214 C  
HETATM   10  C   UNL     1      -9.756   9.151  70.875  1.00  0.00    -0.352 C  
HETATM   11  C   UNL     1      -8.829   9.716  69.795  1.00  0.00    -0.210 C  
HETATM   12  N   UNL     1      -9.391   9.599  68.450  1.00  0.00    -0.133 NA 
BRANCH  12  13
HETATM   13  C   UNL     1     -10.534  10.529  68.248  1.00  0.00    -0.183 C  
HETATM   14  C   UNL     1     -10.485  11.330  66.939  1.00  0.00    -0.245 C  
HETATM   15 CL   UNL     1     -11.844  12.483  66.859  1.00  0.00    -0.447 Cl 
ENDBRANCH  12  13
ENDBRANCH   4   6
ENDBRANCH   3   4
TORSDOF 3
ENDMDL
MODEL      159
REMARK 921   NORMALIZED FREE ENERGY PREDICTED BY IDOCK:   -2.64 KCAL/MOL
REMARK 922        TOTAL FREE ENERGY PREDICTED BY IDOCK:   -3.04 KCAL/MOL
REMARK 923 INTER-LIGAND FREE ENERGY PREDICTED BY IDOCK:   -2.85 KCAL/MOL
REMARK 924 INTRA-LIGAND FREE ENERGY PREDICTED BY IDOCK:   -0.19 KCAL/MOL
REMARK 927      BINDING AFFINITY PREDICTED BY RF-SCORE:    0.00 PKD
ROOT
HETATM    1 CL   UNL     1     -10.505  10.741  64.781  1.00  0.00    -0.381 Cl 
HETATM    2  C   UNL     1      -9.686   9.765  66.027  1.00  0.00    -0.255 C  
HETATM    3  C   UNL     1     -10.407   9.908  67.361  1.00  0.00    -0.246 C  
ENDROOT
BRANCH   3   4
HETATM    4  N   UNL     1     -10.030   8.869  68.296  1.00  0.00    -0.169 NA 
HETATM    5  H   UNL     1      -9.253   8.259  68.039  1.00  0.00     0.000 HD 
BRANCH   4   6
HETATM    6  P   UNL     1     -10.759   8.602  69.731  1.00  0.00    -0.133 P  
HETATM    7  O   UNL     1     -11.630   7.269  69.481  1.00  0.00     0.041 OA 
HETATM    8  O   UNL     1     -11.590   9.726  70.260  1.00  0.00    -0.251 OA 
HETATM    9  C   UNL     1     -10.980   6.107  68.994  1.00  0.00    -0.367 C  
HETATM   10  C   UNL     1      -9.589   5.815  69.585  1.00  0.00    -0.193 C  
HETATM   11  C   UNL     1      -8.761   7.011  70.063  1.00  0.00    -0.142 C  
HETATM   12  N   UNL     1      -9.571   8.028  70.732  1.00  0.00    -0.161 NA 
BRANCH  12  13
HETATM   13  C   UNL     1     -10.050   7.564  72.061  1.00  0.00    -0.187 C  
HETATM   14  C   UNL     1      -8.939   7.107  73.018  1.00  0.00    -0.133 C  
HETATM   15 CL   UNL     1      -9.640   6.474  74.532  1.00  0.00    -0.278 Cl 
ENDBRANCH  12  13
ENDBRANCH   4   6
ENDBRANCH   3   4
TORSDOF 3
ENDMDL
MODEL      160
REMARK 921   NORMALIZED FREE ENERGY PREDICTED BY IDOCK:   -2.60 KCAL/MOL
REMARK 922        TOTAL FREE ENERGY PREDICTED BY IDOCK:   -2.99 KCAL/MOL
REMARK 923 INTER-LIGAND FREE ENERGY PREDICTED BY IDOCK:   -2.77 KCAL/MOL
REMARK 924 INTRA-LIGAND FREE ENERGY PREDICTED BY IDOCK:   -0.22 KCAL/MOL
REMARK 927      BINDING AFFINITY PREDICTED BY RF-SCORE:    0.00 PKD
ROOT
HETATM    1 CL   UNL     1     -13.672   9.136  72.788  1.00  0.00    -0.406 Cl 
HETATM    2  C   UNL     1     -12.537   9.032  71.418  1.00  0.00    -0.311 C  
HETATM    3  C   UNL     1     -11.111   8.872  71.932  1.00  0.00    -0.372 C  
ENDROOT
BRANCH   3   4
HETATM    4  N   UNL     1     -10.210   8.409  70.898  1.00  0.00    -0.190 NA 
HETATM    5  H   UNL     1     -10.064   7.403  70.812  1.00  0.00     0.000 HD 
BRANCH   4   6
HETATM    6  P   UNL     1      -9.411   9.382  69.860  1.00  0.00    -0.243 P  
HETATM    7  O   UNL     1      -8.022   9.696  70.615  1.00  0.00    -0.241 OA 
HETATM    8  O   UNL     1     -10.126  10.630  69.454  1.00  0.00    -0.218 OA 
HETATM    9  C   UNL     1      -7.218   8.612  71.050  1.00  0.00    -0.079 C  
HETATM   10  C   UNL     1      -7.122   7.415  70.087  1.00  0.00    -0.064 C  
HETATM   11  C   UNL     1      -8.313   7.160  69.159  1.00  0.00    -0.129 C  
HETATM   12  N   UNL     1      -8.896   8.394  68.634  1.00  0.00    -0.136 NA 
BRANCH  12  13
HETATM   13  C   UNL     1      -8.000   9.049  67.645  1.00  0.00    -0.101 C  
HETATM   14  C   UNL     1      -8.674   9.419  66.316  1.00  0.00    -0.140 C  
HETATM   15 CL   UNL     1      -7.480  10.096  65.175  1.00  0.00    -0.139 Cl 
ENDBRANCH  12  13
ENDBRANCH   4   6
ENDBRANCH   3   4
TORSDOF 3
ENDMDL
MODEL      161
REMARK 921   NORMALIZED FREE ENERGY PREDICTED BY IDOCK:   -2.60 KCAL/MOL
REMARK 922        TOTAL FREE ENERGY PREDICTED BY IDOCK:   -2.99 KCAL/MOL
REMARK 923 INTER-LIGAND FREE ENERGY PREDICTED BY IDOCK:   -2.82 KCAL/MOL
REMARK 924 INTRA-LIGAND FREE ENERGY PREDICTED BY IDOCK:   -0.17 KCAL/MOL
REMARK 927      BINDING AFFINITY PREDICTED BY RF-SCORE:    0.00 PKD
ROOT
HETATM    1 CL   UNL     1      -6.109  20.822  65.449  1.00  0.00    -0.273 Cl 
HETATM    2  C   UNL     1      -6.142  19.433  66.566  1.00  0.00    -0.165 C  
HETATM    3  C   UNL     1      -7.570  19.164  67.023  1.00  0.00    -0.227 C  
ENDROOT
BRANCH   3   4
HETATM    4  N   UNL     1      -7.713  17.849  67.612  1.00  0.00    -0.211 NA 
HETATM    5  H   UNL     1      -7.666  17.777  68.629  1.00  0.00     0.000 HD 
BRANCH   4   6
HETATM    6  P   UNL     1      -7.944  16.474  66.765  1.00  0.00    -0.311 P  
HETATM    7  O   UNL     1      -6.451  15.936  66.485  1.00  0.00    -0.039 OA 
HETATM    8  O   UNL     1      -8.740  16.607  65.507  1.00  0.00    -0.295 OA 
HETATM    9  C   UNL     1      -5.575  15.741  67.583  1.00  0.00    -0.115 C  
HETATM   10  C   UNL     1      -6.206  15.132  68.848  1.00  0.00    -0.093 C  
HETATM   11  C   UNL     1      -7.692  15.402  69.095  1.00  0.00    -0.207 C  
HETATM   12  N   UNL     1      -8.486  15.361  67.867  1.00  0.00    -0.145 NA 
BRANCH  12  13
HETATM   13  C   UNL     1      -8.612  13.977  67.339  1.00  0.00    -0.203 C  
HETATM   14  C   UNL     1      -9.873  13.723  66.501  1.00  0.00    -0.290 C  
HETATM   15 CL   UNL     1      -9.968  12.008  66.016  1.00  0.00    -0.249 Cl 
ENDBRANCH  12  13
ENDBRANCH   4   6
ENDBRANCH   3   4
TORSDOF 3
ENDMDL
MODEL      162
REMARK 921   NORMALIZED FREE ENERGY PREDICTED BY IDOCK:   -2.58 KCAL/MOL
REMARK 922        TOTAL FREE ENERGY PREDICTED BY IDOCK:   -2.97 KCAL/MOL
REMARK 923 INTER-LIGAND FREE ENERGY PREDICTED BY IDOCK:   -3.05 KCAL/MOL
REMARK 924 INTRA-LIGAND FREE ENERGY PREDICTED BY IDOCK:    0.08 KCAL/MOL
REMARK 927      BINDING AFFINITY PREDICTED BY RF-SCORE:    0.00 PKD
ROOT
HETATM    1 CL   UNL     1      -5.492  12.205  69.481  1.00  0.00    -0.069 Cl 
HETATM    2  C   UNL     1      -6.212  13.801  69.150  1.00  0.00    -0.100 C  
HETATM    3  C   UNL     1      -7.717  13.753  69.378  1.00  0.00     0.371 C  
ENDROOT
BRANCH   3   4
HETATM    4  N   UNL     1      -8.291  15.077  69.495  1.00  0.00    -0.409 NA 
HETATM    5  H   UNL     1      -8.949  15.243  70.257  1.00  0.00     0.000 HD 
BRANCH   4   6
HETATM    6  P   UNL     1      -7.962  16.323  68.494  1.00  0.00    -0.206 P  
HETATM    7  O   UNL     1      -7.894  15.640  67.035  1.00  0.00    -0.200 OA 
HETATM    8  O   UNL     1      -6.726  17.103  68.807  1.00  0.00    -0.179 OA 
HETATM    9  C   UNL     1      -9.001  14.877  66.583  1.00  0.00    -0.270 C  
HETATM   10  C   UNL     1     -10.392  15.444  66.918  1.00  0.00    -0.277 C  
HETATM   11  C   UNL     1     -10.518  16.301  68.181  1.00  0.00    -0.289 C  
HETATM   12  N   UNL     1      -9.371  17.185  68.381  1.00  0.00    -0.264 NA 
BRANCH  12  13
HETATM   13  C   UNL     1      -9.345  18.288  67.383  1.00  0.00    -0.261 C  
HETATM   14  C   UNL     1     -10.641  19.108  67.301  1.00  0.00    -0.478 C  
HETATM   15 CL   UNL     1     -10.530  20.326  66.002  1.00  0.00    -0.419 Cl 
ENDBRANCH  12  13
ENDBRANCH   4   6
ENDBRANCH   3   4
TORSDOF 3
ENDMDL
MODEL      163
REMARK 921   NORMALIZED FREE ENERGY PREDICTED BY IDOCK:   -2.55 KCAL/MOL
REMARK 922        TOTAL FREE ENERGY PREDICTED BY IDOCK:   -2.93 KCAL/MOL
REMARK 923 INTER-LIGAND FREE ENERGY PREDICTED BY IDOCK:   -2.75 KCAL/MOL
REMARK 924 INTRA-LIGAND FREE ENERGY PREDICTED BY IDOCK:   -0.18 KCAL/MOL
REMARK 927      BINDING AFFINITY PREDICTED BY RF-SCORE:    0.00 PKD
ROOT
HETATM    1 CL   UNL     1      -7.495  12.218  68.412  1.00  0.00    -0.116 Cl 
HETATM    2  C   UNL     1      -7.864  10.477  68.322  1.00  0.00    -0.111 C  
HETATM    3  C   UNL     1      -8.092   9.919  69.721  1.00  0.00    -0.176 C  
ENDROOT
BRANCH   3   4
HETATM    4  N   UNL     1      -8.755   8.632  69.690  1.00  0.00    -0.130 NA 
HETATM    5  H   UNL     1      -8.524   7.998  68.925  1.00  0.00     0.000 HD 
BRANCH   4   6
HETATM    6  P   UNL     1      -9.845   8.123  70.792  1.00  0.00    -0.185 P  
HETATM    7  O   UNL     1     -11.070   7.575  69.900  1.00  0.00    -0.246 OA 
HETATM    8  O   UNL     1     -10.288   9.141  71.792  1.00  0.00    -0.344 OA 
HETATM    9  C   UNL     1     -10.814   6.588  68.914  1.00  0.00    -0.301 C  
HETATM   10  C   UNL     1      -9.817   5.484  69.310  1.00  0.00    -0.233 C  
HETATM   11  C   UNL     1      -8.736   5.844  70.332  1.00  0.00    -0.139 C  
HETATM   12  N   UNL     1      -9.233   6.709  71.401  1.00  0.00    -0.151 NA 
BRANCH  12  13
HETATM   13  C   UNL     1     -10.149   5.980  72.317  1.00  0.00    -0.180 C  
HETATM   14  C   UNL     1      -9.568   4.687  72.909  1.00  0.00    -0.131 C  
HETATM   15 CL   UNL     1     -10.791   3.848  73.901  1.00  0.00    -0.307 Cl 
ENDBRANCH  12  13
ENDBRANCH   4   6
ENDBRANCH   3   4
TORSDOF 3
ENDMDL
MODEL      164
REMARK 921   NORMALIZED FREE ENERGY PREDICTED BY IDOCK:   -2.55 KCAL/MOL
REMARK 922        TOTAL FREE ENERGY PREDICTED BY IDOCK:   -2.93 KCAL/MOL
REMARK 923 INTER-LIGAND FREE ENERGY PREDICTED BY IDOCK:   -2.74 KCAL/MOL
REMARK 924 INTRA-LIGAND FREE ENERGY PREDICTED BY IDOCK:   -0.19 KCAL/MOL
REMARK 927      BINDING AFFINITY PREDICTED BY RF-SCORE:    0.00 PKD
ROOT
HETATM    1 CL   UNL     1      -7.571   7.705  73.639  1.00  0.00    -0.139 Cl 
HETATM    2  C   UNL     1      -7.528   8.388  71.993  1.00  0.00    -0.105 C  
HETATM    3  C   UNL     1      -8.945   8.640  71.495  1.00  0.00    -0.234 C  
ENDROOT
BRANCH   3   4
HETATM    4  N   UNL     1      -8.969   9.526  70.350  1.00  0.00    -0.251 NA 
HETATM    5  H   UNL     1      -8.508  10.432  70.442  1.00  0.00     0.000 HD 
BRANCH   4   6
HETATM    6  P   UNL     1      -9.681   9.180  68.923  1.00  0.00    -0.171 P  
HETATM    7  O   UNL     1     -11.251   9.109  69.282  1.00  0.00    -0.050 OA 
HETATM    8  O   UNL     1      -9.203   7.941  68.239  1.00  0.00    -0.138 OA 
HETATM    9  C   UNL     1     -11.860  10.218  69.921  1.00  0.00    -0.193 C  
HETATM   10  C   UNL     1     -11.418  11.607  69.426  1.00  0.00    -0.372 C  
HETATM   11  C   UNL     1     -10.004  11.735  68.855  1.00  0.00    -0.034 C  
HETATM   12  N   UNL     1      -9.615  10.582  68.044  1.00  0.00    -0.146 NA 
BRANCH  12  13
HETATM   13  C   UNL     1     -10.355  10.541  66.755  1.00  0.00    -0.245 C  
HETATM   14  C   UNL     1      -9.679  11.299  65.603  1.00  0.00    -0.230 C  
HETATM   15 CL   UNL     1     -10.708  11.271  64.145  1.00  0.00    -0.430 Cl 
ENDBRANCH  12  13
ENDBRANCH   4   6
ENDBRANCH   3   4
TORSDOF 3
ENDMDL
MODEL      165
REMARK 921   NORMALIZED FREE ENERGY PREDICTED BY IDOCK:   -2.53 KCAL/MOL
REMARK 922        TOTAL FREE ENERGY PREDICTED BY IDOCK:   -2.91 KCAL/MOL
REMARK 923 INTER-LIGAND FREE ENERGY PREDICTED BY IDOCK:   -2.69 KCAL/MOL
REMARK 924 INTRA-LIGAND FREE ENERGY PREDICTED BY IDOCK:   -0.23 KCAL/MOL
REMARK 927      BINDING AFFINITY PREDICTED BY RF-SCORE:    0.00 PKD
ROOT
HETATM    1 CL   UNL     1     -14.302   8.270  72.067  1.00  0.00    -0.526 Cl 
HETATM    2  C   UNL     1     -12.656   8.391  71.394  1.00  0.00    -0.277 C  
HETATM    3  C   UNL     1     -11.838   7.169  71.794  1.00  0.00    -0.303 C  
ENDROOT
BRANCH   3   4
HETATM    4  N   UNL     1     -10.647   7.025  70.984  1.00  0.00    -0.217 NA 
HETATM    5  H   UNL     1     -10.672   6.349  70.220  1.00  0.00     0.000 HD 
BRANCH   4   6
HETATM    6  P   UNL     1      -9.267   7.868  71.204  1.00  0.00    -0.154 P  
HETATM    7  O   UNL     1      -8.136   6.728  71.339  1.00  0.00    -0.109 OA 
HETATM    8  O   UNL     1      -9.256   8.812  72.362  1.00  0.00    -0.361 OA 
HETATM    9  C   UNL     1      -8.007   5.763  70.308  1.00  0.00    -0.104 C  
HETATM   10  C   UNL     1      -8.163   6.289  68.870  1.00  0.00    -0.113 C  
HETATM   11  C   UNL     1      -9.051   7.518  68.661  1.00  0.00    -0.134 C  
HETATM   12  N   UNL     1      -8.900   8.512  69.723  1.00  0.00    -0.135 NA 
BRANCH  12  13
HETATM   13  C   UNL     1      -7.581   9.195  69.653  1.00  0.00    -0.080 C  
HETATM   14  C   UNL     1      -7.642  10.659  69.191  1.00  0.00    -0.131 C  
HETATM   15 CL   UNL     1      -5.998  11.337  69.043  1.00  0.00    -0.041 Cl 
ENDBRANCH  12  13
ENDBRANCH   4   6
ENDBRANCH   3   4
TORSDOF 3
ENDMDL
MODEL      166
REMARK 921   NORMALIZED FREE ENERGY PREDICTED BY IDOCK:   -2.53 KCAL/MOL
REMARK 922        TOTAL FREE ENERGY PREDICTED BY IDOCK:   -2.91 KCAL/MOL
REMARK 923 INTER-LIGAND FREE ENERGY PREDICTED BY IDOCK:   -2.84 KCAL/MOL
REMARK 924 INTRA-LIGAND FREE ENERGY PREDICTED BY IDOCK:   -0.07 KCAL/MOL
REMARK 927      BINDING AFFINITY PREDICTED BY RF-SCORE:    0.00 PKD
ROOT
HETATM    1 CL   UNL     1     -12.633   8.709  72.444  1.00  0.00    -0.450 Cl 
HETATM    2  C   UNL     1     -11.743   8.850  70.907  1.00  0.00    -0.267 C  
HETATM    3  C   UNL     1     -10.286   8.449  71.107  1.00  0.00    -0.212 C  
ENDROOT
BRANCH   3   4
HETATM    4  N   UNL     1      -9.619   8.181  69.851  1.00  0.00    -0.174 NA 
HETATM    5  H   UNL     1      -8.658   8.507  69.745  1.00  0.00     0.000 HD 
BRANCH   4   6
HETATM    6  P   UNL     1     -10.295   7.394  68.591  1.00  0.00    -0.169 P  
HETATM    7  O   UNL     1     -10.880   8.576  67.666  1.00  0.00    -0.169 OA 
HETATM    8  O   UNL     1     -11.337   6.381  68.937  1.00  0.00    -0.341 OA 
HETATM    9  C   UNL     1     -10.008   9.609  67.237  1.00  0.00    -0.197 C  
HETATM   10  C   UNL     1      -8.593   9.167  66.825  1.00  0.00    -0.133 C  
HETATM   11  C   UNL     1      -8.023   7.912  67.491  1.00  0.00    -0.123 C  
HETATM   12  N   UNL     1      -9.025   6.862  67.669  1.00  0.00    -0.117 NA 
BRANCH  12  13
HETATM   13  C   UNL     1      -9.415   6.248  66.372  1.00  0.00    -0.133 C  
HETATM   14  C   UNL     1      -9.412   4.712  66.363  1.00  0.00    -0.166 C  
HETATM   15 CL   UNL     1      -9.790   4.095  64.732  1.00  0.00    -0.190 Cl 
ENDBRANCH  12  13
ENDBRANCH   4   6
ENDBRANCH   3   4
TORSDOF 3
ENDMDL
MODEL      167
REMARK 921   NORMALIZED FREE ENERGY PREDICTED BY IDOCK:   -2.52 KCAL/MOL
REMARK 922        TOTAL FREE ENERGY PREDICTED BY IDOCK:   -2.90 KCAL/MOL
REMARK 923 INTER-LIGAND FREE ENERGY PREDICTED BY IDOCK:   -2.95 KCAL/MOL
REMARK 924 INTRA-LIGAND FREE ENERGY PREDICTED BY IDOCK:    0.06 KCAL/MOL
REMARK 927      BINDING AFFINITY PREDICTED BY RF-SCORE:    0.00 PKD
ROOT
HETATM    1 CL   UNL     1     -13.276  10.224  71.012  1.00  0.00    -0.448 Cl 
HETATM    2  C   UNL     1     -11.521   9.912  70.973  1.00  0.00    -0.388 C  
HETATM    3  C   UNL     1     -11.183   8.719  71.858  1.00  0.00    -0.368 C  
ENDROOT
BRANCH   3   4
HETATM    4  N   UNL     1      -9.865   8.191  71.576  1.00  0.00    -0.170 NA 
HETATM    5  H   UNL     1      -9.120   8.858  71.374  1.00  0.00     0.000 HD 
BRANCH   4   6
HETATM    6  P   UNL     1      -9.486   6.604  71.556  1.00  0.00    -0.153 P  
HETATM    7  O   UNL     1     -10.849   5.887  71.080  1.00  0.00    -0.260 OA 
HETATM    8  O   UNL     1      -8.973   6.040  72.841  1.00  0.00    -0.127 OA 
HETATM    9  C   UNL     1     -11.454   6.301  69.866  1.00  0.00    -0.389 C  
HETATM   10  C   UNL     1     -10.493   6.600  68.702  1.00  0.00    -0.241 C  
HETATM   11  C   UNL     1      -9.083   7.081  69.057  1.00  0.00    -0.135 C  
HETATM   12  N   UNL     1      -8.528   6.393  70.222  1.00  0.00    -0.133 NA 
BRANCH  12  13
HETATM   13  C   UNL     1      -8.192   4.977  69.917  1.00  0.00    -0.074 C  
HETATM   14  C   UNL     1      -6.724   4.600  70.162  1.00  0.00    -0.037 C  
HETATM   15 CL   UNL     1      -6.419   2.914  69.660  1.00  0.00    -0.029 Cl 
ENDBRANCH  12  13
ENDBRANCH   4   6
ENDBRANCH   3   4
TORSDOF 3
ENDMDL
MODEL      168
REMARK 921   NORMALIZED FREE ENERGY PREDICTED BY IDOCK:   -2.51 KCAL/MOL
REMARK 922        TOTAL FREE ENERGY PREDICTED BY IDOCK:   -2.89 KCAL/MOL
REMARK 923 INTER-LIGAND FREE ENERGY PREDICTED BY IDOCK:   -2.68 KCAL/MOL
REMARK 924 INTRA-LIGAND FREE ENERGY PREDICTED BY IDOCK:   -0.21 KCAL/MOL
REMARK 927      BINDING AFFINITY PREDICTED BY RF-SCORE:    0.00 PKD
ROOT
HETATM    1 CL   UNL     1     -10.510   4.388  73.255  1.00  0.00    -0.231 Cl 
HETATM    2  C   UNL     1     -10.288   4.382  71.487  1.00  0.00    -0.026 C  
HETATM    3  C   UNL     1      -9.852   5.762  71.011  1.00  0.00    -0.178 C  
ENDROOT
BRANCH   3   4
HETATM    4  N   UNL     1      -9.299   5.725  69.673  1.00  0.00    -0.137 NA 
HETATM    5  H   UNL     1      -9.088   4.811  69.273  1.00  0.00     0.000 HD 
BRANCH   4   6
HETATM    6  P   UNL     1      -8.990   7.041  68.760  1.00  0.00    -0.128 P  
HETATM    7  O   UNL     1      -8.100   6.468  67.545  1.00  0.00    -0.118 OA 
HETATM    8  O   UNL     1      -8.320   8.179  69.461  1.00  0.00    -0.119 OA 
HETATM    9  C   UNL     1      -8.607   5.395  66.770  1.00  0.00    -0.110 C  
HETATM   10  C   UNL     1     -10.109   5.452  66.440  1.00  0.00    -0.239 C  
HETATM   11  C   UNL     1     -11.021   6.177  67.434  1.00  0.00    -0.314 C  
HETATM   12  N   UNL     1     -10.411   7.387  67.984  1.00  0.00    -0.204 NA 
BRANCH  12  13
HETATM   13  C   UNL     1     -10.316   8.466  66.966  1.00  0.00    -0.315 C  
HETATM   14  C   UNL     1     -10.743   9.855  67.463  1.00  0.00    -0.272 C  
HETATM   15 CL   UNL     1     -10.689  11.041  66.130  1.00  0.00    -0.290 Cl 
ENDBRANCH  12  13
ENDBRANCH   4   6
ENDBRANCH   3   4
TORSDOF 3
ENDMDL
MODEL      169
REMARK 921   NORMALIZED FREE ENERGY PREDICTED BY IDOCK:   -2.50 KCAL/MOL
REMARK 922        TOTAL FREE ENERGY PREDICTED BY IDOCK:   -2.88 KCAL/MOL
REMARK 923 INTER-LIGAND FREE ENERGY PREDICTED BY IDOCK:   -2.86 KCAL/MOL
REMARK 924 INTRA-LIGAND FREE ENERGY PREDICTED BY IDOCK:   -0.02 KCAL/MOL
REMARK 927      BINDING AFFINITY PREDICTED BY RF-SCORE:    0.00 PKD
ROOT
HETATM    1 CL   UNL     1      -7.923   4.697  64.909  1.00  0.00    -0.097 Cl 
HETATM    2  C   UNL     1      -7.774   5.358  66.558  1.00  0.00    -0.099 C  
HETATM    3  C   UNL     1      -7.998   6.865  66.539  1.00  0.00    -0.109 C  
ENDROOT
BRANCH   3   4
HETATM    4  N   UNL     1      -8.264   7.391  67.861  1.00  0.00    -0.119 NA 
HETATM    5  H   UNL     1      -7.619   7.138  68.611  1.00  0.00     0.000 HD 
BRANCH   4   6
HETATM    6  P   UNL     1      -9.520   8.361  68.239  1.00  0.00    -0.141 P  
HETATM    7  O   UNL     1     -10.736   7.779  67.355  1.00  0.00    -0.278 OA 
HETATM    8  O   UNL     1      -9.309   9.823  68.013  1.00  0.00    -0.129 OA 
HETATM    9  C   UNL     1     -11.074   6.407  67.471  1.00  0.00    -0.306 C  
HETATM   10  C   UNL     1     -11.029   5.820  68.892  1.00  0.00    -0.250 C  
HETATM   11  C   UNL     1     -10.053   6.454  69.887  1.00  0.00    -0.171 C  
HETATM   12  N   UNL     1      -9.986   7.909  69.763  1.00  0.00    -0.184 NA 
BRANCH  12  13
HETATM   13  C   UNL     1     -11.230   8.561  70.250  1.00  0.00    -0.179 C  
HETATM   14  C   UNL     1     -11.008   9.674  71.285  1.00  0.00    -0.329 C  
HETATM   15 CL   UNL     1     -12.570  10.304  71.873  1.00  0.00    -0.468 Cl 
ENDBRANCH  12  13
ENDBRANCH   4   6
ENDBRANCH   3   4
TORSDOF 3
ENDMDL
MODEL      170
REMARK 921   NORMALIZED FREE ENERGY PREDICTED BY IDOCK:   -2.48 KCAL/MOL
REMARK 922        TOTAL FREE ENERGY PREDICTED BY IDOCK:   -2.85 KCAL/MOL
REMARK 923 INTER-LIGAND FREE ENERGY PREDICTED BY IDOCK:   -2.65 KCAL/MOL
REMARK 924 INTRA-LIGAND FREE ENERGY PREDICTED BY IDOCK:   -0.20 KCAL/MOL
REMARK 927      BINDING AFFINITY PREDICTED BY RF-SCORE:    0.00 PKD
ROOT
HETATM    1 CL   UNL     1     -14.240   8.783  72.528  1.00  0.00    -0.472 Cl 
HETATM    2  C   UNL     1     -13.071   7.829  71.578  1.00  0.00    -0.320 C  
HETATM    3  C   UNL     1     -11.771   7.669  72.358  1.00  0.00    -0.317 C  
ENDROOT
BRANCH   3   4
HETATM    4  N   UNL     1     -10.943   6.611  71.821  1.00  0.00    -0.233 NA 
HETATM    5  H   UNL     1     -11.305   5.658  71.862  1.00  0.00     0.000 HD 
BRANCH   4   6
HETATM    6  P   UNL     1      -9.471   6.834  71.153  1.00  0.00    -0.160 P  
HETATM    7  O   UNL     1      -8.463   6.126  72.194  1.00  0.00    -0.117 OA 
HETATM    8  O   UNL     1      -9.088   8.251  70.874  1.00  0.00    -0.141 OA 
HETATM    9  C   UNL     1      -8.684   4.771  72.549  1.00  0.00    -0.116 C  
HETATM   10  C   UNL     1      -9.121   3.838  71.406  1.00  0.00    -0.177 C  
HETATM   11  C   UNL     1      -9.901   4.461  70.246  1.00  0.00    -0.214 C  
HETATM   12  N   UNL     1      -9.401   5.784  69.874  1.00  0.00    -0.146 NA 
BRANCH  12  13
HETATM   13  C   UNL     1      -8.073   5.703  69.210  1.00  0.00    -0.096 C  
HETATM   14  C   UNL     1      -7.917   6.606  67.978  1.00  0.00    -0.110 C  
HETATM   15 CL   UNL     1      -6.329   6.344  67.207  1.00  0.00    -0.036 Cl 
ENDBRANCH  12  13
ENDBRANCH   4   6
ENDBRANCH   3   4
TORSDOF 3
ENDMDL
MODEL      171
REMARK 921   NORMALIZED FREE ENERGY PREDICTED BY IDOCK:   -2.48 KCAL/MOL
REMARK 922        TOTAL FREE ENERGY PREDICTED BY IDOCK:   -2.85 KCAL/MOL
REMARK 923 INTER-LIGAND FREE ENERGY PREDICTED BY IDOCK:   -2.62 KCAL/MOL
REMARK 924 INTRA-LIGAND FREE ENERGY PREDICTED BY IDOCK:   -0.23 KCAL/MOL
REMARK 927      BINDING AFFINITY PREDICTED BY RF-SCORE:    0.00 PKD
ROOT
HETATM    1 CL   UNL     1      -7.773   6.496  65.445  1.00  0.00    -0.093 Cl 
HETATM    2  C   UNL     1      -8.758   6.432  66.929  1.00  0.00    -0.115 C  
HETATM    3  C   UNL     1      -8.076   7.216  68.043  1.00  0.00    -0.120 C  
ENDROOT
BRANCH   3   4
HETATM    4  N   UNL     1      -8.985   7.516  69.130  1.00  0.00    -0.136 NA 
HETATM    5  H   UNL     1      -9.720   8.202  68.958  1.00  0.00     0.000 HD 
BRANCH   4   6
HETATM    6  P   UNL     1      -8.917   6.835  70.611  1.00  0.00    -0.151 P  
HETATM    7  O   UNL     1      -9.346   8.028  71.605  1.00  0.00    -0.145 OA 
HETATM    8  O   UNL     1      -7.604   6.229  70.991  1.00  0.00    -0.086 OA 
HETATM    9  C   UNL     1     -10.579   8.694  71.386  1.00  0.00    -0.264 C  
HETATM   10  C   UNL     1     -11.762   7.802  70.970  1.00  0.00    -0.299 C  
HETATM   11  C   UNL     1     -11.440   6.516  70.204  1.00  0.00    -0.415 C  
HETATM   12  N   UNL     1     -10.241   5.844  70.704  1.00  0.00    -0.198 NA 
BRANCH  12  13
HETATM   13  C   UNL     1     -10.468   5.237  72.042  1.00  0.00    -0.222 C  
HETATM   14  C   UNL     1     -10.046   3.765  72.158  1.00  0.00    -0.150 C  
HETATM   15 CL   UNL     1     -10.464   3.118  73.768  1.00  0.00    -0.225 Cl 
ENDBRANCH  12  13
ENDBRANCH   4   6
ENDBRANCH   3   4
TORSDOF 3
ENDMDL
MODEL      172
REMARK 921   NORMALIZED FREE ENERGY PREDICTED BY IDOCK:   -2.47 KCAL/MOL
REMARK 922        TOTAL FREE ENERGY PREDICTED BY IDOCK:   -2.83 KCAL/MOL
REMARK 923 INTER-LIGAND FREE ENERGY PREDICTED BY IDOCK:   -2.62 KCAL/MOL
REMARK 924 INTRA-LIGAND FREE ENERGY PREDICTED BY IDOCK:   -0.21 KCAL/MOL
REMARK 927      BINDING AFFINITY PREDICTED BY RF-SCORE:    0.00 PKD
ROOT
HETATM    1 CL   UNL     1     -10.559  12.677  63.911  1.00  0.00    -0.448 Cl 
HETATM    2  C   UNL     1     -10.613  12.130  65.607  1.00  0.00    -0.262 C  
HETATM    3  C   UNL     1     -10.652  10.608  65.663  1.00  0.00    -0.105 C  
ENDROOT
BRANCH   3   4
HETATM    4  N   UNL     1     -10.318  10.105  66.979  1.00  0.00    -0.233 NA 
HETATM    5  H   UNL     1     -10.365  10.758  67.762  1.00  0.00     0.000 HD 
BRANCH   4   6
HETATM    6  P   UNL     1      -9.871   8.569  67.300  1.00  0.00    -0.246 P  
HETATM    7  O   UNL     1      -8.366   8.477  66.728  1.00  0.00    -0.106 OA 
HETATM    8  O   UNL     1     -10.753   7.502  66.738  1.00  0.00    -0.319 OA 
HETATM    9  C   UNL     1      -7.402   9.414  67.180  1.00  0.00    -0.087 C  
HETATM   10  C   UNL     1      -7.456   9.768  68.677  1.00  0.00    -0.075 C  
HETATM   11  C   UNL     1      -8.815   9.672  69.375  1.00  0.00    -0.180 C  
HETATM   12  N   UNL     1      -9.598   8.519  68.933  1.00  0.00    -0.158 NA 
BRANCH  12  13
HETATM   13  C   UNL     1      -9.021   7.240  69.426  1.00  0.00    -0.139 C  
HETATM   14  C   UNL     1      -8.839   7.165  70.950  1.00  0.00    -0.150 C  
HETATM   15 CL   UNL     1      -8.044   5.636  71.411  1.00  0.00    -0.116 Cl 
ENDBRANCH  12  13
ENDBRANCH   4   6
ENDBRANCH   3   4
TORSDOF 3
ENDMDL
MODEL      173
REMARK 921   NORMALIZED FREE ENERGY PREDICTED BY IDOCK:   -2.46 KCAL/MOL
REMARK 922        TOTAL FREE ENERGY PREDICTED BY IDOCK:   -2.82 KCAL/MOL
REMARK 923 INTER-LIGAND FREE ENERGY PREDICTED BY IDOCK:   -2.63 KCAL/MOL
REMARK 924 INTRA-LIGAND FREE ENERGY PREDICTED BY IDOCK:   -0.19 KCAL/MOL
REMARK 927      BINDING AFFINITY PREDICTED BY RF-SCORE:    0.00 PKD
ROOT
HETATM    1 CL   UNL     1      -5.908   3.036  70.482  1.00  0.00    -0.017 Cl 
HETATM    2  C   UNL     1      -6.860   4.421  71.076  1.00  0.00    -0.036 C  
HETATM    3  C   UNL     1      -7.065   5.433  69.956  1.00  0.00    -0.062 C  
ENDROOT
BRANCH   3   4
HETATM    4  N   UNL     1      -8.125   6.370  70.259  1.00  0.00    -0.118 NA 
HETATM    5  H   UNL     1      -8.499   6.373  71.208  1.00  0.00     0.000 HD 
BRANCH   4   6
HETATM    6  P   UNL     1      -8.765   7.425  69.190  1.00  0.00    -0.135 P  
HETATM    7  O   UNL     1      -9.730   6.512  68.278  1.00  0.00    -0.130 OA 
HETATM    8  O   UNL     1      -7.784   8.200  68.371  1.00  0.00    -0.108 OA 
HETATM    9  C   UNL     1     -10.729   5.726  68.908  1.00  0.00    -0.263 C  
HETATM   10  C   UNL     1     -11.465   6.390  70.085  1.00  0.00    -0.484 C  
HETATM   11  C   UNL     1     -10.700   7.445  70.890  1.00  0.00    -0.235 C  
HETATM   12  N   UNL     1      -9.873   8.308  70.048  1.00  0.00    -0.180 NA 
BRANCH  12  13
HETATM   13  C   UNL     1     -10.699   9.232  69.227  1.00  0.00    -0.196 C  
HETATM   14  C   UNL     1     -10.935  10.612  69.858  1.00  0.00    -0.274 C  
HETATM   15 CL   UNL     1     -12.024  11.590  68.836  1.00  0.00    -0.392 Cl 
ENDBRANCH  12  13
ENDBRANCH   4   6
ENDBRANCH   3   4
TORSDOF 3
ENDMDL
MODEL      174
REMARK 921   NORMALIZED FREE ENERGY PREDICTED BY IDOCK:   -2.44 KCAL/MOL
REMARK 922        TOTAL FREE ENERGY PREDICTED BY IDOCK:   -2.80 KCAL/MOL
REMARK 923 INTER-LIGAND FREE ENERGY PREDICTED BY IDOCK:   -2.61 KCAL/MOL
REMARK 924 INTRA-LIGAND FREE ENERGY PREDICTED BY IDOCK:   -0.20 KCAL/MOL
REMARK 927      BINDING AFFINITY PREDICTED BY RF-SCORE:    0.00 PKD
ROOT
HETATM    1 CL   UNL     1     -11.499   5.694  72.752  1.00  0.00    -0.345 Cl 
HETATM    2  C   UNL     1     -10.385   5.865  71.371  1.00  0.00    -0.218 C  
HETATM    3  C   UNL     1     -11.013   6.747  70.299  1.00  0.00    -0.291 C  
ENDROOT
BRANCH   3   4
HETATM    4  N   UNL     1     -10.033   7.226  69.347  1.00  0.00    -0.167 NA 
HETATM    5  H   UNL     1      -9.137   7.550  69.712  1.00  0.00     0.000 HD 
BRANCH   4   6
HETATM    6  P   UNL     1     -10.259   7.283  67.732  1.00  0.00    -0.231 P  
HETATM    7  O   UNL     1     -10.770   8.788  67.467  1.00  0.00    -0.253 OA 
HETATM    8  O   UNL     1     -11.194   6.263  67.167  1.00  0.00    -0.334 OA 
HETATM    9  C   UNL     1      -9.982   9.872  67.929  1.00  0.00    -0.160 C  
HETATM   10  C   UNL     1      -8.459   9.716  67.765  1.00  0.00    -0.125 C  
HETATM   11  C   UNL     1      -7.890   8.295  67.781  1.00  0.00    -0.114 C  
HETATM   12  N   UNL     1      -8.740   7.337  67.074  1.00  0.00    -0.121 NA 
BRANCH  12  13
HETATM   13  C   UNL     1      -8.709   7.556  65.604  1.00  0.00    -0.079 C  
HETATM   14  C   UNL     1      -7.350   7.277  64.943  1.00  0.00    -0.080 C  
HETATM   15 CL   UNL     1      -7.406   7.676  63.205  1.00  0.00    -0.090 Cl 
ENDBRANCH  12  13
ENDBRANCH   4   6
ENDBRANCH   3   4
TORSDOF 3
ENDMDL
MODEL      175
REMARK 921   NORMALIZED FREE ENERGY PREDICTED BY IDOCK:   -2.39 KCAL/MOL
REMARK 922        TOTAL FREE ENERGY PREDICTED BY IDOCK:   -2.74 KCAL/MOL
REMARK 923 INTER-LIGAND FREE ENERGY PREDICTED BY IDOCK:   -2.59 KCAL/MOL
REMARK 924 INTRA-LIGAND FREE ENERGY PREDICTED BY IDOCK:   -0.15 KCAL/MOL
REMARK 927      BINDING AFFINITY PREDICTED BY RF-SCORE:    0.00 PKD
ROOT
HETATM    1 CL   UNL     1      -8.684  10.898  66.017  1.00  0.00    -0.184 Cl 
HETATM    2  C   UNL     1      -9.320  10.571  67.650  1.00  0.00    -0.149 C  
HETATM    3  C   UNL     1      -9.051   9.121  68.034  1.00  0.00    -0.131 C  
ENDROOT
BRANCH   3   4
HETATM    4  N   UNL     1      -9.196   8.901  69.457  1.00  0.00    -0.148 NA 
HETATM    5  H   UNL     1      -9.514   9.685  70.028  1.00  0.00     0.000 HD 
BRANCH   4   6
HETATM    6  P   UNL     1      -8.889   7.488  70.214  1.00  0.00    -0.146 P  
HETATM    7  O   UNL     1      -8.742   7.904  71.764  1.00  0.00    -0.111 OA 
HETATM    8  O   UNL     1      -7.700   6.729  69.720  1.00  0.00    -0.107 OA 
HETATM    9  C   UNL     1      -9.798   8.618  72.386  1.00  0.00    -0.245 C  
HETATM   10  C   UNL     1     -11.224   8.171  72.015  1.00  0.00    -0.372 C  
HETATM   11  C   UNL     1     -11.430   7.551  70.630  1.00  0.00    -0.269 C  
HETATM   12  N   UNL     1     -10.330   6.673  70.234  1.00  0.00    -0.198 NA 
BRANCH  12  13
HETATM   13  C   UNL     1     -10.320   5.414  71.024  1.00  0.00    -0.236 C  
HETATM   14  C   UNL     1      -9.844   4.175  70.250  1.00  0.00    -0.169 C  
HETATM   15 CL   UNL     1      -9.977   2.714  71.266  1.00  0.00    -0.119 Cl 
ENDBRANCH  12  13
ENDBRANCH   4   6
ENDBRANCH   3   4
TORSDOF 3
ENDMDL
MODEL      176
REMARK 921   NORMALIZED FREE ENERGY PREDICTED BY IDOCK:   -2.38 KCAL/MOL
REMARK 922        TOTAL FREE ENERGY PREDICTED BY IDOCK:   -2.73 KCAL/MOL
REMARK 923 INTER-LIGAND FREE ENERGY PREDICTED BY IDOCK:   -2.47 KCAL/MOL
REMARK 924 INTRA-LIGAND FREE ENERGY PREDICTED BY IDOCK:   -0.27 KCAL/MOL
REMARK 927      BINDING AFFINITY PREDICTED BY RF-SCORE:    0.00 PKD
ROOT
HETATM    1 CL   UNL     1      -7.418  11.134  68.960  1.00  0.00    -0.124 Cl 
HETATM    2  C   UNL     1      -8.495   9.763  69.329  1.00  0.00    -0.152 C  
HETATM    3  C   UNL     1      -8.401   9.408  70.807  1.00  0.00    -0.131 C  
ENDROOT
BRANCH   3   4
HETATM    4  N   UNL     1      -9.505   8.576  71.237  1.00  0.00    -0.185 NA 
HETATM    5  H   UNL     1     -10.430   9.006  71.289  1.00  0.00     0.000 HD 
BRANCH   4   6
HETATM    6  P   UNL     1      -9.378   7.002  71.644  1.00  0.00    -0.154 P  
HETATM    7  O   UNL     1     -10.733   6.704  72.465  1.00  0.00    -0.213 OA 
HETATM    8  O   UNL     1      -8.156   6.624  72.417  1.00  0.00    -0.100 OA 
HETATM    9  C   UNL     1     -11.981   6.994  71.859  1.00  0.00    -0.320 C  
HETATM   10  C   UNL     1     -12.098   6.654  70.362  1.00  0.00    -0.251 C  
HETATM   11  C   UNL     1     -10.814   6.692  69.528  1.00  0.00    -0.289 C  
HETATM   12  N   UNL     1      -9.657   6.158  70.246  1.00  0.00    -0.162 NA 
BRANCH  12  13
HETATM   13  C   UNL     1      -9.749   4.684  70.418  1.00  0.00    -0.222 C  
HETATM   14  C   UNL     1      -8.493   3.910  69.990  1.00  0.00    -0.063 C  
HETATM   15 CL   UNL     1      -8.760   2.152  70.140  1.00  0.00    -0.104 Cl 
ENDBRANCH  12  13
ENDBRANCH   4   6
ENDBRANCH   3   4
TORSDOF 3
ENDMDL
MODEL      177
REMARK 921   NORMALIZED FREE ENERGY PREDICTED BY IDOCK:   -2.38 KCAL/MOL
REMARK 922        TOTAL FREE ENERGY PREDICTED BY IDOCK:   -2.73 KCAL/MOL
REMARK 923 INTER-LIGAND FREE ENERGY PREDICTED BY IDOCK:   -3.26 KCAL/MOL
REMARK 924 INTRA-LIGAND FREE ENERGY PREDICTED BY IDOCK:    0.53 KCAL/MOL
REMARK 927      BINDING AFFINITY PREDICTED BY RF-SCORE:    0.00 PKD
ROOT
HETATM    1 CL   UNL     1     -11.495  13.472  68.656  1.00  0.00    -0.320 Cl 
HETATM    2  C   UNL     1      -9.824  14.090  68.624  1.00  0.00    -0.191 C  
HETATM    3  C   UNL     1      -9.746  15.339  67.754  1.00  0.00    -0.215 C  
ENDROOT
BRANCH   3   4
HETATM    4  N   UNL     1      -8.531  16.089  67.989  1.00  0.00    -0.162 NA 
HETATM    5  H   UNL     1      -7.999  15.879  68.835  1.00  0.00     0.000 HD 
BRANCH   4   6
HETATM    6  P   UNL     1      -7.948  17.247  66.998  1.00  0.00    -0.249 P  
HETATM    7  O   UNL     1      -7.946  18.574  67.913  1.00  0.00    -0.246 OA 
HETATM    8  O   UNL     1      -8.694  17.447  65.719  1.00  0.00    -0.522 OA 
HETATM    9  C   UNL     1      -7.263  18.549  69.156  1.00  0.00    -0.179 C  
HETATM   10  C   UNL     1      -5.915  17.807  69.170  1.00  0.00    -0.217 C  
HETATM   11  C   UNL     1      -5.733  16.658  68.173  1.00  0.00    -0.116 C  
HETATM   12  N   UNL     1      -6.325  16.943  66.867  1.00  0.00    -0.189 NA 
BRANCH  12  13
HETATM   13  C   UNL     1      -5.557  17.981  66.129  1.00  0.00    -0.191 C  
HETATM   14  C   UNL     1      -6.371  18.756  65.083  1.00  0.00    -0.247 C  
HETATM   15 CL   UNL     1      -5.323  19.893  64.192  1.00  0.00    -0.214 Cl 
ENDBRANCH  12  13
ENDBRANCH   4   6
ENDBRANCH   3   4
TORSDOF 3
ENDMDL
MODEL      178
REMARK 921   NORMALIZED FREE ENERGY PREDICTED BY IDOCK:   -2.38 KCAL/MOL
REMARK 922        TOTAL FREE ENERGY PREDICTED BY IDOCK:   -2.73 KCAL/MOL
REMARK 923 INTER-LIGAND FREE ENERGY PREDICTED BY IDOCK:   -2.46 KCAL/MOL
REMARK 924 INTRA-LIGAND FREE ENERGY PREDICTED BY IDOCK:   -0.27 KCAL/MOL
REMARK 927      BINDING AFFINITY PREDICTED BY RF-SCORE:    0.00 PKD
ROOT
HETATM    1 CL   UNL     1      -6.369   5.444  67.169  1.00  0.00    -0.038 Cl 
HETATM    2  C   UNL     1      -7.390   6.879  66.893  1.00  0.00    -0.082 C  
HETATM    3  C   UNL     1      -7.727   7.544  68.222  1.00  0.00    -0.120 C  
ENDROOT
BRANCH   3   4
HETATM    4  N   UNL     1      -8.219   8.893  68.044  1.00  0.00    -0.110 NA 
HETATM    5  H   UNL     1      -7.584   9.662  68.261  1.00  0.00     0.000 HD 
BRANCH   4   6
HETATM    6  P   UNL     1      -9.716   9.273  67.520  1.00  0.00    -0.179 P  
HETATM    7  O   UNL     1     -10.118  10.563  68.400  1.00  0.00    -0.155 OA 
HETATM    8  O   UNL     1     -10.737   8.186  67.615  1.00  0.00    -0.221 OA 
HETATM    9  C   UNL     1      -9.257  11.689  68.400  1.00  0.00    -0.182 C  
HETATM   10  C   UNL     1      -8.630  12.058  67.044  1.00  0.00    -0.185 C  
HETATM   11  C   UNL     1      -8.408  10.925  66.038  1.00  0.00    -0.165 C  
HETATM   12  N   UNL     1      -9.503   9.957  66.026  1.00  0.00    -0.186 NA 
BRANCH  12  13
HETATM   13  C   UNL     1     -10.737  10.529  65.424  1.00  0.00     0.032 C  
HETATM   14  C   UNL     1     -10.571  11.035  63.983  1.00  0.00    -0.324 C  
HETATM   15 CL   UNL     1     -12.081  11.794  63.409  1.00  0.00    -0.544 Cl 
ENDBRANCH  12  13
ENDBRANCH   4   6
ENDBRANCH   3   4
TORSDOF 3
ENDMDL
MODEL      179
REMARK 921   NORMALIZED FREE ENERGY PREDICTED BY IDOCK:   -2.38 KCAL/MOL
REMARK 922        TOTAL FREE ENERGY PREDICTED BY IDOCK:   -2.73 KCAL/MOL
REMARK 923 INTER-LIGAND FREE ENERGY PREDICTED BY IDOCK:   -2.55 KCAL/MOL
REMARK 924 INTRA-LIGAND FREE ENERGY PREDICTED BY IDOCK:   -0.18 KCAL/MOL
REMARK 927      BINDING AFFINITY PREDICTED BY RF-SCORE:    0.00 PKD
ROOT
HETATM    1 CL   UNL     1     -12.198  10.914  71.103  1.00  0.00    -0.458 Cl 
HETATM    2  C   UNL     1     -11.032   9.656  70.619  1.00  0.00    -0.320 C  
HETATM    3  C   UNL     1     -10.881   9.640  69.103  1.00  0.00    -0.190 C  
ENDROOT
BRANCH   3   4
HETATM    4  N   UNL     1      -9.695   8.922  68.684  1.00  0.00    -0.158 NA 
HETATM    5  H   UNL     1      -8.944   8.808  69.365  1.00  0.00     0.000 HD 
BRANCH   4   6
HETATM    6  P   UNL     1      -9.475   8.280  67.200  1.00  0.00    -0.189 P  
HETATM    7  O   UNL     1      -7.892   8.440  66.941  1.00  0.00    -0.094 OA 
HETATM    8  O   UNL     1     -10.289   8.883  66.101  1.00  0.00    -0.187 OA 
HETATM    9  C   UNL     1      -6.984   7.903  67.889  1.00  0.00    -0.077 C  
HETATM   10  C   UNL     1      -7.362   6.535  68.484  1.00  0.00    -0.087 C  
HETATM   11  C   UNL     1      -8.851   6.190  68.571  1.00  0.00    -0.113 C  
HETATM   12  N   UNL     1      -9.605   6.641  67.402  1.00  0.00    -0.123 NA 
BRANCH  12  13
HETATM   13  C   UNL     1      -9.278   5.840  66.193  1.00  0.00    -0.156 C  
HETATM   14  C   UNL     1      -9.971   4.471  66.125  1.00  0.00    -0.248 C  
HETATM   15 CL   UNL     1      -9.420   3.561  64.693  1.00  0.00    -0.148 Cl 
ENDBRANCH  12  13
ENDBRANCH   4   6
ENDBRANCH   3   4
TORSDOF 3
ENDMDL
MODEL      180
REMARK 921   NORMALIZED FREE ENERGY PREDICTED BY IDOCK:   -2.37 KCAL/MOL
REMARK 922        TOTAL FREE ENERGY PREDICTED BY IDOCK:   -2.72 KCAL/MOL
REMARK 923 INTER-LIGAND FREE ENERGY PREDICTED BY IDOCK:   -2.65 KCAL/MOL
REMARK 924 INTRA-LIGAND FREE ENERGY PREDICTED BY IDOCK:   -0.07 KCAL/MOL
REMARK 927      BINDING AFFINITY PREDICTED BY RF-SCORE:    0.00 PKD
ROOT
HETATM    1 CL   UNL     1      -9.282  12.779  67.459  1.00  0.00    -0.183 Cl 
HETATM    2  C   UNL     1      -8.941  11.085  67.023  1.00  0.00    -0.148 C  
HETATM    3  C   UNL     1     -10.197  10.239  67.193  1.00  0.00    -0.225 C  
ENDROOT
BRANCH   3   4
HETATM    4  N   UNL     1     -10.092   8.968  66.509  1.00  0.00    -0.288 NA 
HETATM    5  H   UNL     1     -10.794   8.751  65.800  1.00  0.00     0.000 HD 
BRANCH   4   6
HETATM    6  P   UNL     1      -8.931   7.856  66.789  1.00  0.00    -0.161 P  
HETATM    7  O   UNL     1      -8.887   7.740  68.396  1.00  0.00    -0.131 OA 
HETATM    8  O   UNL     1      -7.587   8.155  66.209  1.00  0.00    -0.087 OA 
HETATM    9  C   UNL     1     -10.084   7.443  69.096  1.00  0.00    -0.189 C  
HETATM   10  C   UNL     1     -11.005   6.397  68.442  1.00  0.00    -0.390 C  
HETATM   11  C   UNL     1     -10.959   6.272  66.917  1.00  0.00    -0.329 C  
HETATM   12  N   UNL     1      -9.605   6.399  66.379  1.00  0.00    -0.147 NA 
BRANCH  12  13
HETATM   13  C   UNL     1      -8.769   5.215  66.709  1.00  0.00    -0.108 C  
HETATM   14  C   UNL     1      -9.367   3.868  66.277  1.00  0.00    -0.179 C  
HETATM   15 CL   UNL     1      -8.332   2.520  66.819  1.00  0.00    -0.086 Cl 
ENDBRANCH  12  13
ENDBRANCH   4   6
ENDBRANCH   3   4
TORSDOF 3
ENDMDL
MODEL      181
REMARK 921   NORMALIZED FREE ENERGY PREDICTED BY IDOCK:   -2.37 KCAL/MOL
REMARK 922        TOTAL FREE ENERGY PREDICTED BY IDOCK:   -2.72 KCAL/MOL
REMARK 923 INTER-LIGAND FREE ENERGY PREDICTED BY IDOCK:   -2.53 KCAL/MOL
REMARK 924 INTRA-LIGAND FREE ENERGY PREDICTED BY IDOCK:   -0.19 KCAL/MOL
REMARK 927      BINDING AFFINITY PREDICTED BY RF-SCORE:    0.00 PKD
ROOT
HETATM    1 CL   UNL     1     -11.586   5.509  72.610  1.00  0.00    -0.339 Cl 
HETATM    2  C   UNL     1     -10.270   5.277  71.430  1.00  0.00    -0.213 C  
HETATM    3  C   UNL     1     -10.775   5.565  70.022  1.00  0.00    -0.286 C  
ENDROOT
BRANCH   3   4
HETATM    4  N   UNL     1      -9.688   5.763  69.086  1.00  0.00    -0.140 NA 
HETATM    5  H   UNL     1      -8.840   6.213  69.432  1.00  0.00     0.000 HD 
BRANCH   4   6
HETATM    6  P   UNL     1      -9.723   5.317  67.517  1.00  0.00    -0.167 P  
HETATM    7  O   UNL     1     -10.919   6.197  66.891  1.00  0.00    -0.343 OA 
HETATM    8  O   UNL     1      -9.902   3.856  67.256  1.00  0.00    -0.182 OA 
HETATM    9  C   UNL     1     -10.885   7.607  67.039  1.00  0.00    -0.149 C  
HETATM   10  C   UNL     1      -9.504   8.267  66.878  1.00  0.00    -0.240 C  
HETATM   11  C   UNL     1      -8.275   7.430  67.239  1.00  0.00    -0.115 C  
HETATM   12  N   UNL     1      -8.399   6.033  66.823  1.00  0.00    -0.106 NA 
BRANCH  12  13
HETATM   13  C   UNL     1      -8.320   5.890  65.346  1.00  0.00    -0.149 C  
HETATM   14  C   UNL     1      -7.039   6.458  64.715  1.00  0.00    -0.057 C  
HETATM   15 CL   UNL     1      -7.106   6.327  62.937  1.00  0.00    -0.045 Cl 
ENDBRANCH  12  13
ENDBRANCH   4   6
ENDBRANCH   3   4
TORSDOF 3
ENDMDL
MODEL      182
REMARK 921   NORMALIZED FREE ENERGY PREDICTED BY IDOCK:   -2.36 KCAL/MOL
REMARK 922        TOTAL FREE ENERGY PREDICTED BY IDOCK:   -2.71 KCAL/MOL
REMARK 923 INTER-LIGAND FREE ENERGY PREDICTED BY IDOCK:   -2.48 KCAL/MOL
REMARK 924 INTRA-LIGAND FREE ENERGY PREDICTED BY IDOCK:   -0.23 KCAL/MOL
REMARK 927      BINDING AFFINITY PREDICTED BY RF-SCORE:    0.00 PKD
ROOT
HETATM    1 CL   UNL     1      -7.388   6.015  70.330  1.00  0.00    -0.085 Cl 
HETATM    2  C   UNL     1      -8.372   6.921  69.151  1.00  0.00    -0.125 C  
HETATM    3  C   UNL     1      -8.753   8.281  69.723  1.00  0.00    -0.134 C  
ENDROOT
BRANCH   3   4
HETATM    4  N   UNL     1      -9.213   9.192  68.697  1.00  0.00    -0.136 NA 
HETATM    5  H   UNL     1     -10.119   9.003  68.267  1.00  0.00     0.000 HD 
BRANCH   4   6
HETATM    6  P   UNL     1      -8.387  10.500  68.179  1.00  0.00    -0.127 P  
HETATM    7  O   UNL     1      -7.624   9.977  66.859  1.00  0.00    -0.095 OA 
HETATM    8  O   UNL     1      -7.448  11.113  69.167  1.00  0.00    -0.123 OA 
HETATM    9  C   UNL     1      -8.381   9.384  65.818  1.00  0.00    -0.122 C  
HETATM   10  C   UNL     1      -9.735  10.048  65.507  1.00  0.00    -0.355 C  
HETATM   11  C   UNL     1     -10.446  10.770  66.654  1.00  0.00    -0.246 C  
HETATM   12  N   UNL     1      -9.523  11.507  67.517  1.00  0.00    -0.168 NA 
BRANCH  12  13
HETATM   13  C   UNL     1      -8.967  12.704  66.831  1.00  0.00    -0.213 C  
HETATM   14  C   UNL     1      -9.380  14.047  67.451  1.00  0.00    -0.220 C  
HETATM   15 CL   UNL     1      -8.743  15.405  66.484  1.00  0.00    -0.334 Cl 
ENDBRANCH  12  13
ENDBRANCH   4   6
ENDBRANCH   3   4
TORSDOF 3
ENDMDL
MODEL      183
REMARK 921   NORMALIZED FREE ENERGY PREDICTED BY IDOCK:   -2.36 KCAL/MOL
REMARK 922        TOTAL FREE ENERGY PREDICTED BY IDOCK:   -2.71 KCAL/MOL
REMARK 923 INTER-LIGAND FREE ENERGY PREDICTED BY IDOCK:   -2.70 KCAL/MOL
REMARK 924 INTRA-LIGAND FREE ENERGY PREDICTED BY IDOCK:   -0.01 KCAL/MOL
REMARK 927      BINDING AFFINITY PREDICTED BY RF-SCORE:    0.00 PKD
ROOT
HETATM    1 CL   UNL     1     -14.351   8.374  72.201  1.00  0.00    -0.517 Cl 
HETATM    2  C   UNL     1     -12.714   8.142  71.533  1.00  0.00    -0.308 C  
HETATM    3  C   UNL     1     -12.319   6.673  71.616  1.00  0.00    -0.332 C  
ENDROOT
BRANCH   3   4
HETATM    4  N   UNL     1     -11.190   6.366  70.764  1.00  0.00    -0.306 NA 
HETATM    5  H   UNL     1     -11.190   6.751  69.819  1.00  0.00     0.000 HD 
BRANCH   4   6
HETATM    6  P   UNL     1      -9.916   5.448  71.207  1.00  0.00    -0.210 P  
HETATM    7  O   UNL     1      -9.865   4.290  70.087  1.00  0.00    -0.209 OA 
HETATM    8  O   UNL     1      -9.964   4.890  72.593  1.00  0.00    -0.156 OA 
HETATM    9  C   UNL     1      -9.800   4.660  68.720  1.00  0.00    -0.131 C  
HETATM   10  C   UNL     1      -8.892   5.858  68.389  1.00  0.00    -0.111 C  
HETATM   11  C   UNL     1      -8.694   6.916  69.478  1.00  0.00    -0.133 C  
HETATM   12  N   UNL     1      -8.573   6.335  70.815  1.00  0.00    -0.134 NA 
BRANCH  12  13
HETATM   13  C   UNL     1      -7.283   5.616  70.988  1.00  0.00    -0.076 C  
HETATM   14  C   UNL     1      -6.865   5.392  72.449  1.00  0.00    -0.075 C  
HETATM   15 CL   UNL     1      -5.258   4.621  72.529  1.00  0.00    -0.004 Cl 
ENDBRANCH  12  13
ENDBRANCH   4   6
ENDBRANCH   3   4
TORSDOF 3
ENDMDL
MODEL      184
REMARK 921   NORMALIZED FREE ENERGY PREDICTED BY IDOCK:   -2.35 KCAL/MOL
REMARK 922        TOTAL FREE ENERGY PREDICTED BY IDOCK:   -2.70 KCAL/MOL
REMARK 923 INTER-LIGAND FREE ENERGY PREDICTED BY IDOCK:   -2.46 KCAL/MOL
REMARK 924 INTRA-LIGAND FREE ENERGY PREDICTED BY IDOCK:   -0.23 KCAL/MOL
REMARK 927      BINDING AFFINITY PREDICTED BY RF-SCORE:    0.00 PKD
ROOT
HETATM    1 CL   UNL     1     -10.309   5.925  74.343  1.00  0.00    -0.289 Cl 
HETATM    2  C   UNL     1     -10.419   5.164  72.735  1.00  0.00    -0.214 C  
HETATM    3  C   UNL     1     -10.729   6.217  71.678  1.00  0.00    -0.245 C  
ENDROOT
BRANCH   3   4
HETATM    4  N   UNL     1     -10.459   5.738  70.339  1.00  0.00    -0.252 NA 
HETATM    5  H   UNL     1     -11.166   5.153  69.893  1.00  0.00     0.000 HD 
BRANCH   4   6
HETATM    6  P   UNL     1      -9.103   6.066  69.492  1.00  0.00    -0.138 P  
HETATM    7  O   UNL     1      -9.191   5.075  68.223  1.00  0.00    -0.112 OA 
HETATM    8  O   UNL     1      -7.816   5.916  70.236  1.00  0.00    -0.096 OA 
HETATM    9  C   UNL     1     -10.348   5.110  67.404  1.00  0.00    -0.149 C  
HETATM   10  C   UNL     1     -10.929   6.506  67.118  1.00  0.00    -0.480 C  
HETATM   11  C   UNL     1     -10.707   7.592  68.174  1.00  0.00    -0.066 C  
HETATM   12  N   UNL     1      -9.374   7.534  68.774  1.00  0.00    -0.148 NA 
BRANCH  12  13
HETATM   13  C   UNL     1      -8.321   7.959  67.814  1.00  0.00    -0.129 C  
HETATM   14  C   UNL     1      -7.406   9.082  68.324  1.00  0.00    -0.082 C  
HETATM   15 CL   UNL     1      -6.256   9.579  67.053  1.00  0.00    -0.064 Cl 
ENDBRANCH  12  13
ENDBRANCH   4   6
ENDBRANCH   3   4
TORSDOF 3
ENDMDL
MODEL      185
REMARK 921   NORMALIZED FREE ENERGY PREDICTED BY IDOCK:   -2.34 KCAL/MOL
REMARK 922        TOTAL FREE ENERGY PREDICTED BY IDOCK:   -2.68 KCAL/MOL
REMARK 923 INTER-LIGAND FREE ENERGY PREDICTED BY IDOCK:   -2.77 KCAL/MOL
REMARK 924 INTRA-LIGAND FREE ENERGY PREDICTED BY IDOCK:    0.09 KCAL/MOL
REMARK 927      BINDING AFFINITY PREDICTED BY RF-SCORE:    0.00 PKD
ROOT
HETATM    1 CL   UNL     1     -12.387  13.055  65.393  1.00  0.00    -0.517 Cl 
HETATM    2  C   UNL     1     -11.525  12.810  66.934  1.00  0.00    -0.340 C  
HETATM    3  C   UNL     1     -11.122  11.348  67.081  1.00  0.00    -0.305 C  
ENDROOT
BRANCH   3   4
HETATM    4  N   UNL     1     -10.112  11.163  68.101  1.00  0.00    -0.173 NA 
HETATM    5  H   UNL     1     -10.236  11.655  68.986  1.00  0.00     0.000 HD 
BRANCH   4   6
HETATM    6  P   UNL     1      -8.789  10.223  67.937  1.00  0.00    -0.122 P  
HETATM    7  O   UNL     1      -8.415   9.814  69.451  1.00  0.00    -0.131 OA 
HETATM    8  O   UNL     1      -7.633  10.841  67.219  1.00  0.00    -0.097 OA 
HETATM    9  C   UNL     1      -9.403   9.199  70.260  1.00  0.00    -0.220 C  
HETATM   10  C   UNL     1     -10.295   8.159  69.560  1.00  0.00    -0.222 C  
HETATM   11  C   UNL     1     -10.536   8.334  68.058  1.00  0.00    -0.181 C  
HETATM   12  N   UNL     1      -9.341   8.779  67.341  1.00  0.00    -0.135 NA 
BRANCH  12  13
HETATM   13  C   UNL     1      -8.315   7.707  67.263  1.00  0.00    -0.115 C  
HETATM   14  C   UNL     1      -8.373   6.855  65.986  1.00  0.00    -0.134 C  
HETATM   15 CL   UNL     1      -7.170   5.540  66.055  1.00  0.00    -0.075 Cl 
ENDBRANCH  12  13
ENDBRANCH   4   6
ENDBRANCH   3   4
TORSDOF 3
ENDMDL
MODEL      186
REMARK 921   NORMALIZED FREE ENERGY PREDICTED BY IDOCK:   -2.33 KCAL/MOL
REMARK 922        TOTAL FREE ENERGY PREDICTED BY IDOCK:   -2.67 KCAL/MOL
REMARK 923 INTER-LIGAND FREE ENERGY PREDICTED BY IDOCK:   -2.40 KCAL/MOL
REMARK 924 INTRA-LIGAND FREE ENERGY PREDICTED BY IDOCK:   -0.27 KCAL/MOL
REMARK 927      BINDING AFFINITY PREDICTED BY RF-SCORE:    0.00 PKD
ROOT
HETATM    1 CL   UNL     1     -13.083  11.706  71.095  1.00  0.00    -0.274 Cl 
HETATM    2  C   UNL     1     -11.722  10.571  70.902  1.00  0.00    -0.335 C  
HETATM    3  C   UNL     1     -11.277  10.533  69.446  1.00  0.00    -0.269 C  
ENDROOT
BRANCH   3   4
HETATM    4  N   UNL     1      -9.965   9.938  69.295  1.00  0.00    -0.194 NA 
HETATM    5  H   UNL     1      -9.155  10.555  69.359  1.00  0.00     0.000 HD 
BRANCH   4   6
HETATM    6  P   UNL     1      -9.691   8.352  69.030  1.00  0.00    -0.179 P  
HETATM    7  O   UNL     1      -8.201   8.315  68.415  1.00  0.00    -0.128 OA 
HETATM    8  O   UNL     1     -10.679   7.655  68.152  1.00  0.00    -0.165 OA 
HETATM    9  C   UNL     1      -7.144   8.920  69.141  1.00  0.00    -0.063 C  
HETATM   10  C   UNL     1      -7.170   8.717  70.666  1.00  0.00    -0.058 C  
HETATM   11  C   UNL     1      -8.537   8.519  71.327  1.00  0.00    -0.176 C  
HETATM   12  N   UNL     1      -9.438   7.690  70.527  1.00  0.00    -0.164 NA 
BRANCH  12  13
HETATM   13  C   UNL     1      -9.007   6.267  70.512  1.00  0.00    -0.151 C  
HETATM   14  C   UNL     1      -9.264   5.505  71.821  1.00  0.00    -0.142 C  
HETATM   15 CL   UNL     1      -8.611   3.848  71.719  1.00  0.00    -0.105 Cl 
ENDBRANCH  12  13
ENDBRANCH   4   6
ENDBRANCH   3   4
TORSDOF 3
ENDMDL
MODEL      187
REMARK 921   NORMALIZED FREE ENERGY PREDICTED BY IDOCK:   -2.33 KCAL/MOL
REMARK 922        TOTAL FREE ENERGY PREDICTED BY IDOCK:   -2.67 KCAL/MOL
REMARK 923 INTER-LIGAND FREE ENERGY PREDICTED BY IDOCK:   -2.46 KCAL/MOL
REMARK 924 INTRA-LIGAND FREE ENERGY PREDICTED BY IDOCK:   -0.21 KCAL/MOL
REMARK 927      BINDING AFFINITY PREDICTED BY RF-SCORE:    0.00 PKD
ROOT
HETATM    1 CL   UNL     1     -12.451  10.722  71.137  1.00  0.00    -0.491 Cl 
HETATM    2  C   UNL     1     -11.005   9.683  71.049  1.00  0.00    -0.361 C  
HETATM    3  C   UNL     1     -11.320   8.414  70.267  1.00  0.00    -0.129 C  
ENDROOT
BRANCH   3   4
HETATM    4  N   UNL     1     -10.119   7.727  69.843  1.00  0.00    -0.199 NA 
HETATM    5  H   UNL     1      -9.371   8.287  69.433  1.00  0.00     0.000 HD 
BRANCH   4   6
HETATM    6  P   UNL     1      -9.876   6.118  69.971  1.00  0.00    -0.182 P  
HETATM    7  O   UNL     1      -8.373   5.910  69.429  1.00  0.00    -0.111 OA 
HETATM    8  O   UNL     1     -10.858   5.250  69.255  1.00  0.00    -0.151 OA 
HETATM    9  C   UNL     1      -7.320   6.653  70.022  1.00  0.00    -0.089 C  
HETATM   10  C   UNL     1      -7.391   6.820  71.551  1.00  0.00    -0.085 C  
HETATM   11  C   UNL     1      -8.779   6.809  72.198  1.00  0.00    -0.132 C  
HETATM   12  N   UNL     1      -9.678   5.828  71.590  1.00  0.00    -0.160 NA 
BRANCH  12  13
HETATM   13  C   UNL     1      -9.281   4.436  71.927  1.00  0.00    -0.129 C  
HETATM   14  C   UNL     1     -10.403   3.579  72.534  1.00  0.00    -0.122 C  
HETATM   15 CL   UNL     1      -9.783   1.970  72.994  1.00  0.00    -0.123 Cl 
ENDBRANCH  12  13
ENDBRANCH   4   6
ENDBRANCH   3   4
TORSDOF 3
ENDMDL
MODEL      188
REMARK 921   NORMALIZED FREE ENERGY PREDICTED BY IDOCK:   -2.31 KCAL/MOL
REMARK 922        TOTAL FREE ENERGY PREDICTED BY IDOCK:   -2.65 KCAL/MOL
REMARK 923 INTER-LIGAND FREE ENERGY PREDICTED BY IDOCK:   -2.49 KCAL/MOL
REMARK 924 INTRA-LIGAND FREE ENERGY PREDICTED BY IDOCK:   -0.15 KCAL/MOL
REMARK 927      BINDING AFFINITY PREDICTED BY RF-SCORE:    0.00 PKD
ROOT
HETATM    1 CL   UNL     1      -8.001   5.669  70.292  1.00  0.00    -0.101 Cl 
HETATM    2  C   UNL     1      -7.441   6.786  69.021  1.00  0.00    -0.096 C  
HETATM    3  C   UNL     1      -8.392   7.972  68.912  1.00  0.00    -0.126 C  
ENDROOT
BRANCH   3   4
HETATM    4  N   UNL     1      -7.801   9.075  68.184  1.00  0.00    -0.100 NA 
HETATM    5  H   UNL     1      -6.817   9.001  67.927  1.00  0.00     0.000 HD 
BRANCH   4   6
HETATM    6  P   UNL     1      -8.599  10.430  67.745  1.00  0.00    -0.122 P  
HETATM    7  O   UNL     1      -7.428  11.430  67.269  1.00  0.00    -0.118 OA 
HETATM    8  O   UNL     1      -9.471  11.042  68.793  1.00  0.00    -0.189 OA 
HETATM    9  C   UNL     1      -6.524  11.000  66.264  1.00  0.00    -0.112 C  
HETATM   10  C   UNL     1      -7.139  10.197  65.104  1.00  0.00    -0.137 C  
HETATM   11  C   UNL     1      -8.398   9.378  65.402  1.00  0.00    -0.137 C  
HETATM   12  N   UNL     1      -9.323  10.069  66.300  1.00  0.00    -0.161 NA 
BRANCH  12  13
HETATM   13  C   UNL     1      -9.980  11.223  65.630  1.00  0.00    -0.247 C  
HETATM   14  C   UNL     1     -10.492  10.934  64.212  1.00  0.00    -0.335 C  
HETATM   15 CL   UNL     1     -11.160  12.414  63.473  1.00  0.00    -0.514 Cl 
ENDBRANCH  12  13
ENDBRANCH   4   6
ENDBRANCH   3   4
TORSDOF 3
ENDMDL
MODEL      189
REMARK 921   NORMALIZED FREE ENERGY PREDICTED BY IDOCK:   -2.31 KCAL/MOL
REMARK 922        TOTAL FREE ENERGY PREDICTED BY IDOCK:   -2.65 KCAL/MOL
REMARK 923 INTER-LIGAND FREE ENERGY PREDICTED BY IDOCK:   -2.94 KCAL/MOL
REMARK 924 INTRA-LIGAND FREE ENERGY PREDICTED BY IDOCK:    0.29 KCAL/MOL
REMARK 927      BINDING AFFINITY PREDICTED BY RF-SCORE:    0.00 PKD
ROOT
HETATM    1 CL   UNL     1      -9.479   3.039  64.481  1.00  0.00    -0.144 Cl 
HETATM    2  C   UNL     1      -9.786   4.528  65.412  1.00  0.00    -0.187 C  
HETATM    3  C   UNL     1      -8.620   5.496  65.250  1.00  0.00    -0.149 C  
ENDROOT
BRANCH   3   4
HETATM    4  N   UNL     1      -8.970   6.840  65.657  1.00  0.00    -0.358 NA 
HETATM    5  H   UNL     1      -8.579   7.615  65.121  1.00  0.00     0.000 HD 
BRANCH   4   6
HETATM    6  P   UNL     1      -9.945   7.204  66.914  1.00  0.00    -0.209 P  
HETATM    7  O   UNL     1      -8.987   7.059  68.202  1.00  0.00    -0.128 OA 
HETATM    8  O   UNL     1     -11.185   6.379  67.039  1.00  0.00    -0.373 OA 
HETATM    9  C   UNL     1      -7.776   7.795  68.242  1.00  0.00    -0.119 C  
HETATM   10  C   UNL     1      -7.843   9.234  67.702  1.00  0.00    -0.096 C  
HETATM   11  C   UNL     1      -8.884   9.533  66.619  1.00  0.00    -0.135 C  
HETATM   12  N   UNL     1     -10.154   8.846  66.851  1.00  0.00    -0.248 NA 
BRANCH  12  13
HETATM   13  C   UNL     1     -10.888   9.422  68.009  1.00  0.00    -0.139 C  
HETATM   14  C   UNL     1     -10.999  10.954  67.998  1.00  0.00    -0.265 C  
HETATM   15 CL   UNL     1     -11.801  11.534  69.483  1.00  0.00    -0.387 Cl 
ENDBRANCH  12  13
ENDBRANCH   4   6
ENDBRANCH   3   4
TORSDOF 3
ENDMDL
MODEL      190
REMARK 921   NORMALIZED FREE ENERGY PREDICTED BY IDOCK:   -2.25 KCAL/MOL
REMARK 922        TOTAL FREE ENERGY PREDICTED BY IDOCK:   -2.58 KCAL/MOL
REMARK 923 INTER-LIGAND FREE ENERGY PREDICTED BY IDOCK:   -2.36 KCAL/MOL
REMARK 924 INTRA-LIGAND FREE ENERGY PREDICTED BY IDOCK:   -0.22 KCAL/MOL
REMARK 927      BINDING AFFINITY PREDICTED BY RF-SCORE:    0.00 PKD
ROOT
HETATM    1 CL   UNL     1      -6.305   8.566  74.081  1.00  0.00    -0.144 Cl 
HETATM    2  C   UNL     1      -7.277   7.468  73.067  1.00  0.00    -0.077 C  
HETATM    3  C   UNL     1      -8.460   8.219  72.470  1.00  0.00    -0.187 C  
ENDROOT
BRANCH   3   4
HETATM    4  N   UNL     1      -9.055   7.502  71.362  1.00  0.00    -0.137 NA 
HETATM    5  H   UNL     1      -9.775   6.812  71.575  1.00  0.00     0.000 HD 
BRANCH   4   6
HETATM    6  P   UNL     1      -8.654   7.719  69.795  1.00  0.00    -0.134 P  
HETATM    7  O   UNL     1      -8.567   6.221  69.207  1.00  0.00    -0.123 OA 
HETATM    8  O   UNL     1      -7.403   8.497  69.542  1.00  0.00    -0.062 OA 
HETATM    9  C   UNL     1      -9.684   5.360  69.353  1.00  0.00    -0.165 C  
HETATM   10  C   UNL     1     -11.065   6.008  69.146  1.00  0.00    -0.405 C  
HETATM   11  C   UNL     1     -11.200   7.499  69.469  1.00  0.00     0.048 C  
HETATM   12  N   UNL     1     -10.030   8.275  69.059  1.00  0.00    -0.184 NA 
BRANCH  12  13
HETATM   13  C   UNL     1      -9.939   8.391  67.579  1.00  0.00    -0.200 C  
HETATM   14  C   UNL     1      -9.911   9.832  67.050  1.00  0.00    -0.203 C  
HETATM   15 CL   UNL     1      -9.909   9.844  65.266  1.00  0.00    -0.387 Cl 
ENDBRANCH  12  13
ENDBRANCH   4   6
ENDBRANCH   3   4
TORSDOF 3
ENDMDL
MODEL      191
REMARK 921   NORMALIZED FREE ENERGY PREDICTED BY IDOCK:   -2.17 KCAL/MOL
REMARK 922        TOTAL FREE ENERGY PREDICTED BY IDOCK:   -2.49 KCAL/MOL
REMARK 923 INTER-LIGAND FREE ENERGY PREDICTED BY IDOCK:   -2.35 KCAL/MOL
REMARK 924 INTRA-LIGAND FREE ENERGY PREDICTED BY IDOCK:   -0.14 KCAL/MOL
REMARK 927      BINDING AFFINITY PREDICTED BY RF-SCORE:    0.00 PKD
ROOT
HETATM    1 CL   UNL     1     -12.503  10.727  71.260  1.00  0.00    -0.494 Cl 
HETATM    2  C   UNL     1     -11.213   9.499  71.353  1.00  0.00    -0.382 C  
HETATM    3  C   UNL     1     -11.752   8.142  70.917  1.00  0.00    -0.244 C  
ENDROOT
BRANCH   3   4
HETATM    4  N   UNL     1     -10.688   7.209  70.611  1.00  0.00    -0.230 NA 
HETATM    5  H   UNL     1     -10.752   6.271  71.007  1.00  0.00     0.000 HD 
BRANCH   4   6
HETATM    6  P   UNL     1      -9.393   7.552  69.679  1.00  0.00    -0.151 P  
HETATM    7  O   UNL     1      -8.304   8.120  70.723  1.00  0.00    -0.112 OA 
HETATM    8  O   UNL     1      -9.635   8.497  68.548  1.00  0.00    -0.148 OA 
HETATM    9  C   UNL     1      -7.953   7.329  71.847  1.00  0.00    -0.091 C  
HETATM   10  C   UNL     1      -7.808   5.818  71.588  1.00  0.00    -0.109 C  
HETATM   11  C   UNL     1      -8.644   5.213  70.458  1.00  0.00    -0.118 C  
HETATM   12  N   UNL     1      -8.729   6.086  69.287  1.00  0.00    -0.117 NA 
BRANCH  12  13
HETATM   13  C   UNL     1      -7.432   6.165  68.565  1.00  0.00    -0.087 C  
HETATM   14  C   UNL     1      -6.876   4.813  68.095  1.00  0.00    -0.056 C  
HETATM   15 CL   UNL     1      -5.272   5.023  67.341  1.00  0.00    -0.007 Cl 
ENDBRANCH  12  13
ENDBRANCH   4   6
ENDBRANCH   3   4
TORSDOF 3
ENDMDL
MODEL      192
REMARK 921   NORMALIZED FREE ENERGY PREDICTED BY IDOCK:   -2.15 KCAL/MOL
REMARK 922        TOTAL FREE ENERGY PREDICTED BY IDOCK:   -2.46 KCAL/MOL
REMARK 923 INTER-LIGAND FREE ENERGY PREDICTED BY IDOCK:   -2.26 KCAL/MOL
REMARK 924 INTRA-LIGAND FREE ENERGY PREDICTED BY IDOCK:   -0.21 KCAL/MOL
REMARK 927      BINDING AFFINITY PREDICTED BY RF-SCORE:    0.00 PKD
ROOT
HETATM    1 CL   UNL     1      -7.295   9.067  63.794  1.00  0.00    -0.099 Cl 
HETATM    2  C   UNL     1      -8.096   9.329  65.365  1.00  0.00    -0.122 C  
HETATM    3  C   UNL     1      -8.988   8.140  65.701  1.00  0.00    -0.080 C  
ENDROOT
BRANCH   3   4
HETATM    4  N   UNL     1      -9.357   8.117  67.100  1.00  0.00    -0.139 NA 
HETATM    5  H   UNL     1      -9.492   9.013  67.570  1.00  0.00     0.000 HD 
BRANCH   4   6
HETATM    6  P   UNL     1      -9.574   6.761  67.981  1.00  0.00    -0.118 P  
HETATM    7  O   UNL     1      -8.088   6.384  68.481  1.00  0.00    -0.108 OA 
HETATM    8  O   UNL     1     -10.237   5.623  67.276  1.00  0.00    -0.164 OA 
HETATM    9  C   UNL     1      -7.333   7.356  69.184  1.00  0.00    -0.090 C  
HETATM   10  C   UNL     1      -8.112   8.207  70.203  1.00  0.00    -0.113 C  
HETATM   11  C   UNL     1      -9.601   8.443  69.932  1.00  0.00    -0.171 C  
HETATM   12  N   UNL     1     -10.273   7.259  69.398  1.00  0.00    -0.187 NA 
BRANCH  12  13
HETATM   13  C   UNL     1     -10.416   6.196  70.427  1.00  0.00    -0.230 C  
HETATM   14  C   UNL     1     -11.402   6.526  71.557  1.00  0.00    -0.291 C  
HETATM   15 CL   UNL     1     -11.408   5.229  72.782  1.00  0.00    -0.349 Cl 
ENDBRANCH  12  13
ENDBRANCH   4   6
ENDBRANCH   3   4
TORSDOF 3
ENDMDL
MODEL      193
REMARK 921   NORMALIZED FREE ENERGY PREDICTED BY IDOCK:   -2.14 KCAL/MOL
REMARK 922        TOTAL FREE ENERGY PREDICTED BY IDOCK:   -2.45 KCAL/MOL
REMARK 923 INTER-LIGAND FREE ENERGY PREDICTED BY IDOCK:   -2.18 KCAL/MOL
REMARK 924 INTRA-LIGAND FREE ENERGY PREDICTED BY IDOCK:   -0.27 KCAL/MOL
REMARK 927      BINDING AFFINITY PREDICTED BY RF-SCORE:    0.00 PKD
ROOT
HETATM    1 CL   UNL     1      -5.660  10.219  70.952  1.00  0.00    -0.083 Cl 
HETATM    2  C   UNL     1      -7.035   9.086  71.000  1.00  0.00    -0.097 C  
HETATM    3  C   UNL     1      -8.015   9.406  69.879  1.00  0.00    -0.130 C  
ENDROOT
BRANCH   3   4
HETATM    4  N   UNL     1      -8.934   8.314  69.633  1.00  0.00    -0.148 NA 
HETATM    5  H   UNL     1      -9.866   8.377  70.046  1.00  0.00     0.000 HD 
BRANCH   4   6
HETATM    6  P   UNL     1      -8.587   6.991  68.744  1.00  0.00    -0.122 P  
HETATM    7  O   UNL     1      -8.170   5.886  69.841  1.00  0.00    -0.112 OA 
HETATM    8  O   UNL     1      -7.538   7.167  67.694  1.00  0.00    -0.105 OA 
HETATM    9  C   UNL     1      -9.071   5.593  70.896  1.00  0.00    -0.144 C  
HETATM   10  C   UNL     1     -10.560   5.527  70.512  1.00  0.00    -0.339 C  
HETATM   11  C   UNL     1     -11.021   6.381  69.328  1.00  0.00    -0.356 C  
HETATM   12  N   UNL     1     -10.050   6.404  68.235  1.00  0.00    -0.143 NA 
BRANCH  12  13
HETATM   13  C   UNL     1      -9.982   5.095  67.533  1.00  0.00    -0.174 C  
HETATM   14  C   UNL     1      -9.983   5.190  66.000  1.00  0.00    -0.163 C  
HETATM   15 CL   UNL     1     -10.008   3.561  65.272  1.00  0.00    -0.061 Cl 
ENDBRANCH  12  13
ENDBRANCH   4   6
ENDBRANCH   3   4
TORSDOF 3
ENDMDL
MODEL      194
REMARK 921   NORMALIZED FREE ENERGY PREDICTED BY IDOCK:   -2.14 KCAL/MOL
REMARK 922        TOTAL FREE ENERGY PREDICTED BY IDOCK:   -2.45 KCAL/MOL
REMARK 923 INTER-LIGAND FREE ENERGY PREDICTED BY IDOCK:   -2.23 KCAL/MOL
REMARK 924 INTRA-LIGAND FREE ENERGY PREDICTED BY IDOCK:   -0.22 KCAL/MOL
REMARK 927      BINDING AFFINITY PREDICTED BY RF-SCORE:    0.00 PKD
ROOT
HETATM    1 CL   UNL     1      -5.717   5.374  71.979  1.00  0.00    -0.017 Cl 
HETATM    2  C   UNL     1      -6.711   6.015  70.645  1.00  0.00    -0.053 C  
HETATM    3  C   UNL     1      -8.144   6.227  71.117  1.00  0.00    -0.118 C  
ENDROOT
BRANCH   3   4
HETATM    4  N   UNL     1      -8.890   7.082  70.219  1.00  0.00    -0.148 NA 
HETATM    5  H   UNL     1      -8.653   8.075  70.203  1.00  0.00     0.000 HD 
BRANCH   4   6
HETATM    6  P   UNL     1     -10.083   6.572  69.229  1.00  0.00    -0.190 P  
HETATM    7  O   UNL     1     -10.679   7.935  68.608  1.00  0.00    -0.152 OA 
HETATM    8  O   UNL     1     -11.143   5.732  69.863  1.00  0.00    -0.360 OA 
HETATM    9  C   UNL     1      -9.798   8.834  67.955  1.00  0.00    -0.169 C  
HETATM   10  C   UNL     1      -8.715   8.193  67.069  1.00  0.00    -0.136 C  
HETATM   11  C   UNL     1      -8.233   6.790  67.449  1.00  0.00    -0.122 C  
HETATM   12  N   UNL     1      -9.317   5.925  67.910  1.00  0.00    -0.108 NA 
BRANCH  12  13
HETATM   13  C   UNL     1     -10.223   5.537  66.796  1.00  0.00    -0.233 C  
HETATM   14  C   UNL     1      -9.772   4.301  66.005  1.00  0.00    -0.211 C  
HETATM   15 CL   UNL     1     -10.874   3.999  64.634  1.00  0.00    -0.220 Cl 
ENDBRANCH  12  13
ENDBRANCH   4   6
ENDBRANCH   3   4
TORSDOF 3
ENDMDL
MODEL      195
REMARK 921   NORMALIZED FREE ENERGY PREDICTED BY IDOCK:   -2.13 KCAL/MOL
REMARK 922        TOTAL FREE ENERGY PREDICTED BY IDOCK:   -2.43 KCAL/MOL
REMARK 923 INTER-LIGAND FREE ENERGY PREDICTED BY IDOCK:   -2.41 KCAL/MOL
REMARK 924 INTRA-LIGAND FREE ENERGY PREDICTED BY IDOCK:   -0.02 KCAL/MOL
REMARK 927      BINDING AFFINITY PREDICTED BY RF-SCORE:    0.00 PKD
ROOT
HETATM    1 CL   UNL     1     -10.866   1.942  73.996  1.00  0.00    -0.221 Cl 
HETATM    2  C   UNL     1     -10.982   3.688  73.654  1.00  0.00    -0.243 C  
HETATM    3  C   UNL     1      -9.593   4.314  73.656  1.00  0.00    -0.112 C  
ENDROOT
BRANCH   3   4
HETATM    4  N   UNL     1      -9.584   5.616  73.023  1.00  0.00    -0.150 NA 
HETATM    5  H   UNL     1      -9.772   6.429  73.610  1.00  0.00     0.000 HD 
BRANCH   4   6
HETATM    6  P   UNL     1      -9.295   5.875  71.439  1.00  0.00    -0.149 P  
HETATM    7  O   UNL     1     -10.655   6.557  70.905  1.00  0.00    -0.217 OA 
HETATM    8  O   UNL     1      -8.917   4.672  70.638  1.00  0.00    -0.110 OA 
HETATM    9  C   UNL     1     -11.138   7.723  71.552  1.00  0.00    -0.236 C  
HETATM   10  C   UNL     1     -10.073   8.752  71.970  1.00  0.00    -0.397 C  
HETATM   11  C   UNL     1      -8.671   8.226  72.289  1.00  0.00    -0.200 C  
HETATM   12  N   UNL     1      -8.248   7.158  71.383  1.00  0.00    -0.107 NA 
BRANCH  12  13
HETATM   13  C   UNL     1      -7.971   7.673  70.016  1.00  0.00    -0.114 C  
HETATM   14  C   UNL     1      -7.149   6.726  69.130  1.00  0.00    -0.088 C  
HETATM   15 CL   UNL     1      -6.789   7.494  67.559  1.00  0.00    -0.069 Cl 
ENDBRANCH  12  13
ENDBRANCH   4   6
ENDBRANCH   3   4
TORSDOF 3
ENDMDL
MODEL      196
REMARK 921   NORMALIZED FREE ENERGY PREDICTED BY IDOCK:   -2.12 KCAL/MOL
REMARK 922        TOTAL FREE ENERGY PREDICTED BY IDOCK:   -2.42 KCAL/MOL
REMARK 923 INTER-LIGAND FREE ENERGY PREDICTED BY IDOCK:   -2.18 KCAL/MOL
REMARK 924 INTRA-LIGAND FREE ENERGY PREDICTED BY IDOCK:   -0.25 KCAL/MOL
REMARK 927      BINDING AFFINITY PREDICTED BY RF-SCORE:    0.00 PKD
ROOT
HETATM    1 CL   UNL     1      -9.285   3.585  64.374  1.00  0.00    -0.127 Cl 
HETATM    2  C   UNL     1      -8.516   4.049  65.913  1.00  0.00    -0.109 C  
HETATM    3  C   UNL     1      -9.081   5.377  66.401  1.00  0.00    -0.141 C  
ENDROOT
BRANCH   3   4
HETATM    4  N   UNL     1      -8.786   5.612  67.798  1.00  0.00    -0.108 NA 
HETATM    5  H   UNL     1      -7.825   5.851  68.046  1.00  0.00     0.000 HD 
BRANCH   4   6
HETATM    6  P   UNL     1      -9.879   5.522  69.006  1.00  0.00    -0.195 P  
HETATM    7  O   UNL     1      -9.839   3.973  69.449  1.00  0.00    -0.185 OA 
HETATM    8  O   UNL     1     -11.262   5.976  68.670  1.00  0.00    -0.307 OA 
HETATM    9  C   UNL     1      -8.597   3.396  69.817  1.00  0.00    -0.063 C  
HETATM   10  C   UNL     1      -7.663   4.286  70.656  1.00  0.00    -0.052 C  
HETATM   11  C   UNL     1      -7.777   5.801  70.469  1.00  0.00    -0.099 C  
HETATM   12  N   UNL     1      -9.160   6.249  70.310  1.00  0.00    -0.153 NA 
BRANCH  12  13
HETATM   13  C   UNL     1      -9.924   6.139  71.580  1.00  0.00    -0.177 C  
HETATM   14  C   UNL     1      -9.554   7.185  72.643  1.00  0.00    -0.148 C  
HETATM   15 CL   UNL     1     -10.455   6.887  74.154  1.00  0.00    -0.312 Cl 
ENDBRANCH  12  13
ENDBRANCH   4   6
ENDBRANCH   3   4
TORSDOF 3
ENDMDL
MODEL      197
REMARK 921   NORMALIZED FREE ENERGY PREDICTED BY IDOCK:   -2.10 KCAL/MOL
REMARK 922        TOTAL FREE ENERGY PREDICTED BY IDOCK:   -2.40 KCAL/MOL
REMARK 923 INTER-LIGAND FREE ENERGY PREDICTED BY IDOCK:   -2.38 KCAL/MOL
REMARK 924 INTRA-LIGAND FREE ENERGY PREDICTED BY IDOCK:   -0.02 KCAL/MOL
REMARK 927      BINDING AFFINITY PREDICTED BY RF-SCORE:    0.00 PKD
ROOT
HETATM    1 CL   UNL     1      -8.843  10.721  66.060  1.00  0.00    -0.182 Cl 
HETATM    2  C   UNL     1      -9.762  10.243  67.511  1.00  0.00    -0.169 C  
HETATM    3  C   UNL     1      -9.620   8.745  67.749  1.00  0.00    -0.148 C  
ENDROOT
BRANCH   3   4
HETATM    4  N   UNL     1     -10.015   8.368  69.089  1.00  0.00    -0.191 NA 
HETATM    5  H   UNL     1     -10.051   9.103  69.797  1.00  0.00     0.000 HD 
BRANCH   4   6
HETATM    6  P   UNL     1     -10.408   6.853  69.550  1.00  0.00    -0.226 P  
HETATM    7  O   UNL     1      -9.307   5.930  68.821  1.00  0.00    -0.121 OA 
HETATM    8  O   UNL     1     -11.804   6.417  69.239  1.00  0.00    -0.146 OA 
HETATM    9  C   UNL     1      -7.932   6.206  69.030  1.00  0.00    -0.108 C  
HETATM   10  C   UNL     1      -7.534   6.597  70.464  1.00  0.00    -0.087 C  
HETATM   11  C   UNL     1      -8.594   7.290  71.326  1.00  0.00    -0.119 C  
HETATM   12  N   UNL     1      -9.932   6.734  71.132  1.00  0.00    -0.182 NA 
BRANCH  12  13
HETATM   13  C   UNL     1     -10.051   5.371  71.714  1.00  0.00    -0.196 C  
HETATM   14  C   UNL     1     -11.274   5.166  72.621  1.00  0.00    -0.209 C  
HETATM   15 CL   UNL     1     -11.251   3.534  73.343  1.00  0.00    -0.297 Cl 
ENDBRANCH  12  13
ENDBRANCH   4   6
ENDBRANCH   3   4
TORSDOF 3
ENDMDL
MODEL      198
REMARK 921   NORMALIZED FREE ENERGY PREDICTED BY IDOCK:   -2.10 KCAL/MOL
REMARK 922        TOTAL FREE ENERGY PREDICTED BY IDOCK:   -2.40 KCAL/MOL
REMARK 923 INTER-LIGAND FREE ENERGY PREDICTED BY IDOCK:   -2.40 KCAL/MOL
REMARK 924 INTRA-LIGAND FREE ENERGY PREDICTED BY IDOCK:   -0.00 KCAL/MOL
REMARK 927      BINDING AFFINITY PREDICTED BY RF-SCORE:    0.00 PKD
ROOT
HETATM    1 CL   UNL     1     -11.072   9.206  71.624  1.00  0.00    -0.426 Cl 
HETATM    2  C   UNL     1     -11.092   8.306  70.086  1.00  0.00    -0.189 C  
HETATM    3  C   UNL     1     -11.114   9.278  68.913  1.00  0.00     0.079 C  
ENDROOT
BRANCH   3   4
HETATM    4  N   UNL     1     -10.753   8.633  67.668  1.00  0.00    -0.467 NA 
HETATM    5  H   UNL     1     -11.164   7.721  67.469  1.00  0.00     0.000 HD 
BRANCH   4   6
HETATM    6  P   UNL     1      -9.735   9.263  66.558  1.00  0.00    -0.281 P  
HETATM    7  O   UNL     1      -8.627  10.031  67.442  1.00  0.00    -0.125 OA 
HETATM    8  O   UNL     1     -10.357  10.156  65.534  1.00  0.00    -0.248 OA 
HETATM    9  C   UNL     1      -7.934   9.313  68.449  1.00  0.00    -0.102 C  
HETATM   10  C   UNL     1      -7.523   7.874  68.089  1.00  0.00    -0.107 C  
HETATM   11  C   UNL     1      -8.394   7.125  67.077  1.00  0.00    -0.118 C  
HETATM   12  N   UNL     1      -8.857   7.981  65.985  1.00  0.00    -0.160 NA 
BRANCH  12  13
HETATM   13  C   UNL     1      -7.746   8.350  65.068  1.00  0.00    -0.104 C  
HETATM   14  C   UNL     1      -7.351   7.255  64.067  1.00  0.00    -0.088 C  
HETATM   15 CL   UNL     1      -5.944   7.771  63.097  1.00  0.00    -0.061 Cl 
ENDBRANCH  12  13
ENDBRANCH   4   6
ENDBRANCH   3   4
TORSDOF 3
ENDMDL
MODEL      199
REMARK 921   NORMALIZED FREE ENERGY PREDICTED BY IDOCK:   -2.09 KCAL/MOL
REMARK 922        TOTAL FREE ENERGY PREDICTED BY IDOCK:   -2.39 KCAL/MOL
REMARK 923 INTER-LIGAND FREE ENERGY PREDICTED BY IDOCK:   -2.17 KCAL/MOL
REMARK 924 INTRA-LIGAND FREE ENERGY PREDICTED BY IDOCK:   -0.22 KCAL/MOL
REMARK 927      BINDING AFFINITY PREDICTED BY RF-SCORE:    0.00 PKD
ROOT
HETATM    1 CL   UNL     1     -10.746   9.868  70.517  1.00  0.00    -0.368 Cl 
HETATM    2  C   UNL     1     -10.250   8.795  69.183  1.00  0.00    -0.207 C  
HETATM    3  C   UNL     1      -9.555   7.558  69.739  1.00  0.00    -0.163 C  
ENDROOT
BRANCH   3   4
HETATM    4  N   UNL     1      -9.472   6.496  68.760  1.00  0.00    -0.129 NA 
HETATM    5  H   UNL     1     -10.190   5.771  68.784  1.00  0.00     0.000 HD 
BRANCH   4   6
HETATM    6  P   UNL     1      -8.313   6.375  67.618  1.00  0.00    -0.116 P  
HETATM    7  O   UNL     1      -7.679   4.913  67.865  1.00  0.00    -0.082 OA 
HETATM    8  O   UNL     1      -7.273   7.448  67.627  1.00  0.00    -0.088 OA 
HETATM    9  C   UNL     1      -8.537   3.785  67.868  1.00  0.00    -0.098 C  
HETATM   10  C   UNL     1      -9.655   3.785  66.810  1.00  0.00    -0.205 C  
HETATM   11  C   UNL     1     -10.180   5.144  66.339  1.00  0.00    -0.266 C  
HETATM   12  N   UNL     1      -9.119   6.139  66.190  1.00  0.00    -0.155 NA 
BRANCH  12  13
HETATM   13  C   UNL     1      -8.244   5.841  65.026  1.00  0.00    -0.137 C  
HETATM   14  C   UNL     1      -7.777   7.076  64.242  1.00  0.00    -0.117 C  
HETATM   15 CL   UNL     1      -6.827   6.589  62.813  1.00  0.00    -0.038 Cl 
ENDBRANCH  12  13
ENDBRANCH   4   6
ENDBRANCH   3   4
TORSDOF 3
ENDMDL
MODEL      200
REMARK 921   NORMALIZED FREE ENERGY PREDICTED BY IDOCK:   -2.08 KCAL/MOL
REMARK 922        TOTAL FREE ENERGY PREDICTED BY IDOCK:   -2.38 KCAL/MOL
REMARK 923 INTER-LIGAND FREE ENERGY PREDICTED BY IDOCK:   -2.35 KCAL/MOL
REMARK 924 INTRA-LIGAND FREE ENERGY PREDICTED BY IDOCK:   -0.03 KCAL/MOL
REMARK 927      BINDING AFFINITY PREDICTED BY RF-SCORE:    0.00 PKD
ROOT
HETATM    1 CL   UNL     1      -7.016   8.759  73.729  1.00  0.00    -0.013 Cl 
HETATM    2  C   UNL     1      -8.080   7.675  72.796  1.00  0.00    -0.113 C  
HETATM    3  C   UNL     1      -9.290   8.445  72.283  1.00  0.00    -0.286 C  
ENDROOT
BRANCH   3   4
HETATM    4  N   UNL     1      -9.978   7.734  71.227  1.00  0.00    -0.175 NA 
HETATM    5  H   UNL     1     -10.252   8.264  70.399  1.00  0.00     0.000 HD 
BRANCH   4   6
HETATM    6  P   UNL     1     -10.345   6.145  71.265  1.00  0.00    -0.232 P  
HETATM    7  O   UNL     1     -11.486   5.985  70.137  1.00  0.00    -0.356 OA 
HETATM    8  O   UNL     1     -10.783   5.607  72.588  1.00  0.00    -0.214 OA 
HETATM    9  C   UNL     1     -11.216   6.434  68.819  1.00  0.00    -0.274 C  
HETATM   10  C   UNL     1      -9.800   6.149  68.287  1.00  0.00    -0.138 C  
HETATM   11  C   UNL     1      -8.667   6.060  69.312  1.00  0.00    -0.117 C  
HETATM   12  N   UNL     1      -9.068   5.377  70.542  1.00  0.00    -0.140 NA 
BRANCH  12  13
HETATM   13  C   UNL     1      -9.264   3.919  70.322  1.00  0.00    -0.145 C  
HETATM   14  C   UNL     1      -8.292   3.287  69.315  1.00  0.00    -0.060 C  
HETATM   15 CL   UNL     1      -8.691   1.567  69.055  1.00  0.00    -0.091 Cl 
ENDBRANCH  12  13
ENDBRANCH   4   6
ENDBRANCH   3   4
TORSDOF 3
ENDMDL
MODEL      201
REMARK 921   NORMALIZED FREE ENERGY PREDICTED BY IDOCK:   -2.07 KCAL/MOL
REMARK 922        TOTAL FREE ENERGY PREDICTED BY IDOCK:   -2.36 KCAL/MOL
REMARK 923 INTER-LIGAND FREE ENERGY PREDICTED BY IDOCK:   -2.16 KCAL/MOL
REMARK 924 INTRA-LIGAND FREE ENERGY PREDICTED BY IDOCK:   -0.21 KCAL/MOL
REMARK 927      BINDING AFFINITY PREDICTED BY RF-SCORE:    0.00 PKD
ROOT
HETATM    1 CL   UNL     1     -10.360   3.852  64.547  1.00  0.00    -0.244 Cl 
HETATM    2  C   UNL     1      -9.884   3.846  66.265  1.00  0.00    -0.112 C  
HETATM    3  C   UNL     1     -10.396   5.106  66.953  1.00  0.00    -0.240 C  
ENDROOT
BRANCH   3   4
HETATM    4  N   UNL     1     -10.375   4.983  68.395  1.00  0.00    -0.077 NA 
HETATM    5  H   UNL     1     -11.239   4.704  68.861  1.00  0.00     0.000 HD 
BRANCH   4   6
HETATM    6  P   UNL     1      -9.067   5.259  69.331  1.00  0.00    -0.112 P  
HETATM    7  O   UNL     1      -8.877   6.858  69.269  1.00  0.00    -0.138 OA 
HETATM    8  O   UNL     1      -7.821   4.529  68.944  1.00  0.00    -0.070 OA 
HETATM    9  C   UNL     1      -9.967   7.692  69.625  1.00  0.00    -0.185 C  
HETATM   10  C   UNL     1     -10.802   7.232  70.834  1.00  0.00    -0.262 C  
HETATM   11  C   UNL     1     -10.866   5.728  71.114  1.00  0.00    -0.248 C  
HETATM   12  N   UNL     1      -9.587   5.056  70.891  1.00  0.00    -0.168 NA 
BRANCH  12  13
HETATM   13  C   UNL     1      -8.586   5.417  71.930  1.00  0.00    -0.131 C  
HETATM   14  C   UNL     1      -8.305   4.313  72.960  1.00  0.00    -0.091 C  
HETATM   15 CL   UNL     1      -7.177   4.899  74.212  1.00  0.00    -0.081 Cl 
ENDBRANCH  12  13
ENDBRANCH   4   6
ENDBRANCH   3   4
TORSDOF 3
ENDMDL
MODEL      202
REMARK 921   NORMALIZED FREE ENERGY PREDICTED BY IDOCK:   -2.04 KCAL/MOL
REMARK 922        TOTAL FREE ENERGY PREDICTED BY IDOCK:   -2.33 KCAL/MOL
REMARK 923 INTER-LIGAND FREE ENERGY PREDICTED BY IDOCK:   -2.34 KCAL/MOL
REMARK 924 INTRA-LIGAND FREE ENERGY PREDICTED BY IDOCK:    0.01 KCAL/MOL
REMARK 927      BINDING AFFINITY PREDICTED BY RF-SCORE:    0.00 PKD
ROOT
HETATM    1 CL   UNL     1      -9.072   1.892  68.957  1.00  0.00    -0.162 Cl 
HETATM    2  C   UNL     1      -8.677   3.243  67.862  1.00  0.00    -0.111 C  
HETATM    3  C   UNL     1      -8.859   4.571  68.586  1.00  0.00    -0.102 C  
ENDROOT
BRANCH   3   4
HETATM    4  N   UNL     1      -8.204   5.660  67.893  1.00  0.00    -0.101 NA 
HETATM    5  H   UNL     1      -7.458   6.155  68.383  1.00  0.00     0.000 HD 
BRANCH   4   6
HETATM    6  P   UNL     1      -8.573   6.154  66.382  1.00  0.00    -0.140 P  
HETATM    7  O   UNL     1     -10.183   6.097  66.339  1.00  0.00    -0.138 OA 
HETATM    8  O   UNL     1      -7.952   5.373  65.270  1.00  0.00    -0.099 OA 
HETATM    9  C   UNL     1     -10.922   6.804  67.322  1.00  0.00    -0.363 C  
HETATM   10  C   UNL     1     -10.379   8.193  67.702  1.00  0.00    -0.313 C  
HETATM   11  C   UNL     1      -8.872   8.423  67.565  1.00  0.00    -0.135 C  
HETATM   12  N   UNL     1      -8.309   7.790  66.374  1.00  0.00    -0.124 NA 
BRANCH  12  13
HETATM   13  C   UNL     1      -8.738   8.481  65.129  1.00  0.00    -0.120 C  
HETATM   14  C   UNL     1      -8.728  10.014  65.212  1.00  0.00    -0.163 C  
HETATM   15 CL   UNL     1      -9.361  10.727  63.703  1.00  0.00    -0.268 Cl 
ENDBRANCH  12  13
ENDBRANCH   4   6
ENDBRANCH   3   4
TORSDOF 3
ENDMDL
MODEL      203
REMARK 921   NORMALIZED FREE ENERGY PREDICTED BY IDOCK:   -2.00 KCAL/MOL
REMARK 922        TOTAL FREE ENERGY PREDICTED BY IDOCK:   -2.29 KCAL/MOL
REMARK 923 INTER-LIGAND FREE ENERGY PREDICTED BY IDOCK:   -2.07 KCAL/MOL
REMARK 924 INTRA-LIGAND FREE ENERGY PREDICTED BY IDOCK:   -0.22 KCAL/MOL
REMARK 927      BINDING AFFINITY PREDICTED BY RF-SCORE:    0.00 PKD
ROOT
HETATM    1 CL   UNL     1      -6.862   7.647  62.788  1.00  0.00    -0.070 Cl 
HETATM    2  C   UNL     1      -7.367   6.732  64.232  1.00  0.00    -0.088 C  
HETATM    3  C   UNL     1      -6.917   7.458  65.493  1.00  0.00    -0.060 C  
ENDROOT
BRANCH   3   4
HETATM    4  N   UNL     1      -7.609   6.979  66.671  1.00  0.00    -0.088 NA 
HETATM    5  H   UNL     1      -7.120   6.314  67.271  1.00  0.00     0.000 HD 
BRANCH   4   6
HETATM    6  P   UNL     1      -9.117   7.426  67.107  1.00  0.00    -0.140 P  
HETATM    7  O   UNL     1      -9.883   6.027  67.337  1.00  0.00    -0.119 OA 
HETATM    8  O   UNL     1      -9.839   8.312  66.145  1.00  0.00    -0.196 OA 
HETATM    9  C   UNL     1      -9.331   5.081  68.238  1.00  0.00    -0.126 C  
HETATM   10  C   UNL     1      -8.727   5.656  69.532  1.00  0.00    -0.109 C  
HETATM   11  C   UNL     1      -8.165   7.079  69.476  1.00  0.00    -0.132 C  
HETATM   12  N   UNL     1      -8.982   7.979  68.663  1.00  0.00    -0.134 NA 
BRANCH  12  13
HETATM   13  C   UNL     1     -10.276   8.294  69.323  1.00  0.00    -0.204 C  
HETATM   14  C   UNL     1     -10.147   8.956  70.703  1.00  0.00    -0.212 C  
HETATM   15 CL   UNL     1     -11.756   9.186  71.440  1.00  0.00    -0.386 Cl 
ENDBRANCH  12  13
ENDBRANCH   4   6
ENDBRANCH   3   4
TORSDOF 3
ENDMDL
MODEL      204
REMARK 921   NORMALIZED FREE ENERGY PREDICTED BY IDOCK:   -2.00 KCAL/MOL
REMARK 922        TOTAL FREE ENERGY PREDICTED BY IDOCK:   -2.29 KCAL/MOL
REMARK 923 INTER-LIGAND FREE ENERGY PREDICTED BY IDOCK:   -2.28 KCAL/MOL
REMARK 924 INTRA-LIGAND FREE ENERGY PREDICTED BY IDOCK:   -0.01 KCAL/MOL
REMARK 927      BINDING AFFINITY PREDICTED BY RF-SCORE:    0.00 PKD
ROOT
HETATM    1 CL   UNL     1      -9.431  10.019  69.931  1.00  0.00    -0.248 Cl 
HETATM    2  C   UNL     1      -9.968  10.386  68.271  1.00  0.00    -0.151 C  
HETATM    3  C   UNL     1     -10.833  11.640  68.267  1.00  0.00    -0.219 C  
ENDROOT
BRANCH   3   4
HETATM    4  N   UNL     1     -10.979  12.194  66.937  1.00  0.00    -0.256 NA 
HETATM    5  H   UNL     1     -11.900  12.140  66.500  1.00  0.00     0.000 HD 
BRANCH   4   6
HETATM    6  P   UNL     1      -9.777  12.897  66.087  1.00  0.00    -0.160 P  
HETATM    7  O   UNL     1     -10.549  13.859  65.050  1.00  0.00    -0.354 OA 
HETATM    8  O   UNL     1      -8.834  11.966  65.396  1.00  0.00     0.119 OA 
HETATM    9  C   UNL     1     -11.470  14.814  65.553  1.00  0.00    -0.329 C  
HETATM   10  C   UNL     1     -11.052  15.536  66.846  1.00  0.00    -0.221 C  
HETATM   11  C   UNL     1     -10.127  14.783  67.807  1.00  0.00    -0.224 C  
HETATM   12  N   UNL     1      -9.100  14.007  67.113  1.00  0.00    -0.222 NA 
BRANCH  12  13
HETATM   13  C   UNL     1      -8.077  14.886  66.488  1.00  0.00     0.350 C  
HETATM   14  C   UNL     1      -7.267  15.733  67.481  1.00  0.00    -0.184 C  
HETATM   15 CL   UNL     1      -6.151  16.821  66.612  1.00  0.00    -0.178 Cl 
ENDBRANCH  12  13
ENDBRANCH   4   6
ENDBRANCH   3   4
TORSDOF 3
ENDMDL
MODEL      205
REMARK 921   NORMALIZED FREE ENERGY PREDICTED BY IDOCK:   -1.97 KCAL/MOL
REMARK 922        TOTAL FREE ENERGY PREDICTED BY IDOCK:   -2.24 KCAL/MOL
REMARK 923 INTER-LIGAND FREE ENERGY PREDICTED BY IDOCK:   -2.03 KCAL/MOL
REMARK 924 INTRA-LIGAND FREE ENERGY PREDICTED BY IDOCK:   -0.21 KCAL/MOL
REMARK 927      BINDING AFFINITY PREDICTED BY RF-SCORE:    0.00 PKD
ROOT
HETATM    1 CL   UNL     1      -5.922   6.378  72.188  1.00  0.00    -0.037 Cl 
HETATM    2  C   UNL     1      -6.174   5.790  70.524  1.00  0.00    -0.031 C  
HETATM    3  C   UNL     1      -7.664   5.746  70.206  1.00  0.00    -0.095 C  
ENDROOT
BRANCH   3   4
HETATM    4  N   UNL     1      -7.912   5.647  68.784  1.00  0.00    -0.096 NA 
HETATM    5  H   UNL     1      -7.421   6.298  68.170  1.00  0.00     0.000 HD 
BRANCH   4   6
HETATM    6  P   UNL     1      -8.922   4.568  68.091  1.00  0.00    -0.130 P  
HETATM    7  O   UNL     1     -10.390   5.119  68.463  1.00  0.00    -0.148 OA 
HETATM    8  O   UNL     1      -8.735   3.143  68.500  1.00  0.00    -0.087 OA 
HETATM    9  C   UNL     1     -10.729   6.453  68.124  1.00  0.00    -0.291 C  
HETATM   10  C   UNL     1     -10.231   6.948  66.755  1.00  0.00    -0.276 C  
HETATM   11  C   UNL     1      -8.948   6.321  66.203  1.00  0.00    -0.153 C  
HETATM   12  N   UNL     1      -8.861   4.885  66.466  1.00  0.00    -0.112 NA 
BRANCH  12  13
HETATM   13  C   UNL     1      -9.836   4.116  65.648  1.00  0.00    -0.205 C  
HETATM   14  C   UNL     1      -9.602   4.193  64.132  1.00  0.00    -0.148 C  
HETATM   15 CL   UNL     1     -10.891   3.326  63.254  1.00  0.00    -0.221 Cl 
ENDBRANCH  12  13
ENDBRANCH   4   6
ENDBRANCH   3   4
TORSDOF 3
ENDMDL
MODEL      206
REMARK 921   NORMALIZED FREE ENERGY PREDICTED BY IDOCK:   -1.96 KCAL/MOL
REMARK 922        TOTAL FREE ENERGY PREDICTED BY IDOCK:   -2.24 KCAL/MOL
REMARK 923 INTER-LIGAND FREE ENERGY PREDICTED BY IDOCK:   -2.14 KCAL/MOL
REMARK 924 INTRA-LIGAND FREE ENERGY PREDICTED BY IDOCK:   -0.10 KCAL/MOL
REMARK 927      BINDING AFFINITY PREDICTED BY RF-SCORE:    0.00 PKD
ROOT
HETATM    1 CL   UNL     1      -7.527  10.198  70.102  1.00  0.00    -0.175 Cl 
HETATM    2  C   UNL     1      -7.744   8.461  69.766  1.00  0.00    -0.093 C  
HETATM    3  C   UNL     1      -9.075   8.227  69.063  1.00  0.00    -0.147 C  
ENDROOT
BRANCH   3   4
HETATM    4  N   UNL     1      -9.136   6.923  68.437  1.00  0.00    -0.127 NA 
HETATM    5  H   UNL     1      -8.780   6.126  68.964  1.00  0.00     0.000 HD 
BRANCH   4   6
HETATM    6  P   UNL     1      -9.735   6.637  66.946  1.00  0.00    -0.167 P  
HETATM    7  O   UNL     1      -9.086   7.801  66.039  1.00  0.00    -0.173 OA 
HETATM    8  O   UNL     1     -11.225   6.603  66.837  1.00  0.00    -0.391 OA 
HETATM    9  C   UNL     1      -7.677   7.952  66.022  1.00  0.00    -0.092 C  
HETATM   10  C   UNL     1      -6.859   6.648  66.003  1.00  0.00    -0.053 C  
HETATM   11  C   UNL     1      -7.489   5.412  66.651  1.00  0.00    -0.087 C  
HETATM   12  N   UNL     1      -8.924   5.305  66.390  1.00  0.00    -0.125 NA 
BRANCH  12  13
HETATM   13  C   UNL     1      -9.200   4.957  64.971  1.00  0.00    -0.102 C  
HETATM   14  C   UNL     1     -10.385   4.002  64.765  1.00  0.00    -0.197 C  
HETATM   15 CL   UNL     1     -10.551   3.574  63.040  1.00  0.00    -0.215 Cl 
ENDBRANCH  12  13
ENDBRANCH   4   6
ENDBRANCH   3   4
TORSDOF 3
ENDMDL
MODEL      207
REMARK 921   NORMALIZED FREE ENERGY PREDICTED BY IDOCK:   -1.95 KCAL/MOL
REMARK 922        TOTAL FREE ENERGY PREDICTED BY IDOCK:   -2.22 KCAL/MOL
REMARK 923 INTER-LIGAND FREE ENERGY PREDICTED BY IDOCK:   -1.96 KCAL/MOL
REMARK 924 INTRA-LIGAND FREE ENERGY PREDICTED BY IDOCK:   -0.26 KCAL/MOL
REMARK 927      BINDING AFFINITY PREDICTED BY RF-SCORE:    0.00 PKD
ROOT
HETATM    1 CL   UNL     1     -12.660  11.807  68.781  1.00  0.00     0.528 Cl 
HETATM    2  C   UNL     1     -11.128  11.056  69.297  1.00  0.00    -0.254 C  
HETATM    3  C   UNL     1     -11.337  10.285  70.595  1.00  0.00    -0.347 C  
ENDROOT
BRANCH   3   4
HETATM    4  N   UNL     1     -10.254   9.361  70.857  1.00  0.00    -0.295 NA 
HETATM    5  H   UNL     1      -9.314   9.746  70.954  1.00  0.00     0.000 HD 
BRANCH   4   6
HETATM    6  P   UNL     1     -10.429   7.745  71.007  1.00  0.00    -0.206 P  
HETATM    7  O   UNL     1     -10.804   7.257  69.518  1.00  0.00    -0.240 OA 
HETATM    8  O   UNL     1     -11.430   7.288  72.018  1.00  0.00    -0.255 OA 
HETATM    9  C   UNL     1      -9.940   7.597  68.446  1.00  0.00    -0.176 C  
HETATM   10  C   UNL     1      -8.433   7.516  68.744  1.00  0.00    -0.129 C  
HETATM   11  C   UNL     1      -7.986   7.749  70.190  1.00  0.00    -0.112 C  
HETATM   12  N   UNL     1      -8.893   7.146  71.166  1.00  0.00    -0.143 NA 
BRANCH  12  13
HETATM   13  C   UNL     1      -8.803   5.662  71.157  1.00  0.00    -0.135 C  
HETATM   14  C   UNL     1      -8.528   5.029  72.530  1.00  0.00    -0.120 C  
HETATM   15 CL   UNL     1      -8.335   3.262  72.376  1.00  0.00    -0.078 Cl 
ENDBRANCH  12  13
ENDBRANCH   4   6
ENDBRANCH   3   4
TORSDOF 3
ENDMDL
MODEL      208
REMARK 921   NORMALIZED FREE ENERGY PREDICTED BY IDOCK:   -1.94 KCAL/MOL
REMARK 922        TOTAL FREE ENERGY PREDICTED BY IDOCK:   -2.22 KCAL/MOL
REMARK 923 INTER-LIGAND FREE ENERGY PREDICTED BY IDOCK:   -2.11 KCAL/MOL
REMARK 924 INTRA-LIGAND FREE ENERGY PREDICTED BY IDOCK:   -0.11 KCAL/MOL
REMARK 927      BINDING AFFINITY PREDICTED BY RF-SCORE:    0.00 PKD
ROOT
HETATM    1 CL   UNL     1      -8.251   3.077  64.667  1.00  0.00    -0.086 Cl 
HETATM    2  C   UNL     1      -8.275   4.821  65.032  1.00  0.00    -0.126 C  
HETATM    3  C   UNL     1      -8.370   5.038  66.538  1.00  0.00    -0.107 C  
ENDROOT
BRANCH   3   4
HETATM    4  N   UNL     1      -8.017   6.391  66.914  1.00  0.00    -0.108 NA 
HETATM    5  H   UNL     1      -7.189   6.520  67.496  1.00  0.00     0.000 HD 
BRANCH   4   6
HETATM    6  P   UNL     1      -8.849   7.724  66.474  1.00  0.00    -0.167 P  
HETATM    7  O   UNL     1     -10.359   7.409  66.943  1.00  0.00    -0.273 OA 
HETATM    8  O   UNL     1      -8.774   8.093  65.028  1.00  0.00    -0.099 OA 
HETATM    9  C   UNL     1     -10.598   7.059  68.296  1.00  0.00    -0.196 C  
HETATM   10  C   UNL     1      -9.793   7.842  69.348  1.00  0.00    -0.180 C  
HETATM   11  C   UNL     1      -8.423   8.382  68.928  1.00  0.00    -0.124 C  
HETATM   12  N   UNL     1      -8.413   8.897  67.559  1.00  0.00    -0.116 NA 
BRANCH  12  13
HETATM   13  C   UNL     1      -9.179  10.165  67.443  1.00  0.00    -0.141 C  
HETATM   14  C   UNL     1      -8.370  11.356  66.909  1.00  0.00    -0.159 C  
HETATM   15 CL   UNL     1      -9.361  12.840  66.916  1.00  0.00    -0.228 Cl 
ENDBRANCH  12  13
ENDBRANCH   4   6
ENDBRANCH   3   4
TORSDOF 3
ENDMDL
MODEL      209
REMARK 921   NORMALIZED FREE ENERGY PREDICTED BY IDOCK:   -1.94 KCAL/MOL
REMARK 922        TOTAL FREE ENERGY PREDICTED BY IDOCK:   -2.22 KCAL/MOL
REMARK 923 INTER-LIGAND FREE ENERGY PREDICTED BY IDOCK:   -2.15 KCAL/MOL
REMARK 924 INTRA-LIGAND FREE ENERGY PREDICTED BY IDOCK:   -0.07 KCAL/MOL
REMARK 927      BINDING AFFINITY PREDICTED BY RF-SCORE:    0.00 PKD
ROOT
HETATM    1 CL   UNL     1      -5.518   5.827  66.475  1.00  0.00    -0.012 Cl 
HETATM    2  C   UNL     1      -7.007   6.536  67.153  1.00  0.00    -0.071 C  
HETATM    3  C   UNL     1      -6.934   8.057  67.096  1.00  0.00    -0.075 C  
ENDROOT
BRANCH   3   4
HETATM    4  N   UNL     1      -8.234   8.669  67.273  1.00  0.00    -0.105 NA 
HETATM    5  H   UNL     1      -8.690   9.059  66.448  1.00  0.00     0.000 HD 
BRANCH   4   6
HETATM    6  P   UNL     1      -9.021   8.779  68.698  1.00  0.00    -0.137 P  
HETATM    7  O   UNL     1      -7.865   9.175  69.749  1.00  0.00    -0.075 OA 
HETATM    8  O   UNL     1      -9.775   7.561  69.123  1.00  0.00    -0.163 OA 
HETATM    9  C   UNL     1      -7.069  10.321  69.494  1.00  0.00    -0.107 C  
HETATM   10  C   UNL     1      -7.812  11.544  68.927  1.00  0.00    -0.071 C  
HETATM   11  C   UNL     1      -9.066  11.282  68.089  1.00  0.00    -0.166 C  
HETATM   12  N   UNL     1      -9.883  10.192  68.619  1.00  0.00    -0.157 NA 
BRANCH  12  13
HETATM   13  C   UNL     1     -10.558  10.577  69.887  1.00  0.00    -0.211 C  
HETATM   14  C   UNL     1     -12.092  10.594  69.816  1.00  0.00    -0.272 C  
HETATM   15 CL   UNL     1     -12.784  11.172  71.356  1.00  0.00    -0.526 Cl 
ENDBRANCH  12  13
ENDBRANCH   4   6
ENDBRANCH   3   4
TORSDOF 3
ENDMDL
MODEL      210
REMARK 921   NORMALIZED FREE ENERGY PREDICTED BY IDOCK:   -1.91 KCAL/MOL
REMARK 922        TOTAL FREE ENERGY PREDICTED BY IDOCK:   -2.18 KCAL/MOL
REMARK 923 INTER-LIGAND FREE ENERGY PREDICTED BY IDOCK:   -2.27 KCAL/MOL
REMARK 924 INTRA-LIGAND FREE ENERGY PREDICTED BY IDOCK:    0.08 KCAL/MOL
REMARK 927      BINDING AFFINITY PREDICTED BY RF-SCORE:    0.00 PKD
ROOT
HETATM    1 CL   UNL     1      -6.099   4.518  72.462  1.00  0.00    -0.016 Cl 
HETATM    2  C   UNL     1      -6.993   5.921  71.822  1.00  0.00    -0.073 C  
HETATM    3  C   UNL     1      -8.375   5.487  71.349  1.00  0.00    -0.126 C  
ENDROOT
BRANCH   3   4
HETATM    4  N   UNL     1      -9.268   6.614  71.178  1.00  0.00    -0.159 NA 
HETATM    5  H   UNL     1      -9.640   7.056  72.019  1.00  0.00     0.000 HD 
BRANCH   4   6
HETATM    6  P   UNL     1      -9.723   7.227  69.736  1.00  0.00    -0.166 P  
HETATM    7  O   UNL     1     -11.272   7.618  69.954  1.00  0.00    -0.204 OA 
HETATM    8  O   UNL     1      -9.529   6.332  68.555  1.00  0.00    -0.124 OA 
HETATM    9  C   UNL     1     -11.618   8.477  71.027  1.00  0.00    -0.279 C  
HETATM   10  C   UNL     1     -10.659   9.653  71.286  1.00  0.00    -0.269 C  
HETATM   11  C   UNL     1      -9.189   9.461  70.904  1.00  0.00    -0.173 C  
HETATM   12  N   UNL     1      -9.022   8.725  69.651  1.00  0.00    -0.143 NA 
BRANCH  12  13
HETATM   13  C   UNL     1      -9.436   9.538  68.477  1.00  0.00    -0.141 C  
HETATM   14  C   UNL     1      -9.441  11.055  68.717  1.00  0.00    -0.183 C  
HETATM   15 CL   UNL     1     -10.055  11.915  67.280  1.00  0.00    -0.209 Cl 
ENDBRANCH  12  13
ENDBRANCH   4   6
ENDBRANCH   3   4
TORSDOF 3
ENDMDL
MODEL      211
REMARK 921   NORMALIZED FREE ENERGY PREDICTED BY IDOCK:   -1.91 KCAL/MOL
REMARK 922        TOTAL FREE ENERGY PREDICTED BY IDOCK:   -2.18 KCAL/MOL
REMARK 923 INTER-LIGAND FREE ENERGY PREDICTED BY IDOCK:   -2.61 KCAL/MOL
REMARK 924 INTRA-LIGAND FREE ENERGY PREDICTED BY IDOCK:    0.43 KCAL/MOL
REMARK 927      BINDING AFFINITY PREDICTED BY RF-SCORE:    0.00 PKD
ROOT
HETATM    1 CL   UNL     1     -12.413  13.807  65.512  1.00  0.00    -0.514 Cl 
HETATM    2  C   UNL     1     -11.596  12.304  66.013  1.00  0.00    -0.393 C  
HETATM    3  C   UNL     1     -10.765  11.752  64.861  1.00  0.00    -0.295 C  
ENDROOT
BRANCH   3   4
HETATM    4  N   UNL     1      -9.801  10.770  65.310  1.00  0.00    -0.252 NA 
HETATM    5  H   UNL     1      -9.284  10.253  64.598  1.00  0.00     0.000 HD 
BRANCH   4   6
HETATM    6  P   UNL     1      -9.481  10.430  66.874  1.00  0.00    -0.177 P  
HETATM    7  O   UNL     1      -8.845   8.950  66.826  1.00  0.00    -0.120 OA 
HETATM    8  O   UNL     1     -10.642  10.514  67.811  1.00  0.00    -0.206 OA 
HETATM    9  C   UNL     1      -7.722   8.712  65.993  1.00  0.00    -0.100 C  
HETATM   10  C   UNL     1      -6.660   9.825  65.961  1.00  0.00    -0.082 C  
HETATM   11  C   UNL     1      -7.132  11.259  66.217  1.00  0.00     0.007 C  
HETATM   12  N   UNL     1      -8.152  11.340  67.262  1.00  0.00    -0.134 NA 
BRANCH  12  13
HETATM   13  C   UNL     1      -7.584  11.065  68.608  1.00  0.00    -0.124 C  
HETATM   14  C   UNL     1      -6.528  12.077  69.076  1.00  0.00    -0.091 C  
HETATM   15 CL   UNL     1      -5.844  11.585  70.650  1.00  0.00    -0.130 Cl 
ENDBRANCH  12  13
ENDBRANCH   4   6
ENDBRANCH   3   4
TORSDOF 3
ENDMDL
MODEL      212
REMARK 921   NORMALIZED FREE ENERGY PREDICTED BY IDOCK:   -1.91 KCAL/MOL
REMARK 922        TOTAL FREE ENERGY PREDICTED BY IDOCK:   -2.18 KCAL/MOL
REMARK 923 INTER-LIGAND FREE ENERGY PREDICTED BY IDOCK:   -2.36 KCAL/MOL
REMARK 924 INTRA-LIGAND FREE ENERGY PREDICTED BY IDOCK:    0.19 KCAL/MOL
REMARK 927      BINDING AFFINITY PREDICTED BY RF-SCORE:    0.00 PKD
ROOT
HETATM    1 CL   UNL     1     -12.771  13.423  64.500  1.00  0.00    -0.251 Cl 
HETATM    2  C   UNL     1     -11.614  13.559  65.849  1.00  0.00    -0.335 C  
HETATM    3  C   UNL     1     -10.272  12.958  65.449  1.00  0.00    -0.287 C  
ENDROOT
BRANCH   3   4
HETATM    4  N   UNL     1      -9.207  13.371  66.338  1.00  0.00    -0.445 NA 
HETATM    5  H   UNL     1      -8.247  13.268  66.007  1.00  0.00     0.000 HD 
BRANCH   4   6
HETATM    6  P   UNL     1      -9.431  13.987  67.831  1.00  0.00    -0.224 P  
HETATM    7  O   UNL     1      -7.955  13.977  68.480  1.00  0.00    -0.135 OA 
HETATM    8  O   UNL     1     -10.427  13.277  68.689  1.00  0.00    -0.251 OA 
HETATM    9  C   UNL     1      -6.899  14.627  67.792  1.00  0.00    -0.176 C  
HETATM   10  C   UNL     1      -7.254  15.968  67.126  1.00  0.00    -0.257 C  
HETATM   11  C   UNL     1      -8.702  16.167  66.668  1.00  0.00    -0.265 C  
HETATM   12  N   UNL     1      -9.674  15.611  67.609  1.00  0.00    -0.224 NA 
BRANCH  12  13
HETATM   13  C   UNL     1      -9.742  16.406  68.863  1.00  0.00    -0.257 C  
HETATM   14  C   UNL     1     -11.083  16.315  69.606  1.00  0.00    -0.333 C  
HETATM   15 CL   UNL     1     -11.083  17.390  71.031  1.00  0.00     1.078 Cl 
ENDBRANCH  12  13
ENDBRANCH   4   6
ENDBRANCH   3   4
TORSDOF 3
ENDMDL
MODEL      213
REMARK 921   NORMALIZED FREE ENERGY PREDICTED BY IDOCK:   -1.89 KCAL/MOL
REMARK 922        TOTAL FREE ENERGY PREDICTED BY IDOCK:   -2.16 KCAL/MOL
REMARK 923 INTER-LIGAND FREE ENERGY PREDICTED BY IDOCK:   -1.95 KCAL/MOL
REMARK 924 INTRA-LIGAND FREE ENERGY PREDICTED BY IDOCK:   -0.21 KCAL/MOL
REMARK 927      BINDING AFFINITY PREDICTED BY RF-SCORE:    0.00 PKD
ROOT
HETATM    1 CL   UNL     1     -10.750   8.930  71.983  1.00  0.00    -0.414 Cl 
HETATM    2  C   UNL     1      -9.681   7.693  71.274  1.00  0.00    -0.160 C  
HETATM    3  C   UNL     1     -10.047   7.461  69.814  1.00  0.00    -0.193 C  
ENDROOT
BRANCH   3   4
HETATM    4  N   UNL     1      -8.999   6.768  69.095  1.00  0.00    -0.133 NA 
HETATM    5  H   UNL     1      -9.068   5.753  69.017  1.00  0.00     0.000 HD 
BRANCH   4   6
HETATM    6  P   UNL     1      -7.714   7.495  68.400  1.00  0.00    -0.124 P  
HETATM    7  O   UNL     1      -6.826   6.267  67.851  1.00  0.00    -0.062 OA 
HETATM    8  O   UNL     1      -6.926   8.410  69.281  1.00  0.00    -0.053 OA 
HETATM    9  C   UNL     1      -7.427   5.317  66.987  1.00  0.00    -0.087 C  
HETATM   10  C   UNL     1      -8.389   5.885  65.928  1.00  0.00    -0.136 C  
HETATM   11  C   UNL     1      -9.124   7.184  66.267  1.00  0.00    -0.147 C  
HETATM   12  N   UNL     1      -8.281   8.140  66.984  1.00  0.00    -0.114 NA 
BRANCH  12  13
HETATM   13  C   UNL     1      -7.233   8.719  66.102  1.00  0.00    -0.085 C  
HETATM   14  C   UNL     1      -7.770   9.440  64.857  1.00  0.00    -0.111 C  
HETATM   15 CL   UNL     1      -6.424   9.996  63.826  1.00  0.00    -0.127 Cl 
ENDBRANCH  12  13
ENDBRANCH   4   6
ENDBRANCH   3   4
TORSDOF 3
ENDMDL
MODEL      214
REMARK 921   NORMALIZED FREE ENERGY PREDICTED BY IDOCK:   -1.89 KCAL/MOL
REMARK 922        TOTAL FREE ENERGY PREDICTED BY IDOCK:   -2.16 KCAL/MOL
REMARK 923 INTER-LIGAND FREE ENERGY PREDICTED BY IDOCK:   -1.96 KCAL/MOL
REMARK 924 INTRA-LIGAND FREE ENERGY PREDICTED BY IDOCK:   -0.20 KCAL/MOL
REMARK 927      BINDING AFFINITY PREDICTED BY RF-SCORE:    0.00 PKD
ROOT
HETATM    1 CL   UNL     1      -8.695   9.332  70.522  1.00  0.00    -0.254 Cl 
HETATM    2  C   UNL     1      -8.142   7.676  70.162  1.00  0.00    -0.118 C  
HETATM    3  C   UNL     1      -9.210   6.930  69.372  1.00  0.00    -0.147 C  
ENDROOT
BRANCH   3   4
HETATM    4  N   UNL     1      -8.682   5.742  68.734  1.00  0.00    -0.108 NA 
HETATM    5  H   UNL     1      -8.319   5.002  69.336  1.00  0.00     0.000 HD 
BRANCH   4   6
HETATM    6  P   UNL     1      -8.626   5.502  67.121  1.00  0.00    -0.106 P  
HETATM    7  O   UNL     1      -7.176   4.841  66.879  1.00  0.00    -0.074 OA 
HETATM    8  O   UNL     1      -8.842   6.712  66.273  1.00  0.00    -0.140 OA 
HETATM    9  C   UNL     1      -6.825   3.672  67.601  1.00  0.00    -0.050 C  
HETATM   10  C   UNL     1      -7.941   2.626  67.773  1.00  0.00    -0.064 C  
HETATM   11  C   UNL     1      -9.385   3.133  67.793  1.00  0.00    -0.203 C  
HETATM   12  N   UNL     1      -9.621   4.209  66.831  1.00  0.00    -0.198 NA 
BRANCH  12  13
HETATM   13  C   UNL     1      -9.597   3.710  65.431  1.00  0.00    -0.156 C  
HETATM   14  C   UNL     1     -10.750   4.215  64.551  1.00  0.00    -0.135 C  
HETATM   15 CL   UNL     1     -10.676   3.467  62.932  1.00  0.00    -0.204 Cl 
ENDBRANCH  12  13
ENDBRANCH   4   6
ENDBRANCH   3   4
TORSDOF 3
ENDMDL
MODEL      215
REMARK 921   NORMALIZED FREE ENERGY PREDICTED BY IDOCK:   -1.88 KCAL/MOL
REMARK 922        TOTAL FREE ENERGY PREDICTED BY IDOCK:   -2.15 KCAL/MOL
REMARK 923 INTER-LIGAND FREE ENERGY PREDICTED BY IDOCK:   -1.93 KCAL/MOL
REMARK 924 INTRA-LIGAND FREE ENERGY PREDICTED BY IDOCK:   -0.22 KCAL/MOL
REMARK 927      BINDING AFFINITY PREDICTED BY RF-SCORE:    0.00 PKD
ROOT
HETATM    1 CL   UNL     1      -8.231   5.708  64.152  1.00  0.00    -0.128 Cl 
HETATM    2  C   UNL     1      -8.726   6.567  65.634  1.00  0.00    -0.091 C  
HETATM    3  C   UNL     1      -7.736   7.684  65.944  1.00  0.00    -0.098 C  
ENDROOT
BRANCH   3   4
HETATM    4  N   UNL     1      -8.275   8.637  66.891  1.00  0.00    -0.105 NA 
HETATM    5  H   UNL     1      -9.056   9.219  66.587  1.00  0.00     0.000 HD 
BRANCH   4   6
HETATM    6  P   UNL     1      -7.722   8.848  68.412  1.00  0.00    -0.100 P  
HETATM    7  O   UNL     1      -7.665  10.450  68.584  1.00  0.00    -0.091 OA 
HETATM    8  O   UNL     1      -6.412   8.201  68.726  1.00  0.00    -0.050 OA 
HETATM    9  C   UNL     1      -8.837  11.208  68.338  1.00  0.00    -0.157 C  
HETATM   10  C   UNL     1     -10.155  10.596  68.844  1.00  0.00    -0.215 C  
HETATM   11  C   UNL     1     -10.236   9.069  68.929  1.00  0.00    -0.208 C  
HETATM   12  N   UNL     1      -8.992   8.462  69.403  1.00  0.00    -0.152 NA 
BRANCH  12  13
HETATM   13  C   UNL     1      -8.760   8.739  70.845  1.00  0.00    -0.194 C  
HETATM   14  C   UNL     1      -8.492   7.492  71.701  1.00  0.00    -0.111 C  
HETATM   15 CL   UNL     1      -8.336   7.936  73.422  1.00  0.00    -0.232 Cl 
ENDBRANCH  12  13
ENDBRANCH   4   6
ENDBRANCH   3   4
TORSDOF 3
ENDMDL
MODEL      216
REMARK 921   NORMALIZED FREE ENERGY PREDICTED BY IDOCK:   -1.88 KCAL/MOL
REMARK 922        TOTAL FREE ENERGY PREDICTED BY IDOCK:   -2.14 KCAL/MOL
REMARK 923 INTER-LIGAND FREE ENERGY PREDICTED BY IDOCK:   -2.03 KCAL/MOL
REMARK 924 INTRA-LIGAND FREE ENERGY PREDICTED BY IDOCK:   -0.11 KCAL/MOL
REMARK 927      BINDING AFFINITY PREDICTED BY RF-SCORE:    0.00 PKD
ROOT
HETATM    1 CL   UNL     1     -10.313   6.255  73.207  1.00  0.00    -0.225 Cl 
HETATM    2  C   UNL     1      -9.475   6.028  71.650  1.00  0.00    -0.148 C  
HETATM    3  C   UNL     1     -10.323   6.587  70.514  1.00  0.00    -0.201 C  
ENDROOT
BRANCH   3   4
HETATM    4  N   UNL     1      -9.552   6.775  69.303  1.00  0.00    -0.145 NA 
HETATM    5  H   UNL     1      -8.628   7.201  69.390  1.00  0.00     0.000 HD 
BRANCH   4   6
HETATM    6  P   UNL     1     -10.054   6.355  67.809  1.00  0.00    -0.189 P  
HETATM    7  O   UNL     1      -8.962   7.026  66.831  1.00  0.00    -0.119 OA 
HETATM    8  O   UNL     1     -11.449   6.754  67.453  1.00  0.00    -0.159 OA 
HETATM    9  C   UNL     1      -7.589   6.732  67.031  1.00  0.00    -0.095 C  
HETATM   10  C   UNL     1      -7.258   5.272  67.389  1.00  0.00    -0.075 C  
HETATM   11  C   UNL     1      -8.329   4.469  68.132  1.00  0.00    -0.094 C  
HETATM   12  N   UNL     1      -9.682   4.748  67.652  1.00  0.00    -0.158 NA 
BRANCH  12  13
HETATM   13  C   UNL     1      -9.909   4.189  66.293  1.00  0.00    -0.192 C  
HETATM   14  C   UNL     1      -9.214   2.846  66.029  1.00  0.00    -0.095 C  
HETATM   15 CL   UNL     1      -9.470   2.330  64.340  1.00  0.00    -0.138 Cl 
ENDBRANCH  12  13
ENDBRANCH   4   6
ENDBRANCH   3   4
TORSDOF 3
ENDMDL
MODEL      217
REMARK 921   NORMALIZED FREE ENERGY PREDICTED BY IDOCK:   -1.87 KCAL/MOL
REMARK 922        TOTAL FREE ENERGY PREDICTED BY IDOCK:   -2.13 KCAL/MOL
REMARK 923 INTER-LIGAND FREE ENERGY PREDICTED BY IDOCK:   -2.27 KCAL/MOL
REMARK 924 INTRA-LIGAND FREE ENERGY PREDICTED BY IDOCK:    0.14 KCAL/MOL
REMARK 927      BINDING AFFINITY PREDICTED BY RF-SCORE:    0.00 PKD
ROOT
HETATM    1 CL   UNL     1     -10.986   6.531  73.102  1.00  0.00    -0.271 Cl 
HETATM    2  C   UNL     1      -9.509   6.589  72.106  1.00  0.00    -0.148 C  
HETATM    3  C   UNL     1      -9.708   7.541  70.933  1.00  0.00    -0.173 C  
ENDROOT
BRANCH   3   4
HETATM    4  N   UNL     1      -8.451   7.916  70.320  1.00  0.00    -0.127 NA 
HETATM    5  H   UNL     1      -7.795   7.170  70.088  1.00  0.00     0.000 HD 
BRANCH   4   6
HETATM    6  P   UNL     1      -8.008   9.448  69.975  1.00  0.00    -0.171 P  
HETATM    7  O   UNL     1      -7.069   9.294  68.674  1.00  0.00    -0.068 OA 
HETATM    8  O   UNL     1      -7.327  10.195  71.075  1.00  0.00    -0.167 OA 
HETATM    9  C   UNL     1      -7.579   8.621  67.535  1.00  0.00    -0.094 C  
HETATM   10  C   UNL     1      -9.049   8.910  67.184  1.00  0.00    -0.160 C  
HETATM   11  C   UNL     1      -9.987   9.287  68.334  1.00  0.00    -0.176 C  
HETATM   12  N   UNL     1      -9.352  10.161  69.319  1.00  0.00    -0.205 NA 
BRANCH  12  13
HETATM   13  C   UNL     1      -9.127  11.528  68.779  1.00  0.00    -0.056 C  
HETATM   14  C   UNL     1     -10.406  12.269  68.362  1.00  0.00    -0.224 C  
HETATM   15 CL   UNL     1     -10.005  13.847  67.632  1.00  0.00    -0.234 Cl 
ENDBRANCH  12  13
ENDBRANCH   4   6
ENDBRANCH   3   4
TORSDOF 3
ENDMDL
MODEL      218
REMARK 921   NORMALIZED FREE ENERGY PREDICTED BY IDOCK:   -1.86 KCAL/MOL
REMARK 922        TOTAL FREE ENERGY PREDICTED BY IDOCK:   -2.12 KCAL/MOL
REMARK 923 INTER-LIGAND FREE ENERGY PREDICTED BY IDOCK:   -1.92 KCAL/MOL
REMARK 924 INTRA-LIGAND FREE ENERGY PREDICTED BY IDOCK:   -0.20 KCAL/MOL
REMARK 927      BINDING AFFINITY PREDICTED BY RF-SCORE:    0.00 PKD
ROOT
HETATM    1 CL   UNL     1      -9.547   3.293  70.231  1.00  0.00    -0.233 Cl 
HETATM    2  C   UNL     1      -8.835   4.036  68.775  1.00  0.00    -0.106 C  
HETATM    3  C   UNL     1      -9.193   5.516  68.716  1.00  0.00    -0.122 C  
ENDROOT
BRANCH   3   4
HETATM    4  N   UNL     1      -8.351   6.241  67.789  1.00  0.00    -0.117 NA 
HETATM    5  H   UNL     1      -8.110   5.784  66.909  1.00  0.00     0.000 HD 
BRANCH   4   6
HETATM    6  P   UNL     1      -7.758   7.738  68.050  1.00  0.00    -0.130 P  
HETATM    7  O   UNL     1      -6.718   7.959  66.838  1.00  0.00    -0.064 OA 
HETATM    8  O   UNL     1      -7.124   7.966  69.384  1.00  0.00    -0.061 OA 
HETATM    9  C   UNL     1      -7.173   7.796  65.505  1.00  0.00    -0.064 C  
HETATM   10  C   UNL     1      -8.577   8.346  65.200  1.00  0.00    -0.159 C  
HETATM   11  C   UNL     1      -9.584   8.387  66.353  1.00  0.00    -0.237 C  
HETATM   12  N   UNL     1      -8.975   8.778  67.623  1.00  0.00    -0.135 NA 
BRANCH  12  13
HETATM   13  C   UNL     1      -8.594  10.215  67.631  1.00  0.00    -0.118 C  
HETATM   14  C   UNL     1      -9.757  11.187  67.382  1.00  0.00    -0.173 C  
HETATM   15 CL   UNL     1      -9.162  12.868  67.307  1.00  0.00    -0.200 Cl 
ENDBRANCH  12  13
ENDBRANCH   4   6
ENDBRANCH   3   4
TORSDOF 3
ENDMDL
MODEL      219
REMARK 921   NORMALIZED FREE ENERGY PREDICTED BY IDOCK:   -1.84 KCAL/MOL
REMARK 922        TOTAL FREE ENERGY PREDICTED BY IDOCK:   -2.10 KCAL/MOL
REMARK 923 INTER-LIGAND FREE ENERGY PREDICTED BY IDOCK:   -1.91 KCAL/MOL
REMARK 924 INTRA-LIGAND FREE ENERGY PREDICTED BY IDOCK:   -0.19 KCAL/MOL
REMARK 927      BINDING AFFINITY PREDICTED BY RF-SCORE:    0.00 PKD
ROOT
HETATM    1 CL   UNL     1     -11.502  10.042  71.441  1.00  0.00    -0.399 Cl 
HETATM    2  C   UNL     1     -10.770   8.909  70.276  1.00  0.00    -0.221 C  
HETATM    3  C   UNL     1     -10.000   7.823  71.017  1.00  0.00    -0.177 C  
ENDROOT
BRANCH   3   4
HETATM    4  N   UNL     1      -9.710   6.687  70.168  1.00  0.00    -0.164 NA 
HETATM    5  H   UNL     1     -10.501   6.184  69.763  1.00  0.00     0.000 HD 
BRANCH   4   6
HETATM    6  P   UNL     1      -8.210   6.153  69.811  1.00  0.00    -0.126 P  
HETATM    7  O   UNL     1      -8.258   4.587  70.188  1.00  0.00    -0.066 OA 
HETATM    8  O   UNL     1      -7.086   6.862  70.493  1.00  0.00    -0.064 OA 
HETATM    9  C   UNL     1      -9.262   3.771  69.607  1.00  0.00    -0.152 C  
HETATM   10  C   UNL     1      -9.576   4.043  68.125  1.00  0.00    -0.189 C  
HETATM   11  C   UNL     1      -9.350   5.466  67.606  1.00  0.00    -0.115 C  
HETATM   12  N   UNL     1      -8.146   6.085  68.157  1.00  0.00    -0.109 NA 
BRANCH  12  13
HETATM   13  C   UNL     1      -6.909   5.466  67.610  1.00  0.00    -0.060 C  
HETATM   14  C   UNL     1      -6.857   5.388  66.077  1.00  0.00    -0.058 C  
HETATM   15 CL   UNL     1      -5.383   4.534  65.544  1.00  0.00    -0.012 Cl 
ENDBRANCH  12  13
ENDBRANCH   4   6
ENDBRANCH   3   4
TORSDOF 3
ENDMDL
MODEL      220
REMARK 921   NORMALIZED FREE ENERGY PREDICTED BY IDOCK:   -1.84 KCAL/MOL
REMARK 922        TOTAL FREE ENERGY PREDICTED BY IDOCK:   -2.10 KCAL/MOL
REMARK 923 INTER-LIGAND FREE ENERGY PREDICTED BY IDOCK:   -2.90 KCAL/MOL
REMARK 924 INTRA-LIGAND FREE ENERGY PREDICTED BY IDOCK:    0.80 KCAL/MOL
REMARK 927      BINDING AFFINITY PREDICTED BY RF-SCORE:    0.00 PKD
ROOT
HETATM    1 CL   UNL     1      -6.001  20.353  67.429  1.00  0.00    -0.216 Cl 
HETATM    2  C   UNL     1      -7.122  19.011  67.773  1.00  0.00    -0.227 C  
HETATM    3  C   UNL     1      -7.701  18.467  66.472  1.00  0.00    -0.255 C  
ENDROOT
BRANCH   3   4
HETATM    4  N   UNL     1      -8.305  17.164  66.651  1.00  0.00    -0.231 NA 
HETATM    5  H   UNL     1      -9.245  17.022  66.279  1.00  0.00     0.000 HD 
BRANCH   4   6
HETATM    6  P   UNL     1      -7.591  15.905  67.403  1.00  0.00    -0.219 P  
HETATM    7  O   UNL     1      -8.063  16.054  68.937  1.00  0.00    -0.189 OA 
HETATM    8  O   UNL     1      -6.104  15.826  67.277  1.00  0.00    -0.288 OA 
HETATM    9  C   UNL     1      -9.449  16.124  69.225  1.00  0.00    -0.224 C  
HETATM   10  C   UNL     1     -10.356  15.190  68.405  1.00  0.00    -0.229 C  
HETATM   11  C   UNL     1      -9.885  14.804  67.000  1.00  0.00    -0.239 C  
HETATM   12  N   UNL     1      -8.444  14.565  66.932  1.00  0.00    -0.191 NA 
BRANCH  12  13
HETATM   13  C   UNL     1      -8.061  13.309  67.631  1.00  0.00    -0.174 C  
HETATM   14  C   UNL     1      -7.031  13.490  68.755  1.00  0.00    -0.102 C  
HETATM   15 CL   UNL     1      -6.572  11.909  69.444  1.00  0.00    -0.115 Cl 
ENDBRANCH  12  13
ENDBRANCH   4   6
ENDBRANCH   3   4
TORSDOF 3
ENDMDL
MODEL      221
REMARK 921   NORMALIZED FREE ENERGY PREDICTED BY IDOCK:   -1.83 KCAL/MOL
REMARK 922        TOTAL FREE ENERGY PREDICTED BY IDOCK:   -2.08 KCAL/MOL
REMARK 923 INTER-LIGAND FREE ENERGY PREDICTED BY IDOCK:   -1.88 KCAL/MOL
REMARK 924 INTRA-LIGAND FREE ENERGY PREDICTED BY IDOCK:   -0.21 KCAL/MOL
REMARK 927      BINDING AFFINITY PREDICTED BY RF-SCORE:    0.00 PKD
ROOT
HETATM    1 CL   UNL     1      -6.311   3.348  70.160  1.00  0.00    -0.027 Cl 
HETATM    2  C   UNL     1      -6.775   5.067  70.228  1.00  0.00    -0.036 C  
HETATM    3  C   UNL     1      -6.699   5.684  68.837  1.00  0.00    -0.053 C  
ENDROOT
BRANCH   3   4
HETATM    4  N   UNL     1      -7.412   6.942  68.762  1.00  0.00    -0.097 NA 
HETATM    5  H   UNL     1      -7.508   7.485  69.620  1.00  0.00     0.000 HD 
BRANCH   4   6
HETATM    6  P   UNL     1      -8.074   7.553  67.402  1.00  0.00    -0.117 P  
HETATM    7  O   UNL     1      -9.471   6.761  67.262  1.00  0.00    -0.129 OA 
HETATM    8  O   UNL     1      -7.241   7.447  66.165  1.00  0.00    -0.074 OA 
HETATM    9  C   UNL     1     -10.382   6.779  68.349  1.00  0.00    -0.191 C  
HETATM   10  C   UNL     1     -10.524   8.123  69.086  1.00  0.00    -0.217 C  
HETATM   11  C   UNL     1      -9.311   9.057  69.088  1.00  0.00    -0.148 C  
HETATM   12  N   UNL     1      -8.603   9.069  67.809  1.00  0.00    -0.121 NA 
BRANCH  12  13
HETATM   13  C   UNL     1      -9.391   9.756  66.751  1.00  0.00    -0.152 C  
HETATM   14  C   UNL     1      -9.831  11.184  67.106  1.00  0.00    -0.187 C  
HETATM   15 CL   UNL     1     -10.855  11.863  65.811  1.00  0.00    -0.328 Cl 
ENDBRANCH  12  13
ENDBRANCH   4   6
ENDBRANCH   3   4
TORSDOF 3
ENDMDL
MODEL      222
REMARK 921   NORMALIZED FREE ENERGY PREDICTED BY IDOCK:   -1.79 KCAL/MOL
REMARK 922        TOTAL FREE ENERGY PREDICTED BY IDOCK:   -2.03 KCAL/MOL
REMARK 923 INTER-LIGAND FREE ENERGY PREDICTED BY IDOCK:   -1.96 KCAL/MOL
REMARK 924 INTRA-LIGAND FREE ENERGY PREDICTED BY IDOCK:   -0.07 KCAL/MOL
REMARK 927      BINDING AFFINITY PREDICTED BY RF-SCORE:    0.00 PKD
ROOT
HETATM    1 CL   UNL     1      -9.647   3.563  69.855  1.00  0.00    -0.250 Cl 
HETATM    2  C   UNL     1      -9.446   5.270  69.382  1.00  0.00    -0.138 C  
HETATM    3  C   UNL     1      -9.273   6.139  70.622  1.00  0.00    -0.154 C  
ENDROOT
BRANCH   3   4
HETATM    4  N   UNL     1      -8.737   7.444  70.300  1.00  0.00    -0.145 NA 
HETATM    5  H   UNL     1      -7.948   7.782  70.851  1.00  0.00     0.000 HD 
BRANCH   4   6
HETATM    6  P   UNL     1      -9.305   8.414  69.117  1.00  0.00    -0.151 P  
HETATM    7  O   UNL     1      -8.808   9.885  69.551  1.00  0.00    -0.168 OA 
HETATM    8  O   UNL     1     -10.780   8.364  68.883  1.00  0.00    -0.179 OA 
HETATM    9  C   UNL     1      -7.427  10.099  69.794  1.00  0.00    -0.163 C  
HETATM   10  C   UNL     1      -6.457   9.397  68.827  1.00  0.00    -0.048 C  
HETATM   11  C   UNL     1      -6.926   8.091  68.181  1.00  0.00    -0.077 C  
HETATM   12  N   UNL     1      -8.338   8.122  67.803  1.00  0.00    -0.127 NA 
BRANCH  12  13
HETATM   13  C   UNL     1      -8.578   9.024  66.645  1.00  0.00    -0.127 C  
HETATM   14  C   UNL     1      -7.460   9.023  65.591  1.00  0.00    -0.086 C  
HETATM   15 CL   UNL     1      -7.807  10.216  64.310  1.00  0.00    -0.147 Cl 
ENDBRANCH  12  13
ENDBRANCH   4   6
ENDBRANCH   3   4
TORSDOF 3
ENDMDL
MODEL      223
REMARK 921   NORMALIZED FREE ENERGY PREDICTED BY IDOCK:   -1.76 KCAL/MOL
REMARK 922        TOTAL FREE ENERGY PREDICTED BY IDOCK:   -2.00 KCAL/MOL
REMARK 923 INTER-LIGAND FREE ENERGY PREDICTED BY IDOCK:   -1.78 KCAL/MOL
REMARK 924 INTRA-LIGAND FREE ENERGY PREDICTED BY IDOCK:   -0.23 KCAL/MOL
REMARK 927      BINDING AFFINITY PREDICTED BY RF-SCORE:    0.00 PKD
ROOT
HETATM    1 CL   UNL     1      -8.172  10.817  63.688  1.00  0.00     0.005 Cl 
HETATM    2  C   UNL     1      -8.689  10.063  65.217  1.00  0.00    -0.163 C  
HETATM    3  C   UNL     1      -8.856   8.560  65.028  1.00  0.00    -0.029 C  
ENDROOT
BRANCH   3   4
HETATM    4  N   UNL     1      -8.901   7.856  66.292  1.00  0.00    -0.152 NA 
HETATM    5  H   UNL     1      -8.030   7.458  66.645  1.00  0.00     0.000 HD 
BRANCH   4   6
HETATM    6  P   UNL     1     -10.246   7.652  67.193  1.00  0.00    -0.334 P  
HETATM    7  O   UNL     1     -11.154   6.653  66.312  1.00  0.00     0.298 OA 
HETATM    8  O   UNL     1     -10.980   8.900  67.563  1.00  0.00    -0.134 OA 
HETATM    9  C   UNL     1     -10.604   5.414  65.895  1.00  0.00     0.049 C  
HETATM   10  C   UNL     1      -9.733   4.680  66.931  1.00  0.00    -0.215 C  
HETATM   11  C   UNL     1      -8.995   5.536  67.964  1.00  0.00    -0.108 C  
HETATM   12  N   UNL     1      -9.796   6.662  68.443  1.00  0.00    -0.136 NA 
BRANCH  12  13
HETATM   13  C   UNL     1     -10.916   6.210  69.310  1.00  0.00    -0.381 C  
HETATM   14  C   UNL     1     -11.100   7.029  70.597  1.00  0.00    -0.272 C  
HETATM   15 CL   UNL     1     -12.398   6.330  71.603  1.00  0.00    -0.206 Cl 
ENDBRANCH  12  13
ENDBRANCH   4   6
ENDBRANCH   3   4
TORSDOF 3
ENDMDL
MODEL      224
REMARK 921   NORMALIZED FREE ENERGY PREDICTED BY IDOCK:   -1.73 KCAL/MOL
REMARK 922        TOTAL FREE ENERGY PREDICTED BY IDOCK:   -1.97 KCAL/MOL
REMARK 923 INTER-LIGAND FREE ENERGY PREDICTED BY IDOCK:   -2.10 KCAL/MOL
REMARK 924 INTRA-LIGAND FREE ENERGY PREDICTED BY IDOCK:    0.13 KCAL/MOL
REMARK 927      BINDING AFFINITY PREDICTED BY RF-SCORE:    0.00 PKD
ROOT
HETATM    1 CL   UNL     1     -12.599  11.801  71.083  1.00  0.00    -0.460 Cl 
HETATM    2  C   UNL     1     -11.439  10.820  70.151  1.00  0.00    -0.331 C  
HETATM    3  C   UNL     1     -11.078  11.532  68.853  1.00  0.00    -0.232 C  
ENDROOT
BRANCH   3   4
HETATM    4  N   UNL     1      -9.882  10.984  68.248  1.00  0.00    -0.172 NA 
HETATM    5  H   UNL     1      -9.899  10.003  67.968  1.00  0.00     0.000 HD 
BRANCH   4   6
HETATM    6  P   UNL     1      -8.509  11.824  67.983  1.00  0.00    -0.169 P  
HETATM    7  O   UNL     1      -7.865  11.113  66.687  1.00  0.00    -0.146 OA 
HETATM    8  O   UNL     1      -7.549  11.885  69.127  1.00  0.00    -0.023 OA 
HETATM    9  C   UNL     1      -8.647  10.992  65.511  1.00  0.00    -0.102 C  
HETATM   10  C   UNL     1      -9.523  12.208  65.157  1.00  0.00     0.049 C  
HETATM   11  C   UNL     1     -10.009  13.087  66.312  1.00  0.00    -0.283 C  
HETATM   12  N   UNL     1      -8.993  13.275  67.347  1.00  0.00    -0.204 NA 
BRANCH  12  13
HETATM   13  C   UNL     1      -7.884  14.146  66.876  1.00  0.00     0.278 C  
HETATM   14  C   UNL     1      -8.096  15.646  67.128  1.00  0.00    -0.215 C  
HETATM   15 CL   UNL     1      -6.757  16.595  66.428  1.00  0.00    -0.087 Cl 
ENDBRANCH  12  13
ENDBRANCH   4   6
ENDBRANCH   3   4
TORSDOF 3
ENDMDL
MODEL      225
REMARK 921   NORMALIZED FREE ENERGY PREDICTED BY IDOCK:   -1.62 KCAL/MOL
REMARK 922        TOTAL FREE ENERGY PREDICTED BY IDOCK:   -1.84 KCAL/MOL
REMARK 923 INTER-LIGAND FREE ENERGY PREDICTED BY IDOCK:   -1.62 KCAL/MOL
REMARK 924 INTRA-LIGAND FREE ENERGY PREDICTED BY IDOCK:   -0.22 KCAL/MOL
REMARK 927      BINDING AFFINITY PREDICTED BY RF-SCORE:    0.00 PKD
ROOT
HETATM    1 CL   UNL     1     -11.002   6.539  73.102  1.00  0.00    -0.271 Cl 
HETATM    2  C   UNL     1      -9.586   6.603  72.021  1.00  0.00    -0.148 C  
HETATM    3  C   UNL     1      -9.886   7.492  70.821  1.00  0.00    -0.178 C  
ENDROOT
BRANCH   3   4
HETATM    4  N   UNL     1      -8.680   7.883  70.121  1.00  0.00    -0.135 NA 
HETATM    5  H   UNL     1      -7.874   8.157  70.683  1.00  0.00     0.000 HD 
BRANCH   4   6
HETATM    6  P   UNL     1      -8.519   7.917  68.498  1.00  0.00    -0.127 P  
HETATM    7  O   UNL     1      -7.007   8.426  68.270  1.00  0.00    -0.070 OA 
HETATM    8  O   UNL     1      -9.513   8.755  67.760  1.00  0.00    -0.139 OA 
HETATM    9  C   UNL     1      -5.945   7.723  68.892  1.00  0.00    -0.038 C  
HETATM   10  C   UNL     1      -6.068   6.189  68.903  1.00  0.00    -0.028 C  
HETATM   11  C   UNL     1      -7.479   5.594  68.896  1.00  0.00    -0.084 C  
HETATM   12  N   UNL     1      -8.399   6.332  68.031  1.00  0.00    -0.114 NA 
BRANCH  12  13
HETATM   13  C   UNL     1      -8.083   6.131  66.592  1.00  0.00    -0.109 C  
HETATM   14  C   UNL     1      -8.153   4.672  66.119  1.00  0.00    -0.103 C  
HETATM   15 CL   UNL     1      -7.651   4.543  64.411  1.00  0.00    -0.071 Cl 
ENDBRANCH  12  13
ENDBRANCH   4   6
ENDBRANCH   3   4
TORSDOF 3
ENDMDL
MODEL      226
REMARK 921   NORMALIZED FREE ENERGY PREDICTED BY IDOCK:   -1.61 KCAL/MOL
REMARK 922        TOTAL FREE ENERGY PREDICTED BY IDOCK:   -1.83 KCAL/MOL
REMARK 923 INTER-LIGAND FREE ENERGY PREDICTED BY IDOCK:   -2.85 KCAL/MOL
REMARK 924 INTRA-LIGAND FREE ENERGY PREDICTED BY IDOCK:    1.02 KCAL/MOL
REMARK 927      BINDING AFFINITY PREDICTED BY RF-SCORE:    0.00 PKD
ROOT
HETATM    1 CL   UNL     1      -9.409   1.724  68.906  1.00  0.00    -0.206 Cl 
HETATM    2  C   UNL     1      -9.230   3.438  69.360  1.00  0.00    -0.151 C  
HETATM    3  C   UNL     1      -8.345   4.157  68.349  1.00  0.00    -0.091 C  
ENDROOT
BRANCH   3   4
HETATM    4  N   UNL     1      -8.470   5.596  68.444  1.00  0.00    -0.105 NA 
HETATM    5  H   UNL     1      -8.038   6.159  67.712  1.00  0.00     0.000 HD 
BRANCH   4   6
HETATM    6  P   UNL     1      -9.254   6.381  69.641  1.00  0.00    -0.141 P  
HETATM    7  O   UNL     1      -9.025   7.939  69.295  1.00  0.00    -0.144 OA 
HETATM    8  O   UNL     1      -8.827   6.045  71.033  1.00  0.00    -0.137 OA 
HETATM    9  C   UNL     1      -9.397   8.420  68.014  1.00  0.00    -0.136 C  
HETATM   10  C   UNL     1     -10.714   7.864  67.443  1.00  0.00    -0.278 C  
HETATM   11  C   UNL     1     -11.140   6.462  67.887  1.00  0.00    -0.270 C  
HETATM   12  N   UNL     1     -10.866   6.210  69.301  1.00  0.00    -0.314 NA 
BRANCH  12  13
HETATM   13  C   UNL     1     -11.772   6.991  70.184  1.00  0.00    -0.189 C  
HETATM   14  C   UNL     1     -11.082   7.653  71.386  1.00  0.00    -0.238 C  
HETATM   15 CL   UNL     1     -12.281   8.468  72.427  1.00  0.00    -0.448 Cl 
ENDBRANCH  12  13
ENDBRANCH   4   6
ENDBRANCH   3   4
TORSDOF 3
ENDMDL
MODEL      227
REMARK 921   NORMALIZED FREE ENERGY PREDICTED BY IDOCK:   -1.57 KCAL/MOL
REMARK 922        TOTAL FREE ENERGY PREDICTED BY IDOCK:   -1.78 KCAL/MOL
REMARK 923 INTER-LIGAND FREE ENERGY PREDICTED BY IDOCK:   -1.87 KCAL/MOL
REMARK 924 INTRA-LIGAND FREE ENERGY PREDICTED BY IDOCK:    0.08 KCAL/MOL
REMARK 927      BINDING AFFINITY PREDICTED BY RF-SCORE:    0.00 PKD
ROOT
HETATM    1 CL   UNL     1     -10.887   8.618  68.734  1.00  0.00    -0.082 Cl 
HETATM    2  C   UNL     1      -9.332   7.876  69.191  1.00  0.00    -0.154 C  
HETATM    3  C   UNL     1      -8.991   8.224  70.634  1.00  0.00    -0.151 C  
ENDROOT
BRANCH   3   4
HETATM    4  N   UNL     1      -7.960   7.361  71.172  1.00  0.00    -0.099 NA 
HETATM    5  H   UNL     1      -7.109   7.801  71.524  1.00  0.00     0.000 HD 
BRANCH   4   6
HETATM    6  P   UNL     1      -8.062   5.735  71.254  1.00  0.00    -0.116 P  
HETATM    7  O   UNL     1      -6.990   5.338  72.390  1.00  0.00    -0.075 OA 
HETATM    8  O   UNL     1      -7.825   5.000  69.975  1.00  0.00    -0.068 OA 
HETATM    9  C   UNL     1      -7.091   5.940  73.670  1.00  0.00    -0.085 C  
HETATM   10  C   UNL     1      -8.517   6.111  74.223  1.00  0.00    -0.116 C  
HETATM   11  C   UNL     1      -9.652   6.276  73.208  1.00  0.00    -0.147 C  
HETATM   12  N   UNL     1      -9.489   5.419  72.034  1.00  0.00    -0.147 NA 
BRANCH  12  13
HETATM   13  C   UNL     1      -9.712   3.986  72.363  1.00  0.00    -0.151 C  
HETATM   14  C   UNL     1     -10.876   3.725  73.331  1.00  0.00    -0.222 C  
HETATM   15 CL   UNL     1     -10.978   1.990  73.734  1.00  0.00    -0.254 Cl 
ENDBRANCH  12  13
ENDBRANCH   4   6
ENDBRANCH   3   4
TORSDOF 3
ENDMDL
MODEL      228
REMARK 921   NORMALIZED FREE ENERGY PREDICTED BY IDOCK:   -1.55 KCAL/MOL
REMARK 922        TOTAL FREE ENERGY PREDICTED BY IDOCK:   -1.75 KCAL/MOL
REMARK 923 INTER-LIGAND FREE ENERGY PREDICTED BY IDOCK:   -1.62 KCAL/MOL
REMARK 924 INTRA-LIGAND FREE ENERGY PREDICTED BY IDOCK:   -0.13 KCAL/MOL
REMARK 927      BINDING AFFINITY PREDICTED BY RF-SCORE:    0.00 PKD
ROOT
HETATM    1 CL   UNL     1      -9.438   3.255  70.504  1.00  0.00    -0.239 Cl 
HETATM    2  C   UNL     1      -9.245   4.495  69.238  1.00  0.00    -0.133 C  
HETATM    3  C   UNL     1      -9.486   5.881  69.824  1.00  0.00    -0.148 C  
ENDROOT
BRANCH   3   4
HETATM    4  N   UNL     1      -8.982   6.929  68.961  1.00  0.00    -0.133 NA 
HETATM    5  H   UNL     1      -8.479   7.702  69.398  1.00  0.00     0.000 HD 
BRANCH   4   6
HETATM    6  P   UNL     1      -9.161   6.963  67.340  1.00  0.00    -0.129 P  
HETATM    7  O   UNL     1      -8.865   8.499  66.950  1.00  0.00    -0.131 OA 
HETATM    8  O   UNL     1     -10.481   6.495  66.819  1.00  0.00    -0.234 OA 
HETATM    9  C   UNL     1      -7.641   9.087  67.359  1.00  0.00    -0.088 C  
HETATM   10  C   UNL     1      -6.395   8.190  67.257  1.00  0.00    -0.056 C  
HETATM   11  C   UNL     1      -6.601   6.679  67.394  1.00  0.00    -0.057 C  
HETATM   12  N   UNL     1      -7.817   6.211  66.730  1.00  0.00    -0.103 NA 
BRANCH  12  13
HETATM   13  C   UNL     1      -7.692   6.270  65.249  1.00  0.00    -0.096 C  
HETATM   14  C   UNL     1      -6.855   5.140  64.632  1.00  0.00    -0.049 C  
HETATM   15 CL   UNL     1      -6.687   5.376  62.871  1.00  0.00    -0.026 Cl 
ENDBRANCH  12  13
ENDBRANCH   4   6
ENDBRANCH   3   4
TORSDOF 3
ENDMDL
MODEL      229
REMARK 921   NORMALIZED FREE ENERGY PREDICTED BY IDOCK:   -1.51 KCAL/MOL
REMARK 922        TOTAL FREE ENERGY PREDICTED BY IDOCK:   -1.71 KCAL/MOL
REMARK 923 INTER-LIGAND FREE ENERGY PREDICTED BY IDOCK:   -1.60 KCAL/MOL
REMARK 924 INTRA-LIGAND FREE ENERGY PREDICTED BY IDOCK:   -0.11 KCAL/MOL
REMARK 927      BINDING AFFINITY PREDICTED BY RF-SCORE:    0.00 PKD
ROOT
HETATM    1 CL   UNL     1      -5.809   9.154  72.535  1.00  0.00    -0.050 Cl 
HETATM    2  C   UNL     1      -6.013   7.707  71.514  1.00  0.00    -0.035 C  
HETATM    3  C   UNL     1      -7.270   6.951  71.926  1.00  0.00    -0.079 C  
ENDROOT
BRANCH   3   4
HETATM    4  N   UNL     1      -7.689   6.004  70.914  1.00  0.00    -0.096 NA 
HETATM    5  H   UNL     1      -7.150   5.143  70.819  1.00  0.00     0.000 HD 
BRANCH   4   6
HETATM    6  P   UNL     1      -8.962   6.215  69.915  1.00  0.00    -0.139 P  
HETATM    7  O   UNL     1      -8.507   7.432  68.961  1.00  0.00    -0.128 OA 
HETATM    8  O   UNL     1     -10.275   6.480  70.578  1.00  0.00    -0.186 OA 
HETATM    9  C   UNL     1      -7.286   7.325  68.247  1.00  0.00    -0.100 C  
HETATM   10  C   UNL     1      -6.976   5.942  67.647  1.00  0.00    -0.069 C  
HETATM   11  C   UNL     1      -7.554   4.718  68.362  1.00  0.00    -0.077 C  
HETATM   12  N   UNL     1      -8.911   4.941  68.858  1.00  0.00    -0.103 NA 
BRANCH  12  13
HETATM   13  C   UNL     1      -9.897   5.017  67.747  1.00  0.00    -0.154 C  
HETATM   14  C   UNL     1      -9.646   4.029  66.599  1.00  0.00    -0.209 C  
HETATM   15 CL   UNL     1     -10.823   4.287  65.283  1.00  0.00    -0.175 Cl 
ENDBRANCH  12  13
ENDBRANCH   4   6
ENDBRANCH   3   4
TORSDOF 3
ENDMDL
MODEL      230
REMARK 921   NORMALIZED FREE ENERGY PREDICTED BY IDOCK:   -1.47 KCAL/MOL
REMARK 922        TOTAL FREE ENERGY PREDICTED BY IDOCK:   -1.66 KCAL/MOL
REMARK 923 INTER-LIGAND FREE ENERGY PREDICTED BY IDOCK:   -1.83 KCAL/MOL
REMARK 924 INTRA-LIGAND FREE ENERGY PREDICTED BY IDOCK:    0.17 KCAL/MOL
REMARK 927      BINDING AFFINITY PREDICTED BY RF-SCORE:    0.00 PKD
ROOT
HETATM    1 CL   UNL     1      -9.527   2.277  69.986  1.00  0.00    -0.170 Cl 
HETATM    2  C   UNL     1      -8.755   3.802  70.491  1.00  0.00    -0.073 C  
HETATM    3  C   UNL     1      -7.490   4.042  69.676  1.00  0.00    -0.053 C  
ENDROOT
BRANCH   3   4
HETATM    4  N   UNL     1      -7.037   5.414  69.768  1.00  0.00    -0.061 NA 
HETATM    5  H   UNL     1      -6.165   5.658  69.297  1.00  0.00     0.000 HD 
BRANCH   4   6
HETATM    6  P   UNL     1      -7.821   6.598  70.572  1.00  0.00    -0.108 P  
HETATM    7  O   UNL     1      -6.849   7.875  70.423  1.00  0.00    -0.041 OA 
HETATM    8  O   UNL     1      -8.154   6.307  72.000  1.00  0.00    -0.108 OA 
HETATM    9  C   UNL     1      -6.454   8.289  69.126  1.00  0.00    -0.040 C  
HETATM   10  C   UNL     1      -7.543   8.231  68.039  1.00  0.00    -0.102 C  
HETATM   11  C   UNL     1      -8.650   7.186  68.205  1.00  0.00    -0.122 C  
HETATM   12  N   UNL     1      -9.083   7.037  69.594  1.00  0.00    -0.144 NA 
BRANCH  12  13
HETATM   13  C   UNL     1      -9.847   8.224  70.062  1.00  0.00    -0.182 C  
HETATM   14  C   UNL     1     -11.251   7.910  70.600  1.00  0.00    -0.263 C  
HETATM   15 CL   UNL     1     -12.107   9.416  71.030  1.00  0.00    -0.366 Cl 
ENDBRANCH  12  13
ENDBRANCH   4   6
ENDBRANCH   3   4
TORSDOF 3
ENDMDL
MODEL      231
REMARK 921   NORMALIZED FREE ENERGY PREDICTED BY IDOCK:   -1.34 KCAL/MOL
REMARK 922        TOTAL FREE ENERGY PREDICTED BY IDOCK:   -1.50 KCAL/MOL
REMARK 923 INTER-LIGAND FREE ENERGY PREDICTED BY IDOCK:   -1.97 KCAL/MOL
REMARK 924 INTRA-LIGAND FREE ENERGY PREDICTED BY IDOCK:    0.46 KCAL/MOL
REMARK 927      BINDING AFFINITY PREDICTED BY RF-SCORE:    0.00 PKD
ROOT
HETATM    1 CL   UNL     1      -5.146   8.257  71.189  1.00  0.00    -0.029 Cl 
HETATM    2  C   UNL     1      -6.845   8.032  71.680  1.00  0.00    -0.057 C  
HETATM    3  C   UNL     1      -7.671   9.246  71.271  1.00  0.00     0.073 C  
ENDROOT
BRANCH   3   4
HETATM    4  N   UNL     1      -9.091   8.968  71.296  1.00  0.00    -0.247 NA 
HETATM    5  H   UNL     1      -9.651   9.427  72.016  1.00  0.00     0.000 HD 
BRANCH   4   6
HETATM    6  P   UNL     1      -9.861   7.974  70.257  1.00  0.00    -0.186 P  
HETATM    7  O   UNL     1     -11.422   8.294  70.501  1.00  0.00    -0.257 OA 
HETATM    8  O   UNL     1      -9.556   6.518  70.398  1.00  0.00    -0.162 OA 
HETATM    9  C   UNL     1     -11.875   9.632  70.386  1.00  0.00    -0.155 C  
HETATM   10  C   UNL     1     -11.266  10.453  69.235  1.00  0.00    -0.304 C  
HETATM   11  C   UNL     1      -9.854  10.080  68.773  1.00  0.00    -0.167 C  
HETATM   12  N   UNL     1      -9.628   8.635  68.756  1.00  0.00    -0.154 NA 
BRANCH  12  13
HETATM   13  C   UNL     1     -10.386   7.972  67.662  1.00  0.00    -0.246 C  
HETATM   14  C   UNL     1     -10.396   6.438  67.728  1.00  0.00    -0.193 C  
HETATM   15 CL   UNL     1     -11.240   5.756  66.311  1.00  0.00     0.118 Cl 
ENDBRANCH  12  13
ENDBRANCH   4   6
ENDBRANCH   3   4
TORSDOF 3
ENDMDL
MODEL      232
REMARK 921   NORMALIZED FREE ENERGY PREDICTED BY IDOCK:   -1.28 KCAL/MOL
REMARK 922        TOTAL FREE ENERGY PREDICTED BY IDOCK:   -1.43 KCAL/MOL
REMARK 923 INTER-LIGAND FREE ENERGY PREDICTED BY IDOCK:   -1.52 KCAL/MOL
REMARK 924 INTRA-LIGAND FREE ENERGY PREDICTED BY IDOCK:    0.09 KCAL/MOL
REMARK 927      BINDING AFFINITY PREDICTED BY RF-SCORE:    0.00 PKD
ROOT
HETATM    1 CL   UNL     1      -7.885   8.592  69.829  1.00  0.00    -0.091 Cl 
HETATM    2  C   UNL     1      -8.256   6.880  69.503  1.00  0.00    -0.131 C  
HETATM    3  C   UNL     1      -9.185   6.766  68.301  1.00  0.00    -0.122 C  
ENDROOT
BRANCH   3   4
HETATM    4  N   UNL     1      -9.216   5.422  67.764  1.00  0.00    -0.108 NA 
HETATM    5  H   UNL     1      -9.109   4.647  68.419  1.00  0.00     0.000 HD 
BRANCH   4   6
HETATM    6  P   UNL     1      -9.409   5.058  66.185  1.00  0.00    -0.170 P  
HETATM    7  O   UNL     1      -8.766   6.320  65.416  1.00  0.00    -0.134 OA 
HETATM    8  O   UNL     1     -10.810   4.785  65.745  1.00  0.00    -0.295 OA 
HETATM    9  C   UNL     1      -7.431   6.697  65.712  1.00  0.00    -0.081 C  
HETATM   10  C   UNL     1      -6.434   5.543  65.913  1.00  0.00    -0.040 C  
HETATM   11  C   UNL     1      -6.988   4.215  66.436  1.00  0.00    -0.059 C  
HETATM   12  N   UNL     1      -8.290   3.880  65.862  1.00  0.00    -0.108 NA 
BRANCH  12  13
HETATM   13  C   UNL     1      -8.180   3.506  64.428  1.00  0.00    -0.089 C  
HETATM   14  C   UNL     1      -7.470   2.169  64.167  1.00  0.00    -0.059 C  
HETATM   15 CL   UNL     1      -7.302   1.881  62.414  1.00  0.00    -0.035 Cl 
ENDBRANCH  12  13
ENDBRANCH   4   6
ENDBRANCH   3   4
TORSDOF 3
ENDMDL
MODEL      233
REMARK 921   NORMALIZED FREE ENERGY PREDICTED BY IDOCK:   -1.14 KCAL/MOL
REMARK 922        TOTAL FREE ENERGY PREDICTED BY IDOCK:   -1.28 KCAL/MOL
REMARK 923 INTER-LIGAND FREE ENERGY PREDICTED BY IDOCK:   -1.05 KCAL/MOL
REMARK 924 INTRA-LIGAND FREE ENERGY PREDICTED BY IDOCK:   -0.22 KCAL/MOL
REMARK 927      BINDING AFFINITY PREDICTED BY RF-SCORE:    0.00 PKD
ROOT
HETATM    1 CL   UNL     1      -5.254  10.981  73.766  1.00  0.00     0.393 Cl 
HETATM    2  C   UNL     1      -5.221   9.214  73.532  1.00  0.00    -0.105 C  
HETATM    3  C   UNL     1      -6.161   8.539  74.523  1.00  0.00    -0.128 C  
ENDROOT
BRANCH   3   4
HETATM    4  N   UNL     1      -6.463   7.176  74.141  1.00  0.00    -0.077 NA 
HETATM    5  H   UNL     1      -5.737   6.472  74.280  1.00  0.00     0.000 HD 
BRANCH   4   6
HETATM    6  P   UNL     1      -7.881   6.683  73.503  1.00  0.00    -0.091 P  
HETATM    7  O   UNL     1      -7.599   6.643  71.917  1.00  0.00    -0.094 OA 
HETATM    8  O   UNL     1      -9.074   7.516  73.842  1.00  0.00    -0.233 OA 
HETATM    9  C   UNL     1      -6.508   5.878  71.433  1.00  0.00    -0.049 C  
HETATM   10  C   UNL     1      -6.281   4.518  72.119  1.00  0.00    -0.021 C  
HETATM   11  C   UNL     1      -6.724   4.382  73.578  1.00  0.00    -0.058 C  
HETATM   12  N   UNL     1      -7.987   5.067  73.852  1.00  0.00    -0.102 NA 
BRANCH  12  13
HETATM   13  C   UNL     1      -9.138   4.370  73.221  1.00  0.00    -0.114 C  
HETATM   14  C   UNL     1      -9.935   3.461  74.170  1.00  0.00    -0.125 C  
HETATM   15 CL   UNL     1     -11.219   2.600  73.279  1.00  0.00    -0.249 Cl 
ENDBRANCH  12  13
ENDBRANCH   4   6
ENDBRANCH   3   4
TORSDOF 3
ENDMDL
MODEL      234
REMARK 921   NORMALIZED FREE ENERGY PREDICTED BY IDOCK:   -1.11 KCAL/MOL
REMARK 922        TOTAL FREE ENERGY PREDICTED BY IDOCK:   -1.24 KCAL/MOL
REMARK 923 INTER-LIGAND FREE ENERGY PREDICTED BY IDOCK:   -3.43 KCAL/MOL
REMARK 924 INTRA-LIGAND FREE ENERGY PREDICTED BY IDOCK:    2.18 KCAL/MOL
REMARK 927      BINDING AFFINITY PREDICTED BY RF-SCORE:    0.00 PKD
ROOT
HETATM    1 CL   UNL     1     -11.880  13.834  63.473  1.00  0.00    -0.224 Cl 
HETATM    2  C   UNL     1     -12.346  14.100  65.173  1.00  0.00    -0.451 C  
HETATM    3  C   UNL     1     -11.196  14.747  65.934  1.00  0.00    -0.340 C  
ENDROOT
BRANCH   3   4
HETATM    4  N   UNL     1     -11.633  15.324  67.188  1.00  0.00    -0.204 NA 
HETATM    5  H   UNL     1     -12.586  15.686  67.238  1.00  0.00     0.000 HD 
BRANCH   4   6
HETATM    6  P   UNL     1     -10.710  15.437  68.529  1.00  0.00    -0.282 P  
HETATM    7  O   UNL     1     -10.047  13.974  68.666  1.00  0.00    -0.230 OA 
HETATM    8  O   UNL     1     -11.419  15.854  69.777  1.00  0.00    -0.308 OA 
HETATM    9  C   UNL     1      -9.323  13.443  67.569  1.00  0.00    -0.218 C  
HETATM   10  C   UNL     1      -8.431  14.438  66.805  1.00  0.00    -0.076 C  
HETATM   11  C   UNL     1      -8.859  15.908  66.800  1.00  0.00    -0.262 C  
HETATM   12  N   UNL     1      -9.396  16.345  68.088  1.00  0.00    -0.206 NA 
BRANCH  12  13
HETATM   13  C   UNL     1      -8.334  16.443  69.123  1.00  0.00    -0.182 C  
HETATM   14  C   UNL     1      -7.269  17.516  68.849  1.00  0.00    -0.249 C  
HETATM   15 CL   UNL     1      -5.995  17.466  70.097  1.00  0.00    -0.193 Cl 
ENDBRANCH  12  13
ENDBRANCH   4   6
ENDBRANCH   3   4
TORSDOF 3
ENDMDL
MODEL      235
REMARK 921   NORMALIZED FREE ENERGY PREDICTED BY IDOCK:   -0.99 KCAL/MOL
REMARK 922        TOTAL FREE ENERGY PREDICTED BY IDOCK:   -1.09 KCAL/MOL
REMARK 923 INTER-LIGAND FREE ENERGY PREDICTED BY IDOCK:   -1.12 KCAL/MOL
REMARK 924 INTRA-LIGAND FREE ENERGY PREDICTED BY IDOCK:    0.02 KCAL/MOL
REMARK 927      BINDING AFFINITY PREDICTED BY RF-SCORE:    0.00 PKD
ROOT
HETATM    1 CL   UNL     1     -10.887   8.618  68.734  1.00  0.00    -0.082 Cl 
HETATM    2  C   UNL     1      -9.332   7.876  69.191  1.00  0.00    -0.154 C  
HETATM    3  C   UNL     1      -8.991   8.224  70.634  1.00  0.00    -0.151 C  
ENDROOT
BRANCH   3   4
HETATM    4  N   UNL     1      -7.960   7.361  71.172  1.00  0.00    -0.099 NA 
HETATM    5  H   UNL     1      -7.109   7.801  71.524  1.00  0.00     0.000 HD 
BRANCH   4   6
HETATM    6  P   UNL     1      -8.062   5.735  71.254  1.00  0.00    -0.116 P  
HETATM    7  O   UNL     1      -6.788   5.224  70.409  1.00  0.00    -0.044 OA 
HETATM    8  O   UNL     1      -9.340   5.135  70.764  1.00  0.00    -0.149 OA 
HETATM    9  C   UNL     1      -5.497   5.692  70.764  1.00  0.00    -0.009 C  
HETATM   10  C   UNL     1      -5.212   5.805  72.272  1.00  0.00    -0.021 C  
HETATM   11  C   UNL     1      -6.403   6.072  73.197  1.00  0.00    -0.063 C  
HETATM   12  N   UNL     1      -7.605   5.340  72.797  1.00  0.00    -0.096 NA 
BRANCH  12  13
HETATM   13  C   UNL     1      -7.469   3.881  73.049  1.00  0.00    -0.073 C  
HETATM   14  C   UNL     1      -6.773   3.521  74.370  1.00  0.00    -0.044 C  
HETATM   15 CL   UNL     1      -6.573   1.754  74.511  1.00  0.00    -0.016 Cl 
ENDBRANCH  12  13
ENDBRANCH   4   6
ENDBRANCH   3   4
TORSDOF 3
ENDMDL
MODEL      236
REMARK 921   NORMALIZED FREE ENERGY PREDICTED BY IDOCK:   -0.67 KCAL/MOL
REMARK 922        TOTAL FREE ENERGY PREDICTED BY IDOCK:   -0.72 KCAL/MOL
REMARK 923 INTER-LIGAND FREE ENERGY PREDICTED BY IDOCK:   -1.95 KCAL/MOL
REMARK 924 INTRA-LIGAND FREE ENERGY PREDICTED BY IDOCK:    1.23 KCAL/MOL
REMARK 927      BINDING AFFINITY PREDICTED BY RF-SCORE:    0.00 PKD
ROOT
HETATM    1 CL   UNL     1     -12.385  13.203  63.295  1.00  0.00    -0.512 Cl 
HETATM    2  C   UNL     1     -12.757  13.782  64.939  1.00  0.00    -0.271 C  
HETATM    3  C   UNL     1     -11.495  14.320  65.602  1.00  0.00    -0.329 C  
ENDROOT
BRANCH   3   4
HETATM    4  N   UNL     1     -11.796  15.134  66.760  1.00  0.00    -0.080 NA 
HETATM    5  H   UNL     1     -12.601  15.759  66.705  1.00  0.00     0.000 HD 
BRANCH   4   6
HETATM    6  P   UNL     1     -10.939  15.126  68.148  1.00  0.00    -0.312 P  
HETATM    7  O   UNL     1     -11.849  14.261  69.159  1.00  0.00    -0.293 OA 
HETATM    8  O   UNL     1     -10.591  16.466  68.710  1.00  0.00    -0.270 OA 
HETATM    9  C   UNL     1     -12.249  12.956  68.777  1.00  0.00     0.017 C  
HETATM   10  C   UNL     1     -11.187  12.111  68.052  1.00  0.00    -0.319 C  
HETATM   11  C   UNL     1     -10.130  12.857  67.234  1.00  0.00    -0.231 C  
HETATM   12  N   UNL     1      -9.676  14.086  67.883  1.00  0.00    -0.223 NA 
BRANCH  12  13
HETATM   13  C   UNL     1      -8.846  13.800  69.083  1.00  0.00     0.436 C  
HETATM   14  C   UNL     1      -7.539  13.047  68.793  1.00  0.00    -0.027 C  
HETATM   15 CL   UNL     1      -6.684  12.668  70.313  1.00  0.00     0.465 Cl 
ENDBRANCH  12  13
ENDBRANCH   4   6
ENDBRANCH   3   4
TORSDOF 3
ENDMDL
MODEL      237
REMARK 921   NORMALIZED FREE ENERGY PREDICTED BY IDOCK:   -0.19 KCAL/MOL
REMARK 922        TOTAL FREE ENERGY PREDICTED BY IDOCK:   -0.16 KCAL/MOL
REMARK 923 INTER-LIGAND FREE ENERGY PREDICTED BY IDOCK:   -1.64 KCAL/MOL
REMARK 924 INTRA-LIGAND FREE ENERGY PREDICTED BY IDOCK:    1.48 KCAL/MOL
REMARK 927      BINDING AFFINITY PREDICTED BY RF-SCORE:    0.00 PKD
ROOT
HETATM    1 CL   UNL     1      -8.435  10.463  64.307  1.00  0.00    -0.169 Cl 
HETATM    2  C   UNL     1      -8.200  10.467  66.074  1.00  0.00    -0.144 C  
HETATM    3  C   UNL     1      -7.423   9.227  66.500  1.00  0.00    -0.093 C  
ENDROOT
BRANCH   3   4
HETATM    4  N   UNL     1      -6.881   9.360  67.836  1.00  0.00    -0.074 NA 
HETATM    5  H   UNL     1      -6.136  10.042  67.980  1.00  0.00     0.000 HD 
BRANCH   4   6
HETATM    6  P   UNL     1      -7.377   8.495  69.128  1.00  0.00    -0.082 P  
HETATM    7  O   UNL     1      -7.877   9.615  70.173  1.00  0.00    -0.141 OA 
HETATM    8  O   UNL     1      -6.361   7.578  69.728  1.00  0.00    -0.030 OA 
HETATM    9  C   UNL     1      -8.856  10.553  69.758  1.00  0.00     0.179 C  
HETATM   10  C   UNL     1      -9.993   9.998  68.882  1.00  0.00    -0.198 C  
HETATM   11  C   UNL     1      -9.678   8.782  68.006  1.00  0.00    -0.157 C  
HETATM   12  N   UNL     1      -8.816   7.809  68.677  1.00  0.00    -0.131 NA 
BRANCH  12  13
HETATM   13  C   UNL     1      -9.533   7.099  69.768  1.00  0.00    -0.149 C  
HETATM   14  C   UNL     1     -10.987   6.725  69.442  1.00  0.00    -0.276 C  
HETATM   15 CL   UNL     1     -11.773   5.977  70.858  1.00  0.00    -0.177 Cl 
ENDBRANCH  12  13
ENDBRANCH   4   6
ENDBRANCH   3   4
TORSDOF 3
ENDMDL
MODEL      238
REMARK 921   NORMALIZED FREE ENERGY PREDICTED BY IDOCK:    3.07 KCAL/MOL
REMARK 922        TOTAL FREE ENERGY PREDICTED BY IDOCK:    3.67 KCAL/MOL
REMARK 923 INTER-LIGAND FREE ENERGY PREDICTED BY IDOCK:   -0.21 KCAL/MOL
REMARK 924 INTRA-LIGAND FREE ENERGY PREDICTED BY IDOCK:    3.88 KCAL/MOL
REMARK 927      BINDING AFFINITY PREDICTED BY RF-SCORE:    0.00 PKD
ROOT
HETATM    1 CL   UNL     1     -11.830  14.416  63.710  1.00  0.00    -0.077 Cl 
HETATM    2  C   UNL     1     -10.995  13.525  65.008  1.00  0.00    -0.335 C  
HETATM    3  C   UNL     1      -9.761  12.825  64.452  1.00  0.00     0.127 C  
ENDROOT
BRANCH   3   4
HETATM    4  N   UNL     1      -8.853  12.412  65.501  1.00  0.00    -0.104 NA 
HETATM    5  H   UNL     1      -7.853  12.533  65.338  1.00  0.00     0.000 HD 
BRANCH   4   6
HETATM    6  P   UNL     1      -9.314  11.767  66.927  1.00  0.00    -0.203 P  
HETATM    7  O   UNL     1     -10.911  11.605  66.779  1.00  0.00    -0.251 OA 
HETATM    8  O   UNL     1      -8.937  12.542  68.147  1.00  0.00    -0.191 OA 
HETATM    9  C   UNL     1     -11.429  10.878  65.677  1.00  0.00     0.642 C  
HETATM   10  C   UNL     1     -10.657   9.605  65.288  1.00  0.00     1.017 C  
HETATM   11  C   UNL     1      -9.157   9.569  65.592  1.00  0.00    -0.201 C  
HETATM   12  N   UNL     1      -8.825  10.185  66.876  1.00  0.00    -0.132 NA 
BRANCH  12  13
HETATM   13  C   UNL     1      -9.287   9.355  68.020  1.00  0.00    -0.129 C  
HETATM   14  C   UNL     1     -10.709   9.671  68.506  1.00  0.00    -0.200 C  
HETATM   15 CL   UNL     1     -11.111   8.693  69.943  1.00  0.00    -0.175 Cl 
ENDBRANCH  12  13
ENDBRANCH   4   6
ENDBRANCH   3   4
TORSDOF 3
ENDMDL
MODEL      239
REMARK 921   NORMALIZED FREE ENERGY PREDICTED BY IDOCK:    9.09 KCAL/MOL
REMARK 922        TOTAL FREE ENERGY PREDICTED BY IDOCK:   10.76 KCAL/MOL
REMARK 923 INTER-LIGAND FREE ENERGY PREDICTED BY IDOCK:   -1.31 KCAL/MOL
REMARK 924 INTRA-LIGAND FREE ENERGY PREDICTED BY IDOCK:   12.06 KCAL/MOL
REMARK 927      BINDING AFFINITY PREDICTED BY RF-SCORE:    0.00 PKD
ROOT
HETATM    1 CL   UNL     1      -9.884   7.402  69.495  1.00  0.00    -0.164 Cl 
HETATM    2  C   UNL     1      -8.844   5.955  69.537  1.00  0.00    -0.123 C  
HETATM    3  C   UNL     1      -7.729   6.143  70.558  1.00  0.00    -0.101 C  
ENDROOT
BRANCH   3   4
HETATM    4  N   UNL     1      -7.096   4.889  70.906  1.00  0.00    -0.050 NA 
HETATM    5  H   UNL     1      -6.700   4.801  71.843  1.00  0.00     0.000 HD 
BRANCH   4   6
HETATM    6  P   UNL     1      -6.969   3.605  69.908  1.00  0.00    -0.042 P  
HETATM    7  O   UNL     1      -8.280   2.727  70.239  1.00  0.00    -0.042 OA 
HETATM    8  O   UNL     1      -5.712   2.806  70.027  1.00  0.00    -0.016 OA 
HETATM    9  C   UNL     1      -9.556   3.340  70.154  1.00  0.00    -0.121 C  
HETATM   10  C   UNL     1      -9.762   4.306  68.973  1.00  0.00    -0.209 C  
HETATM   11  C   UNL     1      -8.526   5.031  68.433  1.00  0.00    -0.094 C  
HETATM   12  N   UNL     1      -7.339   4.179  68.399  1.00  0.00    -0.059 NA 
BRANCH  12  13
HETATM   13  C   UNL     1      -7.442   3.134  67.346  1.00  0.00    -0.062 C  
HETATM   14  C   UNL     1      -8.579   3.352  66.336  1.00  0.00    -0.119 C  
HETATM   15 CL   UNL     1      -8.671   1.986  65.192  1.00  0.00    -0.108 Cl 
ENDBRANCH  12  13
ENDBRANCH   4   6
ENDBRANCH   3   4
TORSDOF 3
ENDMDL
