MODEL        1
REMARK 921   NORMALIZED FREE ENERGY PREDICTED BY IDOCK:   -7.80 KCAL/MOL
REMARK 922        TOTAL FREE ENERGY PREDICTED BY IDOCK:  -12.24 KCAL/MOL
REMARK 923 INTER-LIGAND FREE ENERGY PREDICTED BY IDOCK:  -11.44 KCAL/MOL
REMARK 924 INTRA-LIGAND FREE ENERGY PREDICTED BY IDOCK:   -0.79 KCAL/MOL
REMARK 927      BINDING AFFINITY PREDICTED BY RF-SCORE:    0.00 PKD
ROOT
HETATM    1  C   UNL     1     -10.353  10.567  67.743  1.00  0.00    -0.212 C  
HETATM    2  O   UNL     1     -10.192  11.093  69.052  1.00  0.00    -0.209 OA 
ENDROOT
BRANCH   2   3
HETATM    3  C   UNL     1     -11.075  10.671  70.015  1.00  0.00    -0.289 A  
HETATM    4  C   UNL     1     -12.025  11.620  70.434  1.00  0.00    -0.358 A  
HETATM    5  C   UNL     1     -12.961  11.275  71.412  1.00  0.00    -0.482 A  
HETATM    6  C   UNL     1     -12.033   9.045  71.547  1.00  0.00    -0.414 A  
HETATM    7  C   UNL     1     -11.095   9.384  70.564  1.00  0.00    -0.330 A  
HETATM    8  C   UNL     1     -12.974   9.989  71.958  1.00  0.00    -0.514 A  
BRANCH   4   9
HETATM    9  O   UNL     1     -11.941  12.868  69.873  1.00  0.00    -0.324 OA 
BRANCH   9  10
HETATM   10  C   UNL     1     -12.242  13.993  70.700  1.00  0.00    -0.372 C  
BRANCH  10  11
HETATM   11  C   UNL     1     -12.167  15.318  69.931  1.00  0.00    -0.357 C  
BRANCH  11  12
HETATM   12  C   UNL     1     -10.879  16.126  70.173  1.00  0.00    -0.328 C  
BRANCH  12  13
HETATM   13  N   UNL     1     -10.087  16.279  68.949  1.00  0.00    -0.238 NA 
HETATM   14  C   UNL     1     -10.516  17.414  68.122  1.00  0.00    -0.389 C  
HETATM   15  C   UNL     1      -9.517  17.647  66.971  1.00  0.00    -0.266 C  
HETATM   16  C   UNL     1      -9.194  16.370  66.168  1.00  0.00    -0.365 C  
HETATM   17  C   UNL     1      -8.870  15.243  67.163  1.00  0.00    -0.232 C  
HETATM   18  C   UNL     1     -10.010  15.056  68.155  1.00  0.00    -0.220 C  
BRANCH  16  19
HETATM   19  C   UNL     1     -10.279  15.957  65.209  1.00  0.00    -0.251 A  
HETATM   20  N   UNL     1     -11.089  16.868  64.650  1.00  0.00    -0.990 NA 
HETATM   21  O   UNL     1     -12.064  16.155  63.982  1.00  0.00    -0.889 OA 
HETATM   22  C   UNL     1     -11.829  14.822  64.124  1.00  0.00    -0.214 A  
HETATM   23  C   UNL     1     -10.662  14.635  64.832  1.00  0.00    -0.447 A  
HETATM   24  C   UNL     1     -10.213  13.320  65.054  1.00  0.00    -0.313 A  
HETATM   25  C   UNL     1     -11.012  12.262  64.595  1.00  0.00    -0.349 A  
HETATM   26  C   UNL     1     -12.205  12.513  63.920  1.00  0.00    -0.503 A  
HETATM   27  C   UNL     1     -12.641  13.804  63.638  1.00  0.00     0.014 A  
HETATM   28  F   UNL     1     -12.960  11.475  63.535  1.00  0.00    -0.554 F  
ENDBRANCH  16  19
ENDBRANCH  12  13
ENDBRANCH  11  12
ENDBRANCH  10  11
ENDBRANCH   9  10
ENDBRANCH   4   9
BRANCH   6  29
HETATM   29  C   UNL     1     -11.988   7.671  72.118  1.00  0.00    -0.302 C  
HETATM   30  O   UNL     1     -12.783   6.823  71.715  1.00  0.00    -0.362 OA 
HETATM   31  C   UNL     1     -10.931   7.318  73.135  1.00  0.00    -0.384 C  
ENDBRANCH   6  29
ENDBRANCH   2   3
TORSDOF 8
ENDMDL
MODEL        2
REMARK 921   NORMALIZED FREE ENERGY PREDICTED BY IDOCK:   -7.49 KCAL/MOL
REMARK 922        TOTAL FREE ENERGY PREDICTED BY IDOCK:  -11.79 KCAL/MOL
REMARK 923 INTER-LIGAND FREE ENERGY PREDICTED BY IDOCK:  -10.51 KCAL/MOL
REMARK 924 INTRA-LIGAND FREE ENERGY PREDICTED BY IDOCK:   -1.28 KCAL/MOL
REMARK 927      BINDING AFFINITY PREDICTED BY RF-SCORE:    0.00 PKD
ROOT
HETATM    1  C   UNL     1     -13.483   9.577  72.136  1.00  0.00    -0.456 C  
HETATM    2  O   UNL     1     -12.670  10.700  71.827  1.00  0.00    -0.420 OA 
ENDROOT
BRANCH   2   3
HETATM    3  C   UNL     1     -12.133  10.761  70.565  1.00  0.00    -0.366 A  
HETATM    4  C   UNL     1     -12.195  12.016  69.932  1.00  0.00    -0.179 A  
HETATM    5  C   UNL     1     -11.673  12.167  68.645  1.00  0.00    -0.382 A  
HETATM    6  C   UNL     1     -11.006   9.842  68.617  1.00  0.00    -0.189 A  
HETATM    7  C   UNL     1     -11.525   9.685  69.909  1.00  0.00    -0.144 A  
HETATM    8  C   UNL     1     -11.069  11.088  67.994  1.00  0.00    -0.343 A  
BRANCH   4   9
HETATM    9  O   UNL     1     -12.820  13.025  70.618  1.00  0.00    -0.149 OA 
BRANCH   9  10
HETATM   10  C   UNL     1     -12.037  14.156  71.002  1.00  0.00    -0.335 C  
BRANCH  10  11
HETATM   11  C   UNL     1     -12.176  15.322  70.017  1.00  0.00    -0.385 C  
BRANCH  11  12
HETATM   12  C   UNL     1     -11.074  16.392  70.134  1.00  0.00    -0.277 C  
BRANCH  12  13
HETATM   13  N   UNL     1     -10.247  16.465  68.925  1.00  0.00    -0.242 NA 
HETATM   14  C   UNL     1     -10.638  17.555  68.023  1.00  0.00    -0.384 C  
HETATM   15  C   UNL     1      -9.605  17.709  66.889  1.00  0.00    -0.286 C  
HETATM   16  C   UNL     1      -9.278  16.384  66.170  1.00  0.00    -0.365 C  
HETATM   17  C   UNL     1      -8.997  15.312  67.236  1.00  0.00    -0.209 C  
HETATM   18  C   UNL     1     -10.166  15.197  68.205  1.00  0.00    -0.223 C  
BRANCH  16  19
HETATM   19  C   UNL     1     -10.342  15.930  65.206  1.00  0.00    -0.324 A  
HETATM   20  N   UNL     1     -11.165  16.813  64.620  1.00  0.00    -0.914 NA 
HETATM   21  O   UNL     1     -12.116  16.066  63.955  1.00  0.00    -0.880 OA 
HETATM   22  C   UNL     1     -11.854  14.742  64.124  1.00  0.00    -0.214 A  
HETATM   23  C   UNL     1     -10.692  14.593  64.850  1.00  0.00    -0.447 A  
HETATM   24  C   UNL     1     -10.218  13.293  65.102  1.00  0.00    -0.301 A  
HETATM   25  C   UNL     1     -10.989  12.209  64.653  1.00  0.00    -0.359 A  
HETATM   26  C   UNL     1     -12.179  12.422  63.960  1.00  0.00    -0.490 A  
HETATM   27  C   UNL     1     -12.639  13.697  63.649  1.00  0.00    -0.065 A  
HETATM   28  F   UNL     1     -12.906  11.361  63.586  1.00  0.00    -0.406 F  
ENDBRANCH  16  19
ENDBRANCH  12  13
ENDBRANCH  11  12
ENDBRANCH  10  11
ENDBRANCH   9  10
ENDBRANCH   4   9
BRANCH   6  29
HETATM   29  C   UNL     1     -10.398   8.655  67.954  1.00  0.00    -0.229 C  
HETATM   30  O   UNL     1     -10.280   7.606  68.585  1.00  0.00    -0.190 OA 
HETATM   31  C   UNL     1      -9.996   8.733  66.502  1.00  0.00    -0.360 C  
ENDBRANCH   6  29
ENDBRANCH   2   3
TORSDOF 8
ENDMDL
MODEL        3
REMARK 921   NORMALIZED FREE ENERGY PREDICTED BY IDOCK:   -7.23 KCAL/MOL
REMARK 922        TOTAL FREE ENERGY PREDICTED BY IDOCK:  -11.41 KCAL/MOL
REMARK 923 INTER-LIGAND FREE ENERGY PREDICTED BY IDOCK:   -9.41 KCAL/MOL
REMARK 924 INTRA-LIGAND FREE ENERGY PREDICTED BY IDOCK:   -2.00 KCAL/MOL
REMARK 927      BINDING AFFINITY PREDICTED BY RF-SCORE:    0.00 PKD
ROOT
HETATM    1  C   UNL     1     -10.706   6.288  67.014  1.00  0.00    -0.362 C  
HETATM    2  O   UNL     1     -10.467   7.682  67.140  1.00  0.00    -0.287 OA 
ENDROOT
BRANCH   2   3
HETATM    3  C   UNL     1     -10.130   8.155  68.383  1.00  0.00    -0.200 A  
HETATM    4  C   UNL     1      -8.784   8.530  68.553  1.00  0.00    -0.139 A  
HETATM    5  C   UNL     1      -8.354   9.021  69.788  1.00  0.00    -0.129 A  
HETATM    6  C   UNL     1     -10.590   8.791  70.685  1.00  0.00    -0.258 A  
HETATM    7  C   UNL     1     -11.027   8.301  69.447  1.00  0.00    -0.013 A  
HETATM    8  C   UNL     1      -9.255   9.162  70.847  1.00  0.00    -0.326 A  
BRANCH   4   9
HETATM    9  O   UNL     1      -7.950   8.345  67.481  1.00  0.00    -0.104 OA 
BRANCH   9  10
HETATM   10  C   UNL     1      -7.207   9.470  67.010  1.00  0.00    -0.087 C  
BRANCH  10  11
HETATM   11  C   UNL     1      -8.084  10.468  66.246  1.00  0.00    -0.142 C  
BRANCH  11  12
HETATM   12  C   UNL     1      -8.260  11.830  66.944  1.00  0.00    -0.166 C  
BRANCH  12  13
HETATM   13  N   UNL     1      -9.673  12.164  67.149  1.00  0.00    -0.197 NA 
HETATM   14  C   UNL     1     -10.034  13.489  66.629  1.00  0.00    -0.282 C  
HETATM   15  C   UNL     1     -11.562  13.687  66.683  1.00  0.00    -0.391 C  
HETATM   16  C   UNL     1     -12.177  13.363  68.060  1.00  0.00    -0.136 C  
HETATM   17  C   UNL     1     -11.627  12.005  68.527  1.00  0.00    -0.363 C  
HETATM   18  C   UNL     1     -10.104  12.014  68.536  1.00  0.00    -0.196 C  
BRANCH  16  19
HETATM   19  C   UNL     1     -11.952  14.430  69.099  1.00  0.00    -0.322 A  
HETATM   20  N   UNL     1     -11.216  15.517  68.825  1.00  0.00    -0.293 NA 
HETATM   21  O   UNL     1     -11.060  16.186  70.022  1.00  0.00    -0.324 OA 
HETATM   22  C   UNL     1     -11.715  15.513  71.006  1.00  0.00    -0.381 A  
HETATM   23  C   UNL     1     -12.366  14.426  70.465  1.00  0.00    -0.413 A  
HETATM   24  C   UNL     1     -13.141  13.615  71.314  1.00  0.00    -0.357 A  
HETATM   25  C   UNL     1     -13.163  13.921  72.683  1.00  0.00    -0.592 A  
HETATM   26  C   UNL     1     -12.450  15.010  73.180  1.00  0.00    -0.435 A  
HETATM   27  C   UNL     1     -11.722  15.860  72.353  1.00  0.00    -0.582 A  
HETATM   28  F   UNL     1     -12.463  15.243  74.499  1.00  0.00    -0.655 F  
ENDBRANCH  16  19
ENDBRANCH  12  13
ENDBRANCH  11  12
ENDBRANCH  10  11
ENDBRANCH   9  10
ENDBRANCH   4   9
BRANCH   6  29
HETATM   29  C   UNL     1     -11.582   8.896  71.790  1.00  0.00    -0.352 C  
HETATM   30  O   UNL     1     -11.414   8.240  72.816  1.00  0.00    -0.391 OA 
HETATM   31  C   UNL     1     -12.742   9.852  71.664  1.00  0.00    -0.527 C  
ENDBRANCH   6  29
ENDBRANCH   2   3
TORSDOF 8
ENDMDL
MODEL        4
REMARK 921   NORMALIZED FREE ENERGY PREDICTED BY IDOCK:   -7.16 KCAL/MOL
REMARK 922        TOTAL FREE ENERGY PREDICTED BY IDOCK:  -11.31 KCAL/MOL
REMARK 923 INTER-LIGAND FREE ENERGY PREDICTED BY IDOCK:  -10.62 KCAL/MOL
REMARK 924 INTRA-LIGAND FREE ENERGY PREDICTED BY IDOCK:   -0.69 KCAL/MOL
REMARK 927      BINDING AFFINITY PREDICTED BY RF-SCORE:    0.00 PKD
ROOT
HETATM    1  C   UNL     1     -14.270   7.290  71.678  1.00  0.00    -0.409 C  
HETATM    2  O   UNL     1     -13.577   8.530  71.709  1.00  0.00    -0.358 OA 
ENDROOT
BRANCH   2   3
HETATM    3  C   UNL     1     -12.218   8.489  71.895  1.00  0.00    -0.352 A  
HETATM    4  C   UNL     1     -11.470   9.437  71.172  1.00  0.00    -0.352 A  
HETATM    5  C   UNL     1     -10.080   9.465  71.302  1.00  0.00    -0.309 A  
HETATM    6  C   UNL     1     -10.167   7.632  72.879  1.00  0.00    -0.356 A  
HETATM    7  C   UNL     1     -11.562   7.602  72.755  1.00  0.00    -0.334 A  
HETATM    8  C   UNL     1      -9.431   8.574  72.161  1.00  0.00    -0.375 A  
BRANCH   4   9
HETATM    9  O   UNL     1     -12.169  10.265  70.332  1.00  0.00    -0.278 OA 
BRANCH   9  10
HETATM   10  C   UNL     1     -12.334  11.628  70.723  1.00  0.00    -0.358 C  
BRANCH  10  11
HETATM   11  C   UNL     1     -11.845  12.606  69.647  1.00  0.00    -0.379 C  
BRANCH  11  12
HETATM   12  C   UNL     1     -11.998  12.095  68.202  1.00  0.00    -0.178 C  
BRANCH  12  13
HETATM   13  N   UNL     1     -11.029  12.717  67.294  1.00  0.00    -0.248 NA 
HETATM   14  C   UNL     1     -10.210  13.748  67.942  1.00  0.00    -0.245 C  
HETATM   15  C   UNL     1      -9.079  14.206  67.000  1.00  0.00    -0.255 C  
HETATM   16  C   UNL     1      -9.570  14.587  65.588  1.00  0.00    -0.189 C  
HETATM   17  C   UNL     1     -10.500  13.471  65.082  1.00  0.00    -0.375 C  
HETATM   18  C   UNL     1     -11.634  13.227  66.067  1.00  0.00    -0.349 C  
BRANCH  16  19
HETATM   19  C   UNL     1     -10.242  15.933  65.515  1.00  0.00    -0.365 A  
HETATM   20  N   UNL     1     -11.106  16.221  64.530  1.00  0.00    -0.717 NA 
HETATM   21  O   UNL     1     -11.390  17.566  64.652  1.00  0.00    -0.810 OA 
HETATM   22  C   UNL     1     -10.716  18.078  65.716  1.00  0.00    -0.084 A  
HETATM   23  C   UNL     1     -10.026  17.069  66.352  1.00  0.00    -0.318 A  
HETATM   24  C   UNL     1      -9.292  17.382  67.510  1.00  0.00    -0.233 A  
HETATM   25  C   UNL     1      -9.249  18.721  67.926  1.00  0.00    -0.324 A  
HETATM   26  C   UNL     1      -9.934  19.707  67.217  1.00  0.00    -0.395 A  
HETATM   27  C   UNL     1     -10.713  19.414  66.102  1.00  0.00    -0.506 A  
HETATM   28  F   UNL     1      -9.833  20.980  67.622  1.00  0.00    -0.572 F  
ENDBRANCH  16  19
ENDBRANCH  12  13
ENDBRANCH  11  12
ENDBRANCH  10  11
ENDBRANCH   9  10
ENDBRANCH   4   9
BRANCH   6  29
HETATM   29  C   UNL     1      -9.519   6.644  73.786  1.00  0.00    -0.176 C  
HETATM   30  O   UNL     1      -8.441   6.921  74.308  1.00  0.00    -0.136 OA 
HETATM   31  C   UNL     1     -10.222   5.347  74.102  1.00  0.00    -0.282 C  
ENDBRANCH   6  29
ENDBRANCH   2   3
TORSDOF 8
ENDMDL
MODEL        5
REMARK 921   NORMALIZED FREE ENERGY PREDICTED BY IDOCK:   -7.11 KCAL/MOL
REMARK 922        TOTAL FREE ENERGY PREDICTED BY IDOCK:  -11.24 KCAL/MOL
REMARK 923 INTER-LIGAND FREE ENERGY PREDICTED BY IDOCK:   -9.53 KCAL/MOL
REMARK 924 INTRA-LIGAND FREE ENERGY PREDICTED BY IDOCK:   -1.70 KCAL/MOL
REMARK 927      BINDING AFFINITY PREDICTED BY RF-SCORE:    0.00 PKD
ROOT
HETATM    1  C   UNL     1     -13.987   8.943  72.316  1.00  0.00    -0.466 C  
HETATM    2  O   UNL     1     -13.364  10.218  72.294  1.00  0.00    -0.407 OA 
ENDROOT
BRANCH   2   3
HETATM    3  C   UNL     1     -12.536  10.498  71.235  1.00  0.00    -0.419 A  
HETATM    4  C   UNL     1     -12.598  11.812  70.737  1.00  0.00    -0.253 A  
HETATM    5  C   UNL     1     -11.791  12.182  69.659  1.00  0.00    -0.391 A  
HETATM    6  C   UNL     1     -10.841   9.958  69.578  1.00  0.00    -0.274 A  
HETATM    7  C   UNL     1     -11.646   9.583  70.661  1.00  0.00    -0.350 A  
HETATM    8  C   UNL     1     -10.906  11.262  69.089  1.00  0.00    -0.269 A  
BRANCH   4   9
HETATM    9  O   UNL     1     -13.503  12.655  71.328  1.00  0.00    -0.030 OA 
BRANCH   9  10
HETATM   10  C   UNL     1     -12.997  13.766  72.069  1.00  0.00    -0.345 C  
BRANCH  10  11
HETATM   11  C   UNL     1     -12.854  15.025  71.206  1.00  0.00    -0.438 C  
BRANCH  11  12
HETATM   12  C   UNL     1     -11.537  15.796  71.413  1.00  0.00    -0.445 C  
BRANCH  12  13
HETATM   13  N   UNL     1     -10.858  16.074  70.143  1.00  0.00    -0.342 NA 
HETATM   14  C   UNL     1     -11.754  16.010  68.982  1.00  0.00    -0.318 C  
HETATM   15  C   UNL     1     -11.032  16.518  67.718  1.00  0.00    -0.252 C  
HETATM   16  C   UNL     1      -9.656  15.859  67.489  1.00  0.00    -0.221 C  
HETATM   17  C   UNL     1      -8.873  15.901  68.811  1.00  0.00    -0.213 C  
HETATM   18  C   UNL     1      -9.672  15.249  69.932  1.00  0.00    -0.093 C  
BRANCH  16  19
HETATM   19  C   UNL     1      -9.731  14.457  66.943  1.00  0.00    -0.262 A  
HETATM   20  N   UNL     1      -8.793  13.547  67.246  1.00  0.00    -0.214 NA 
HETATM   21  O   UNL     1      -9.055  12.448  66.453  1.00  0.00    -0.215 OA 
HETATM   22  C   UNL     1     -10.157  12.690  65.692  1.00  0.00    -0.272 A  
HETATM   23  C   UNL     1     -10.676  13.925  66.015  1.00  0.00    -0.287 A  
HETATM   24  C   UNL     1     -11.849  14.352  65.367  1.00  0.00    -0.366 A  
HETATM   25  C   UNL     1     -12.398  13.522  64.377  1.00  0.00    -0.391 A  
HETATM   26  C   UNL     1     -11.804  12.301  64.064  1.00  0.00    -0.444 A  
HETATM   27  C   UNL     1     -10.677  11.831  64.730  1.00  0.00    -0.355 A  
HETATM   28  F   UNL     1     -12.334  11.558  63.083  1.00  0.00    -0.573 F  
ENDBRANCH  16  19
ENDBRANCH  12  13
ENDBRANCH  11  12
ENDBRANCH  10  11
ENDBRANCH   9  10
ENDBRANCH   4   9
BRANCH   6  29
HETATM   29  C   UNL     1      -9.935   8.935  68.987  1.00  0.00    -0.190 C  
HETATM   30  O   UNL     1      -9.001   8.497  69.656  1.00  0.00    -0.142 OA 
HETATM   31  C   UNL     1     -10.211   8.402  67.603  1.00  0.00    -0.298 C  
ENDBRANCH   6  29
ENDBRANCH   2   3
TORSDOF 8
ENDMDL
MODEL        6
REMARK 921   NORMALIZED FREE ENERGY PREDICTED BY IDOCK:   -7.08 KCAL/MOL
REMARK 922        TOTAL FREE ENERGY PREDICTED BY IDOCK:  -11.19 KCAL/MOL
REMARK 923 INTER-LIGAND FREE ENERGY PREDICTED BY IDOCK:   -8.92 KCAL/MOL
REMARK 924 INTRA-LIGAND FREE ENERGY PREDICTED BY IDOCK:   -2.27 KCAL/MOL
REMARK 927      BINDING AFFINITY PREDICTED BY RF-SCORE:    0.00 PKD
ROOT
HETATM    1  C   UNL     1     -13.381  14.545  72.829  1.00  0.00    -0.507 C  
HETATM    2  O   UNL     1     -13.420  13.165  72.494  1.00  0.00    -0.569 OA 
ENDROOT
BRANCH   2   3
HETATM    3  C   UNL     1     -12.864  12.791  71.297  1.00  0.00    -0.262 A  
HETATM    4  C   UNL     1     -12.733  11.406  71.087  1.00  0.00    -0.377 A  
HETATM    5  C   UNL     1     -12.175  10.937  69.895  1.00  0.00    -0.408 A  
HETATM    6  C   UNL     1     -11.894  13.207  69.106  1.00  0.00    -0.364 A  
HETATM    7  C   UNL     1     -12.456  13.682  70.298  1.00  0.00    -0.335 A  
HETATM    8  C   UNL     1     -11.768  11.833  68.903  1.00  0.00    -0.384 A  
BRANCH   4   9
HETATM    9  O   UNL     1     -13.131  10.585  72.110  1.00  0.00    -0.459 OA 
BRANCH   9  10
HETATM   10  C   UNL     1     -13.281   9.193  71.830  1.00  0.00    -0.416 C  
BRANCH  10  11
HETATM   11  C   UNL     1     -12.110   8.362  72.370  1.00  0.00    -0.443 C  
BRANCH  11  12
HETATM   12  C   UNL     1     -11.993   6.952  71.759  1.00  0.00    -0.333 C  
BRANCH  12  13
HETATM   13  N   UNL     1     -10.843   6.839  70.856  1.00  0.00    -0.240 NA 
HETATM   14  C   UNL     1      -9.933   7.988  70.932  1.00  0.00    -0.186 C  
HETATM   15  C   UNL     1      -8.648   7.710  70.127  1.00  0.00    -0.140 C  
HETATM   16  C   UNL     1      -8.918   7.214  68.691  1.00  0.00    -0.131 C  
HETATM   17  C   UNL     1      -9.964   6.090  68.756  1.00  0.00    -0.186 C  
HETATM   18  C   UNL     1     -11.221   6.564  69.473  1.00  0.00    -0.372 C  
BRANCH  16  19
HETATM   19  C   UNL     1      -9.340   8.300  67.736  1.00  0.00    -0.138 A  
HETATM   20  N   UNL     1     -10.032   8.010  66.624  1.00  0.00    -0.261 NA 
HETATM   21  O   UNL     1     -10.096   9.181  65.897  1.00  0.00    -0.273 OA 
HETATM   22  C   UNL     1      -9.463  10.174  66.579  1.00  0.00    -0.169 A  
HETATM   23  C   UNL     1      -9.026   9.691  67.793  1.00  0.00    -0.122 A  
HETATM   24  C   UNL     1      -8.378  10.575  68.675  1.00  0.00    -0.132 A  
HETATM   25  C   UNL     1      -8.154  11.892  68.246  1.00  0.00    -0.154 A  
HETATM   26  C   UNL     1      -8.582  12.312  66.988  1.00  0.00    -0.191 A  
HETATM   27  C   UNL     1      -9.276  11.474  66.121  1.00  0.00    -0.230 A  
HETATM   28  F   UNL     1      -8.311  13.565  66.600  1.00  0.00    -0.123 F  
ENDBRANCH  16  19
ENDBRANCH  12  13
ENDBRANCH  11  12
ENDBRANCH  10  11
ENDBRANCH   9  10
ENDBRANCH   4   9
BRANCH   6  29
HETATM   29  C   UNL     1     -11.450  14.202  68.091  1.00  0.00    -0.310 C  
HETATM   30  O   UNL     1     -10.642  15.071  68.412  1.00  0.00    -0.231 OA 
HETATM   31  C   UNL     1     -11.947  14.094  66.671  1.00  0.00    -0.470 C  
ENDBRANCH   6  29
ENDBRANCH   2   3
TORSDOF 8
ENDMDL
MODEL        7
REMARK 921   NORMALIZED FREE ENERGY PREDICTED BY IDOCK:   -7.04 KCAL/MOL
REMARK 922        TOTAL FREE ENERGY PREDICTED BY IDOCK:  -11.13 KCAL/MOL
REMARK 923 INTER-LIGAND FREE ENERGY PREDICTED BY IDOCK:   -9.64 KCAL/MOL
REMARK 924 INTRA-LIGAND FREE ENERGY PREDICTED BY IDOCK:   -1.48 KCAL/MOL
REMARK 927      BINDING AFFINITY PREDICTED BY RF-SCORE:    0.00 PKD
ROOT
HETATM    1  C   UNL     1     -12.761  16.042  73.605  1.00  0.00    -0.600 C  
HETATM    2  O   UNL     1     -12.849  14.806  72.912  1.00  0.00    -0.403 OA 
ENDROOT
BRANCH   2   3
HETATM    3  C   UNL     1     -12.323  14.753  71.645  1.00  0.00    -0.345 A  
HETATM    4  C   UNL     1     -12.706  13.645  70.867  1.00  0.00    -0.310 A  
HETATM    5  C   UNL     1     -12.215  13.512  69.566  1.00  0.00    -0.289 A  
HETATM    6  C   UNL     1     -10.984  15.582  69.793  1.00  0.00    -0.299 A  
HETATM    7  C   UNL     1     -11.476  15.722  71.097  1.00  0.00    -0.466 A  
HETATM    8  C   UNL     1     -11.368  14.483  69.026  1.00  0.00    -0.296 A  
BRANCH   4   9
HETATM    9  O   UNL     1     -13.522  12.721  71.467  1.00  0.00    -0.241 OA 
BRANCH   9  10
HETATM   10  C   UNL     1     -12.930  11.503  71.921  1.00  0.00    -0.348 C  
BRANCH  10  11
HETATM   11  C   UNL     1     -12.558  10.569  70.763  1.00  0.00    -0.474 C  
BRANCH  11  12
HETATM   12  C   UNL     1     -11.181   9.894  70.904  1.00  0.00    -0.360 C  
BRANCH  12  13
HETATM   13  N   UNL     1     -10.503   9.752  69.612  1.00  0.00    -0.225 NA 
HETATM   14  C   UNL     1      -9.157  10.337  69.599  1.00  0.00    -0.125 C  
HETATM   15  C   UNL     1      -8.424   9.969  68.294  1.00  0.00    -0.111 C  
HETATM   16  C   UNL     1      -9.248  10.258  67.022  1.00  0.00    -0.169 C  
HETATM   17  C   UNL     1     -10.661   9.686  67.221  1.00  0.00    -0.284 C  
HETATM   18  C   UNL     1     -11.295  10.244  68.488  1.00  0.00    -0.168 C  
BRANCH  16  19
HETATM   19  C   UNL     1      -9.298  11.715  66.641  1.00  0.00    -0.194 A  
HETATM   20  N   UNL     1      -8.451  12.600  67.187  1.00  0.00    -0.190 NA 
HETATM   21  O   UNL     1      -8.877  13.845  66.769  1.00  0.00    -0.224 OA 
HETATM   22  C   UNL     1      -9.962  13.705  65.960  1.00  0.00    -0.302 A  
HETATM   23  C   UNL     1     -10.232  12.366  65.781  1.00  0.00    -0.283 A  
HETATM   24  C   UNL     1     -11.298  12.002  64.938  1.00  0.00    -0.366 A  
HETATM   25  C   UNL     1     -12.073  13.025  64.371  1.00  0.00    -0.473 A  
HETATM   26  C   UNL     1     -11.777  14.363  64.623  1.00  0.00    -0.430 A  
HETATM   27  C   UNL     1     -10.694  14.749  65.406  1.00  0.00    -0.385 A  
HETATM   28  F   UNL     1     -12.567  15.309  64.097  1.00  0.00    -0.482 F  
ENDBRANCH  16  19
ENDBRANCH  12  13
ENDBRANCH  11  12
ENDBRANCH  10  11
ENDBRANCH   9  10
ENDBRANCH   4   9
BRANCH   6  29
HETATM   29  C   UNL     1     -10.061  16.629  69.273  1.00  0.00    -0.257 C  
HETATM   30  O   UNL     1     -10.506  17.741  68.994  1.00  0.00    -0.332 OA 
HETATM   31  C   UNL     1      -8.587  16.333  69.154  1.00  0.00    -0.212 C  
ENDBRANCH   6  29
ENDBRANCH   2   3
TORSDOF 8
ENDMDL
MODEL        8
REMARK 921   NORMALIZED FREE ENERGY PREDICTED BY IDOCK:   -7.00 KCAL/MOL
REMARK 922        TOTAL FREE ENERGY PREDICTED BY IDOCK:  -11.08 KCAL/MOL
REMARK 923 INTER-LIGAND FREE ENERGY PREDICTED BY IDOCK:   -9.92 KCAL/MOL
REMARK 924 INTRA-LIGAND FREE ENERGY PREDICTED BY IDOCK:   -1.16 KCAL/MOL
REMARK 927      BINDING AFFINITY PREDICTED BY RF-SCORE:    0.00 PKD
ROOT
HETATM    1  C   UNL     1      -9.916  17.422  68.691  1.00  0.00    -0.340 C  
HETATM    2  O   UNL     1     -11.158  16.851  68.304  1.00  0.00    -0.349 OA 
ENDROOT
BRANCH   2   3
HETATM    3  C   UNL     1     -11.614  15.779  69.029  1.00  0.00    -0.400 A  
HETATM    4  C   UNL     1     -11.700  14.559  68.334  1.00  0.00    -0.333 A  
HETATM    5  C   UNL     1     -12.156  13.417  68.996  1.00  0.00    -0.299 A  
HETATM    6  C   UNL     1     -12.423  14.680  71.042  1.00  0.00    -0.399 A  
HETATM    7  C   UNL     1     -11.962  15.828  70.383  1.00  0.00    -0.385 A  
HETATM    8  C   UNL     1     -12.505  13.474  70.348  1.00  0.00    -0.345 A  
BRANCH   4   9
HETATM    9  O   UNL     1     -11.363  14.580  67.005  1.00  0.00    -0.325 OA 
BRANCH   9  10
HETATM   10  C   UNL     1     -12.257  13.960  66.080  1.00  0.00    -0.462 C  
BRANCH  10  11
HETATM   11  C   UNL     1     -11.699  12.645  65.522  1.00  0.00    -0.446 C  
BRANCH  11  12
HETATM   12  C   UNL     1     -10.168  12.618  65.362  1.00  0.00    -0.284 C  
BRANCH  12  13
HETATM   13  N   UNL     1      -9.559  11.498  66.087  1.00  0.00    -0.218 NA 
HETATM   14  C   UNL     1     -10.365  10.272  66.037  1.00  0.00    -0.178 C  
HETATM   15  C   UNL     1      -9.575   9.086  66.628  1.00  0.00    -0.274 C  
HETATM   16  C   UNL     1      -8.966   9.383  68.014  1.00  0.00    -0.128 C  
HETATM   17  C   UNL     1      -8.249  10.742  67.946  1.00  0.00    -0.113 C  
HETATM   18  C   UNL     1      -9.200  11.829  67.463  1.00  0.00    -0.175 C  
BRANCH  16  19
HETATM   19  C   UNL     1      -9.963   9.346  69.143  1.00  0.00    -0.182 A  
HETATM   20  N   UNL     1     -10.272  10.458  69.827  1.00  0.00    -0.219 NA 
HETATM   21  O   UNL     1     -11.057  10.049  70.886  1.00  0.00    -0.328 OA 
HETATM   22  C   UNL     1     -11.234   8.702  70.827  1.00  0.00    -0.261 A  
HETATM   23  C   UNL     1     -10.623   8.208  69.695  1.00  0.00    -0.223 A  
HETATM   24  C   UNL     1     -10.724   6.832  69.422  1.00  0.00    -0.291 A  
HETATM   25  C   UNL     1     -11.391   6.019  70.352  1.00  0.00    -0.322 A  
HETATM   26  C   UNL     1     -11.954   6.571  71.501  1.00  0.00    -0.329 A  
HETATM   27  C   UNL     1     -11.917   7.936  71.765  1.00  0.00    -0.337 A  
HETATM   28  F   UNL     1     -12.545   5.755  72.385  1.00  0.00    -0.319 F  
ENDBRANCH  16  19
ENDBRANCH  12  13
ENDBRANCH  11  12
ENDBRANCH  10  11
ENDBRANCH   9  10
ENDBRANCH   4   9
BRANCH   6  29
HETATM   29  C   UNL     1     -12.809  14.798  72.475  1.00  0.00    -0.381 C  
HETATM   30  O   UNL     1     -13.697  14.075  72.922  1.00  0.00    -0.677 OA 
HETATM   31  C   UNL     1     -12.064  15.754  73.374  1.00  0.00    -0.596 C  
ENDBRANCH   6  29
ENDBRANCH   2   3
TORSDOF 8
ENDMDL
MODEL        9
REMARK 921   NORMALIZED FREE ENERGY PREDICTED BY IDOCK:   -6.95 KCAL/MOL
REMARK 922        TOTAL FREE ENERGY PREDICTED BY IDOCK:  -11.00 KCAL/MOL
REMARK 923 INTER-LIGAND FREE ENERGY PREDICTED BY IDOCK:   -9.75 KCAL/MOL
REMARK 924 INTRA-LIGAND FREE ENERGY PREDICTED BY IDOCK:   -1.25 KCAL/MOL
REMARK 927      BINDING AFFINITY PREDICTED BY RF-SCORE:    0.00 PKD
ROOT
HETATM    1  C   UNL     1     -10.400  19.872  65.712  1.00  0.00    -0.410 C  
HETATM    2  O   UNL     1     -10.760  18.622  66.283  1.00  0.00    -0.370 OA 
ENDROOT
BRANCH   2   3
HETATM    3  C   UNL     1      -9.741  17.802  66.699  1.00  0.00    -0.313 A  
HETATM    4  C   UNL     1      -9.662  16.549  66.063  1.00  0.00    -0.301 A  
HETATM    5  C   UNL     1      -8.656  15.651  66.427  1.00  0.00    -0.319 A  
HETATM    6  C   UNL     1      -7.789  17.238  68.035  1.00  0.00    -0.205 A  
HETATM    7  C   UNL     1      -8.794  18.144  67.671  1.00  0.00    -0.253 A  
HETATM    8  C   UNL     1      -7.716  15.999  67.401  1.00  0.00    -0.195 A  
BRANCH   4   9
HETATM    9  O   UNL     1     -10.630  16.266  65.134  1.00  0.00    -0.576 OA 
BRANCH   9  10
HETATM   10  C   UNL     1     -10.664  14.948  64.587  1.00  0.00    -0.234 C  
BRANCH  10  11
HETATM   11  C   UNL     1     -12.096  14.454  64.346  1.00  0.00    -0.491 C  
BRANCH  11  12
HETATM   12  C   UNL     1     -12.786  13.863  65.589  1.00  0.00    -0.495 C  
BRANCH  12  13
HETATM   13  N   UNL     1     -11.819  13.458  66.614  1.00  0.00    -0.376 NA 
HETATM   14  C   UNL     1     -11.586  12.009  66.648  1.00  0.00    -0.319 C  
HETATM   15  C   UNL     1     -10.412  11.676  67.591  1.00  0.00    -0.219 C  
HETATM   16  C   UNL     1     -10.538  12.327  68.984  1.00  0.00    -0.104 C  
HETATM   17  C   UNL     1     -10.888  13.812  68.794  1.00  0.00    -0.281 C  
HETATM   18  C   UNL     1     -12.142  13.965  67.944  1.00  0.00    -0.283 C  
BRANCH  16  19
HETATM   19  C   UNL     1     -11.526  11.644  69.893  1.00  0.00    -0.228 A  
HETATM   20  N   UNL     1     -12.432  12.352  70.584  1.00  0.00    -0.284 NA 
HETATM   21  O   UNL     1     -13.045  11.459  71.439  1.00  0.00    -0.385 OA 
HETATM   22  C   UNL     1     -12.523  10.217  71.248  1.00  0.00    -0.408 A  
HETATM   23  C   UNL     1     -11.604  10.258  70.223  1.00  0.00    -0.396 A  
HETATM   24  C   UNL     1     -10.975   9.061  69.836  1.00  0.00    -0.204 A  
HETATM   25  C   UNL     1     -11.270   7.894  70.557  1.00  0.00    -0.259 A  
HETATM   26  C   UNL     1     -12.179   7.923  71.613  1.00  0.00    -0.308 A  
HETATM   27  C   UNL     1     -12.857   9.082  71.978  1.00  0.00    -0.468 A  
HETATM   28  F   UNL     1     -12.402   6.797  72.304  1.00  0.00    -0.315 F  
ENDBRANCH  16  19
ENDBRANCH  12  13
ENDBRANCH  11  12
ENDBRANCH  10  11
ENDBRANCH   9  10
ENDBRANCH   4   9
BRANCH   6  29
HETATM   29  C   UNL     1      -6.828  17.643  69.097  1.00  0.00    -0.229 C  
HETATM   30  O   UNL     1      -6.386  16.793  69.868  1.00  0.00    -0.215 OA 
HETATM   31  C   UNL     1      -6.359  19.075  69.175  1.00  0.00    -0.303 C  
ENDBRANCH   6  29
ENDBRANCH   2   3
TORSDOF 8
ENDMDL
MODEL       10
REMARK 921   NORMALIZED FREE ENERGY PREDICTED BY IDOCK:   -6.93 KCAL/MOL
REMARK 922        TOTAL FREE ENERGY PREDICTED BY IDOCK:  -10.97 KCAL/MOL
REMARK 923 INTER-LIGAND FREE ENERGY PREDICTED BY IDOCK:   -8.85 KCAL/MOL
REMARK 924 INTRA-LIGAND FREE ENERGY PREDICTED BY IDOCK:   -2.12 KCAL/MOL
REMARK 927      BINDING AFFINITY PREDICTED BY RF-SCORE:    0.00 PKD
ROOT
HETATM    1  C   UNL     1     -14.223  14.128  72.232  1.00  0.00    -0.504 C  
HETATM    2  O   UNL     1     -12.953  13.922  71.631  1.00  0.00    -0.322 OA 
ENDROOT
BRANCH   2   3
HETATM    3  C   UNL     1     -12.668  12.660  71.174  1.00  0.00    -0.254 A  
HETATM    4  C   UNL     1     -11.799  12.588  70.069  1.00  0.00    -0.289 A  
HETATM    5  C   UNL     1     -11.457  11.342  69.539  1.00  0.00    -0.381 A  
HETATM    6  C   UNL     1     -12.816  10.233  71.205  1.00  0.00    -0.522 A  
HETATM    7  C   UNL     1     -13.159  11.480  71.744  1.00  0.00    -0.503 A  
HETATM    8  C   UNL     1     -11.953  10.168  70.111  1.00  0.00    -0.262 A  
BRANCH   4   9
HETATM    9  O   UNL     1     -11.367  13.779  69.544  1.00  0.00    -0.260 OA 
BRANCH   9  10
HETATM   10  C   UNL     1     -11.894  14.181  68.280  1.00  0.00    -0.356 C  
BRANCH  10  11
HETATM   11  C   UNL     1     -10.809  14.277  67.200  1.00  0.00    -0.296 C  
BRANCH  11  12
HETATM   12  C   UNL     1     -11.088  13.440  65.938  1.00  0.00    -0.280 C  
BRANCH  12  13
HETATM   13  N   UNL     1     -10.122  12.349  65.777  1.00  0.00    -0.251 NA 
HETATM   14  C   UNL     1     -10.755  11.028  65.677  1.00  0.00    -0.148 C  
HETATM   15  C   UNL     1      -9.709   9.960  65.298  1.00  0.00    -0.383 C  
HETATM   16  C   UNL     1      -8.449   9.989  66.187  1.00  0.00    -0.131 C  
HETATM   17  C   UNL     1      -7.963  11.444  66.290  1.00  0.00    -0.037 C  
HETATM   18  C   UNL     1      -9.077  12.350  66.797  1.00  0.00    -0.212 C  
BRANCH  16  19
HETATM   19  C   UNL     1      -8.647   9.381  67.551  1.00  0.00    -0.122 A  
HETATM   20  N   UNL     1      -7.940   9.811  68.607  1.00  0.00    -0.088 NA 
HETATM   21  O   UNL     1      -8.226   8.939  69.639  1.00  0.00    -0.106 OA 
HETATM   22  C   UNL     1      -9.115   8.003  69.209  1.00  0.00    -0.148 A  
HETATM   23  C   UNL     1      -9.478   8.277  67.909  1.00  0.00    -0.163 A  
HETATM   24  C   UNL     1     -10.427   7.447  67.287  1.00  0.00    -0.385 A  
HETATM   25  C   UNL     1     -10.911   6.341  68.003  1.00  0.00    -0.418 A  
HETATM   26  C   UNL     1     -10.474   6.091  69.302  1.00  0.00    -0.264 A  
HETATM   27  C   UNL     1      -9.580   6.929  69.960  1.00  0.00    -0.158 A  
HETATM   28  F   UNL     1     -10.928   5.001  69.937  1.00  0.00    -0.255 F  
ENDBRANCH  16  19
ENDBRANCH  12  13
ENDBRANCH  11  12
ENDBRANCH  10  11
ENDBRANCH   9  10
ENDBRANCH   4   9
BRANCH   6  29
HETATM   29  C   UNL     1     -13.392   9.012  71.833  1.00  0.00    -0.417 C  
HETATM   30  O   UNL     1     -14.351   9.121  72.595  1.00  0.00    -0.561 OA 
HETATM   31  C   UNL     1     -12.836   7.655  71.479  1.00  0.00    -0.376 C  
ENDBRANCH   6  29
ENDBRANCH   2   3
TORSDOF 8
ENDMDL
MODEL       11
REMARK 921   NORMALIZED FREE ENERGY PREDICTED BY IDOCK:   -6.92 KCAL/MOL
REMARK 922        TOTAL FREE ENERGY PREDICTED BY IDOCK:  -10.95 KCAL/MOL
REMARK 923 INTER-LIGAND FREE ENERGY PREDICTED BY IDOCK:  -10.13 KCAL/MOL
REMARK 924 INTRA-LIGAND FREE ENERGY PREDICTED BY IDOCK:   -0.82 KCAL/MOL
REMARK 927      BINDING AFFINITY PREDICTED BY RF-SCORE:    0.00 PKD
ROOT
HETATM    1  C   UNL     1     -10.813   6.075  69.433  1.00  0.00    -0.363 C  
HETATM    2  O   UNL     1     -10.020   7.253  69.474  1.00  0.00    -0.166 OA 
ENDROOT
BRANCH   2   3
HETATM    3  C   UNL     1     -10.677   8.451  69.606  1.00  0.00    -0.198 A  
HETATM    4  C   UNL     1     -10.419   9.407  68.606  1.00  0.00    -0.209 A  
HETATM    5  C   UNL     1     -11.044  10.654  68.665  1.00  0.00    -0.315 A  
HETATM    6  C   UNL     1     -12.198  10.007  70.690  1.00  0.00    -0.360 A  
HETATM    7  C   UNL     1     -11.577   8.753  70.634  1.00  0.00    -0.236 A  
HETATM    8  C   UNL     1     -11.940  10.950  69.695  1.00  0.00    -0.414 A  
BRANCH   4   9
HETATM    9  O   UNL     1      -9.513   9.058  67.637  1.00  0.00    -0.138 OA 
BRANCH   9  10
HETATM   10  C   UNL     1      -8.943  10.104  66.849  1.00  0.00    -0.132 C  
BRANCH  10  11
HETATM   11  C   UNL     1      -9.472  10.102  65.410  1.00  0.00    -0.296 C  
BRANCH  11  12
HETATM   12  C   UNL     1      -9.910  11.483  64.888  1.00  0.00    -0.252 C  
BRANCH  12  13
HETATM   13  N   UNL     1     -10.312  12.380  65.977  1.00  0.00    -0.245 NA 
HETATM   14  C   UNL     1     -11.618  13.011  65.752  1.00  0.00    -0.356 C  
HETATM   15  C   UNL     1     -12.075  13.764  67.018  1.00  0.00    -0.436 C  
HETATM   16  C   UNL     1     -11.004  14.718  67.587  1.00  0.00    -0.292 C  
HETATM   17  C   UNL     1      -9.670  13.956  67.664  1.00  0.00    -0.226 C  
HETATM   18  C   UNL     1      -9.300  13.379  66.305  1.00  0.00    -0.121 C  
BRANCH  16  19
HETATM   19  C   UNL     1     -10.855  16.003  66.816  1.00  0.00    -0.195 A  
HETATM   20  N   UNL     1     -10.967  16.024  65.479  1.00  0.00    -0.258 NA 
HETATM   21  O   UNL     1     -10.602  17.295  65.085  1.00  0.00    -0.686 OA 
HETATM   22  C   UNL     1     -10.291  18.039  66.180  1.00  0.00    -0.366 A  
HETATM   23  C   UNL     1     -10.505  17.293  67.318  1.00  0.00    -0.319 A  
HETATM   24  C   UNL     1     -10.282  17.895  68.570  1.00  0.00    -0.393 A  
HETATM   25  C   UNL     1      -9.791  19.210  68.594  1.00  0.00    -0.485 A  
HETATM   26  C   UNL     1      -9.553  19.901  67.407  1.00  0.00    -0.374 A  
HETATM   27  C   UNL     1      -9.820  19.347  66.159  1.00  0.00    -0.461 A  
HETATM   28  F   UNL     1      -9.044  21.138  67.472  1.00  0.00    -0.418 F  
ENDBRANCH  16  19
ENDBRANCH  12  13
ENDBRANCH  11  12
ENDBRANCH  10  11
ENDBRANCH   9  10
ENDBRANCH   4   9
BRANCH   6  29
HETATM   29  C   UNL     1     -13.123  10.285  71.823  1.00  0.00    -0.465 C  
HETATM   30  O   UNL     1     -13.362  11.450  72.136  1.00  0.00    -0.469 OA 
HETATM   31  C   UNL     1     -13.804   9.139  72.531  1.00  0.00    -0.485 C  
ENDBRANCH   6  29
ENDBRANCH   2   3
TORSDOF 8
ENDMDL
MODEL       12
REMARK 921   NORMALIZED FREE ENERGY PREDICTED BY IDOCK:   -6.87 KCAL/MOL
REMARK 922        TOTAL FREE ENERGY PREDICTED BY IDOCK:  -10.88 KCAL/MOL
REMARK 923 INTER-LIGAND FREE ENERGY PREDICTED BY IDOCK:  -10.37 KCAL/MOL
REMARK 924 INTRA-LIGAND FREE ENERGY PREDICTED BY IDOCK:   -0.51 KCAL/MOL
REMARK 927      BINDING AFFINITY PREDICTED BY RF-SCORE:    0.00 PKD
ROOT
HETATM    1  C   UNL     1     -10.441   5.794  67.904  1.00  0.00    -0.228 C  
HETATM    2  O   UNL     1     -11.288   6.581  68.729  1.00  0.00    -0.278 OA 
ENDROOT
BRANCH   2   3
HETATM    3  C   UNL     1     -10.916   6.745  70.040  1.00  0.00    -0.295 A  
HETATM    4  C   UNL     1     -10.789   8.075  70.481  1.00  0.00    -0.241 A  
HETATM    5  C   UNL     1     -10.413   8.334  71.801  1.00  0.00    -0.325 A  
HETATM    6  C   UNL     1     -10.309   5.960  72.260  1.00  0.00    -0.236 A  
HETATM    7  C   UNL     1     -10.690   5.696  70.938  1.00  0.00    -0.313 A  
HETATM    8  C   UNL     1     -10.186   7.281  72.691  1.00  0.00    -0.251 A  
BRANCH   4   9
HETATM    9  O   UNL     1     -11.005   9.058  69.549  1.00  0.00    -0.207 OA 
BRANCH   9  10
HETATM   10  C   UNL     1     -11.077  10.408  70.008  1.00  0.00    -0.314 C  
BRANCH  10  11
HETATM   11  C   UNL     1     -12.011  11.267  69.147  1.00  0.00    -0.405 C  
BRANCH  11  12
HETATM   12  C   UNL     1     -11.745  12.781  69.229  1.00  0.00    -0.319 C  
BRANCH  12  13
HETATM   13  N   UNL     1     -10.803  13.231  68.199  1.00  0.00    -0.243 NA 
HETATM   14  C   UNL     1      -9.943  14.333  68.645  1.00  0.00    -0.234 C  
HETATM   15  C   UNL     1      -8.842  14.611  67.601  1.00  0.00    -0.184 C  
HETATM   16  C   UNL     1      -9.383  14.775  66.165  1.00  0.00    -0.292 C  
HETATM   17  C   UNL     1     -10.349  13.614  65.877  1.00  0.00    -0.304 C  
HETATM   18  C   UNL     1     -11.448  13.554  66.930  1.00  0.00    -0.344 C  
BRANCH  16  19
HETATM   19  C   UNL     1     -10.036  16.107  65.904  1.00  0.00    -0.356 A  
HETATM   20  N   UNL     1     -10.820  16.293  64.832  1.00  0.00    -0.671 NA 
HETATM   21  O   UNL     1     -11.102  17.644  64.793  1.00  0.00    -0.915 OA 
HETATM   22  C   UNL     1     -10.505  18.262  65.848  1.00  0.00    -0.307 A  
HETATM   23  C   UNL     1      -9.874  17.323  66.634  1.00  0.00    -0.299 A  
HETATM   24  C   UNL     1      -9.226  17.753  67.806  1.00  0.00    -0.256 A  
HETATM   25  C   UNL     1      -9.202  19.128  68.083  1.00  0.00    -0.377 A  
HETATM   26  C   UNL     1      -9.824  20.036  67.228  1.00  0.00    -0.427 A  
HETATM   27  C   UNL     1     -10.519  19.631  66.093  1.00  0.00    -0.624 A  
HETATM   28  F   UNL     1      -9.742  21.344  67.506  1.00  0.00    -0.562 F  
ENDBRANCH  16  19
ENDBRANCH  12  13
ENDBRANCH  11  12
ENDBRANCH  10  11
ENDBRANCH   9  10
ENDBRANCH   4   9
BRANCH   6  29
HETATM   29  C   UNL     1     -10.051   4.805  73.163  1.00  0.00    -0.162 C  
HETATM   30  O   UNL     1      -8.948   4.688  73.693  1.00  0.00    -0.105 OA 
HETATM   31  C   UNL     1     -11.162   3.830  73.466  1.00  0.00    -0.299 C  
ENDBRANCH   6  29
ENDBRANCH   2   3
TORSDOF 8
ENDMDL
MODEL       13
REMARK 921   NORMALIZED FREE ENERGY PREDICTED BY IDOCK:   -6.86 KCAL/MOL
REMARK 922        TOTAL FREE ENERGY PREDICTED BY IDOCK:  -10.86 KCAL/MOL
REMARK 923 INTER-LIGAND FREE ENERGY PREDICTED BY IDOCK:   -9.71 KCAL/MOL
REMARK 924 INTRA-LIGAND FREE ENERGY PREDICTED BY IDOCK:   -1.16 KCAL/MOL
REMARK 927      BINDING AFFINITY PREDICTED BY RF-SCORE:    0.00 PKD
ROOT
HETATM    1  C   UNL     1      -9.810   4.612  67.196  1.00  0.00    -0.195 C  
HETATM    2  O   UNL     1     -10.684   5.719  67.027  1.00  0.00    -0.272 OA 
ENDROOT
BRANCH   2   3
HETATM    3  C   UNL     1     -10.740   6.639  68.044  1.00  0.00    -0.265 A  
HETATM    4  C   UNL     1     -10.443   7.967  67.687  1.00  0.00    -0.232 A  
HETATM    5  C   UNL     1     -10.475   8.968  68.661  1.00  0.00    -0.229 A  
HETATM    6  C   UNL     1     -11.118   7.348  70.339  1.00  0.00    -0.284 A  
HETATM    7  C   UNL     1     -11.091   6.341  69.365  1.00  0.00    -0.477 A  
HETATM    8  C   UNL     1     -10.824   8.663  69.979  1.00  0.00    -0.226 A  
BRANCH   4   9
HETATM    9  O   UNL     1     -10.088   8.192  66.382  1.00  0.00    -0.241 OA 
BRANCH   9  10
HETATM   10  C   UNL     1      -8.715   8.463  66.100  1.00  0.00    -0.151 C  
BRANCH  10  11
HETATM   11  C   UNL     1      -8.504   9.868  65.525  1.00  0.00    -0.148 C  
BRANCH  11  12
HETATM   12  C   UNL     1      -9.564  10.304  64.496  1.00  0.00    -0.316 C  
BRANCH  12  13
HETATM   13  N   UNL     1     -10.596  11.155  65.097  1.00  0.00    -0.275 NA 
HETATM   14  C   UNL     1     -11.273  12.017  64.120  1.00  0.00    -0.373 C  
HETATM   15  C   UNL     1     -12.480  12.721  64.772  1.00  0.00    -0.539 C  
HETATM   16  C   UNL     1     -12.137  13.425  66.101  1.00  0.00    -0.481 C  
HETATM   17  C   UNL     1     -11.338  12.444  66.976  1.00  0.00    -0.388 C  
HETATM   18  C   UNL     1     -10.111  11.935  66.231  1.00  0.00    -0.220 C  
BRANCH  16  19
HETATM   19  C   UNL     1     -11.403  14.730  65.934  1.00  0.00    -0.331 A  
HETATM   20  N   UNL     1     -10.943  15.114  64.734  1.00  0.00    -0.398 NA 
HETATM   21  O   UNL     1     -10.178  16.240  64.960  1.00  0.00    -0.553 OA 
HETATM   22  C   UNL     1     -10.195  16.541  66.287  1.00  0.00    -0.332 A  
HETATM   23  C   UNL     1     -11.021  15.658  66.948  1.00  0.00    -0.243 A  
HETATM   24  C   UNL     1     -11.211  15.823  68.332  1.00  0.00    -0.362 A  
HETATM   25  C   UNL     1     -10.499  16.843  68.981  1.00  0.00    -0.341 A  
HETATM   26  C   UNL     1      -9.645  17.679  68.266  1.00  0.00    -0.306 A  
HETATM   27  C   UNL     1      -9.484  17.574  66.888  1.00  0.00    -0.278 A  
HETATM   28  F   UNL     1      -8.951  18.614  68.930  1.00  0.00    -0.337 F  
ENDBRANCH  16  19
ENDBRANCH  12  13
ENDBRANCH  11  12
ENDBRANCH  10  11
ENDBRANCH   9  10
ENDBRANCH   4   9
BRANCH   6  29
HETATM   29  C   UNL     1     -11.468   6.968  71.735  1.00  0.00    -0.267 C  
HETATM   30  O   UNL     1     -11.544   5.778  72.035  1.00  0.00    -0.255 OA 
HETATM   31  C   UNL     1     -11.660   8.042  72.777  1.00  0.00    -0.390 C  
ENDBRANCH   6  29
ENDBRANCH   2   3
TORSDOF 8
ENDMDL
MODEL       14
REMARK 921   NORMALIZED FREE ENERGY PREDICTED BY IDOCK:   -6.83 KCAL/MOL
REMARK 922        TOTAL FREE ENERGY PREDICTED BY IDOCK:  -10.82 KCAL/MOL
REMARK 923 INTER-LIGAND FREE ENERGY PREDICTED BY IDOCK:  -10.41 KCAL/MOL
REMARK 924 INTRA-LIGAND FREE ENERGY PREDICTED BY IDOCK:   -0.41 KCAL/MOL
REMARK 927      BINDING AFFINITY PREDICTED BY RF-SCORE:    0.00 PKD
ROOT
HETATM    1  C   UNL     1     -12.409  13.686  70.430  1.00  0.00    -0.345 C  
HETATM    2  O   UNL     1     -12.015  12.737  69.450  1.00  0.00    -0.301 OA 
ENDROOT
BRANCH   2   3
HETATM    3  C   UNL     1     -11.587  11.511  69.894  1.00  0.00    -0.308 A  
HETATM    4  C   UNL     1     -10.329  11.092  69.423  1.00  0.00    -0.104 A  
HETATM    5  C   UNL     1      -9.818   9.855  69.824  1.00  0.00    -0.268 A  
HETATM    6  C   UNL     1     -11.785   9.455  71.176  1.00  0.00    -0.418 A  
HETATM    7  C   UNL     1     -12.301  10.695  70.779  1.00  0.00    -0.472 A  
HETATM    8  C   UNL     1     -10.537   9.045  70.707  1.00  0.00    -0.300 A  
BRANCH   4   9
HETATM    9  O   UNL     1      -9.689  11.926  68.544  1.00  0.00    -0.205 OA 
BRANCH   9  10
HETATM   10  C   UNL     1      -8.291  11.728  68.334  1.00  0.00    -0.153 C  
BRANCH  10  11
HETATM   11  C   UNL     1      -7.595  12.992  67.815  1.00  0.00    -0.152 C  
BRANCH  11  12
HETATM   12  C   UNL     1      -7.561  14.161  68.818  1.00  0.00    -0.125 C  
BRANCH  12  13
HETATM   13  N   UNL     1      -8.267  15.342  68.310  1.00  0.00    -0.139 NA 
HETATM   14  C   UNL     1      -9.718  15.282  68.520  1.00  0.00    -0.211 C  
HETATM   15  C   UNL     1     -10.369  16.633  68.163  1.00  0.00    -0.303 C  
HETATM   16  C   UNL     1      -9.954  17.168  66.776  1.00  0.00    -0.291 C  
HETATM   17  C   UNL     1      -8.424  17.070  66.658  1.00  0.00    -0.283 C  
HETATM   18  C   UNL     1      -7.954  15.645  66.917  1.00  0.00    -0.243 C  
BRANCH  16  19
HETATM   19  C   UNL     1     -10.637  16.478  65.624  1.00  0.00    -0.304 A  
HETATM   20  N   UNL     1     -11.037  17.169  64.545  1.00  0.00    -0.979 NA 
HETATM   21  O   UNL     1     -11.772  16.288  63.778  1.00  0.00    -0.969 OA 
HETATM   22  C   UNL     1     -11.797  15.070  64.384  1.00  0.00    -0.339 A  
HETATM   23  C   UNL     1     -11.028  15.109  65.526  1.00  0.00    -0.370 A  
HETATM   24  C   UNL     1     -10.887  13.932  66.283  1.00  0.00    -0.290 A  
HETATM   25  C   UNL     1     -11.590  12.790  65.869  1.00  0.00    -0.428 A  
HETATM   26  C   UNL     1     -12.387  12.823  64.726  1.00  0.00    -0.478 A  
HETATM   27  C   UNL     1     -12.497  13.958  63.929  1.00  0.00    -0.221 A  
HETATM   28  F   UNL     1     -13.075  11.724  64.388  1.00  0.00    -0.339 F  
ENDBRANCH  16  19
ENDBRANCH  12  13
ENDBRANCH  11  12
ENDBRANCH  10  11
ENDBRANCH   9  10
ENDBRANCH   4   9
BRANCH   6  29
HETATM   29  C   UNL     1     -12.602   8.614  72.095  1.00  0.00    -0.391 C  
HETATM   30  O   UNL     1     -12.147   7.545  72.498  1.00  0.00    -0.228 OA 
HETATM   31  C   UNL     1     -13.944   9.113  72.569  1.00  0.00    -0.453 C  
ENDBRANCH   6  29
ENDBRANCH   2   3
TORSDOF 8
ENDMDL
MODEL       15
REMARK 921   NORMALIZED FREE ENERGY PREDICTED BY IDOCK:   -6.76 KCAL/MOL
REMARK 922        TOTAL FREE ENERGY PREDICTED BY IDOCK:  -10.72 KCAL/MOL
REMARK 923 INTER-LIGAND FREE ENERGY PREDICTED BY IDOCK:   -8.49 KCAL/MOL
REMARK 924 INTRA-LIGAND FREE ENERGY PREDICTED BY IDOCK:   -2.23 KCAL/MOL
REMARK 927      BINDING AFFINITY PREDICTED BY RF-SCORE:    0.00 PKD
ROOT
HETATM    1  C   UNL     1     -11.544  15.958  69.003  1.00  0.00    -0.389 C  
HETATM    2  O   UNL     1     -11.842  14.917  68.085  1.00  0.00    -0.330 OA 
ENDROOT
BRANCH   2   3
HETATM    3  C   UNL     1     -11.923  13.640  68.583  1.00  0.00    -0.360 A  
HETATM    4  C   UNL     1     -11.453  12.620  67.736  1.00  0.00    -0.322 A  
HETATM    5  C   UNL     1     -11.500  11.291  68.163  1.00  0.00    -0.376 A  
HETATM    6  C   UNL     1     -12.458  11.979  70.275  1.00  0.00    -0.176 A  
HETATM    7  C   UNL     1     -12.410  13.314  69.853  1.00  0.00    -0.228 A  
HETATM    8  C   UNL     1     -11.989  10.972  69.432  1.00  0.00    -0.408 A  
BRANCH   4   9
HETATM    9  O   UNL     1     -11.007  13.001  66.497  1.00  0.00    -0.279 OA 
BRANCH   9  10
HETATM   10  C   UNL     1     -11.772  12.603  65.360  1.00  0.00    -0.387 C  
BRANCH  10  11
HETATM   11  C   UNL     1     -11.092  11.485  64.561  1.00  0.00    -0.340 C  
BRANCH  11  12
HETATM   12  C   UNL     1      -9.559  11.604  64.474  1.00  0.00    -0.114 C  
BRANCH  12  13
HETATM   13  N   UNL     1      -8.881  10.502  65.165  1.00  0.00    -0.184 NA 
HETATM   14  C   UNL     1      -9.785   9.402  65.522  1.00  0.00    -0.230 C  
HETATM   15  C   UNL     1      -8.981   8.196  66.047  1.00  0.00    -0.213 C  
HETATM   16  C   UNL     1      -7.970   8.564  67.152  1.00  0.00    -0.101 C  
HETATM   17  C   UNL     1      -7.171   9.793  66.687  1.00  0.00    -0.090 C  
HETATM   18  C   UNL     1      -8.108  10.938  66.324  1.00  0.00    -0.165 C  
BRANCH  16  19
HETATM   19  C   UNL     1      -8.595   8.797  68.503  1.00  0.00    -0.134 A  
HETATM   20  N   UNL     1      -8.100   9.719  69.342  1.00  0.00    -0.115 NA 
HETATM   21  O   UNL     1      -8.775   9.552  70.535  1.00  0.00    -0.228 OA 
HETATM   22  C   UNL     1      -9.683   8.547  70.405  1.00  0.00    -0.175 A  
HETATM   23  C   UNL     1      -9.668   8.078  69.110  1.00  0.00    -0.163 A  
HETATM   24  C   UNL     1     -10.569   7.059  68.752  1.00  0.00    -0.235 A  
HETATM   25  C   UNL     1     -11.398   6.527  69.752  1.00  0.00    -0.456 A  
HETATM   26  C   UNL     1     -11.339   7.014  71.057  1.00  0.00    -0.287 A  
HETATM   27  C   UNL     1     -10.497   8.060  71.422  1.00  0.00    -0.257 A  
HETATM   28  F   UNL     1     -12.116   6.451  71.992  1.00  0.00    -0.345 F  
ENDBRANCH  16  19
ENDBRANCH  12  13
ENDBRANCH  11  12
ENDBRANCH  10  11
ENDBRANCH   9  10
ENDBRANCH   4   9
BRANCH   6  29
HETATM   29  C   UNL     1     -13.015  11.687  71.625  1.00  0.00    -0.378 C  
HETATM   30  O   UNL     1     -13.389  12.617  72.338  1.00  0.00    -0.514 OA 
HETATM   31  C   UNL     1     -13.172  10.256  72.076  1.00  0.00    -0.516 C  
ENDBRANCH   6  29
ENDBRANCH   2   3
TORSDOF 8
ENDMDL
MODEL       16
REMARK 921   NORMALIZED FREE ENERGY PREDICTED BY IDOCK:   -6.76 KCAL/MOL
REMARK 922        TOTAL FREE ENERGY PREDICTED BY IDOCK:  -10.71 KCAL/MOL
REMARK 923 INTER-LIGAND FREE ENERGY PREDICTED BY IDOCK:   -8.69 KCAL/MOL
REMARK 924 INTRA-LIGAND FREE ENERGY PREDICTED BY IDOCK:   -2.02 KCAL/MOL
REMARK 927      BINDING AFFINITY PREDICTED BY RF-SCORE:    0.00 PKD
ROOT
HETATM    1  C   UNL     1     -11.158  15.438  70.267  1.00  0.00    -0.311 C  
HETATM    2  O   UNL     1     -12.208  14.491  70.130  1.00  0.00    -0.305 OA 
ENDROOT
BRANCH   2   3
HETATM    3  C   UNL     1     -12.051  13.507  69.186  1.00  0.00    -0.288 A  
HETATM    4  C   UNL     1     -11.940  12.194  69.681  1.00  0.00    -0.284 A  
HETATM    5  C   UNL     1     -11.776  11.132  68.789  1.00  0.00    -0.394 A  
HETATM    6  C   UNL     1     -11.852  12.661  66.916  1.00  0.00    -0.425 A  
HETATM    7  C   UNL     1     -12.020  13.730  67.805  1.00  0.00    -0.391 A  
HETATM    8  C   UNL     1     -11.744  11.362  67.411  1.00  0.00    -0.172 A  
BRANCH   4   9
HETATM    9  O   UNL     1     -11.957  12.044  71.043  1.00  0.00    -0.133 OA 
BRANCH   9  10
HETATM   10  C   UNL     1     -13.184  11.646  71.656  1.00  0.00    -0.272 C  
BRANCH  10  11
HETATM   11  C   UNL     1     -13.407  10.130  71.584  1.00  0.00    -0.463 C  
BRANCH  11  12
HETATM   12  C   UNL     1     -12.680   9.325  72.677  1.00  0.00    -0.136 C  
BRANCH  12  13
HETATM   13  N   UNL     1     -11.687   8.405  72.113  1.00  0.00    -0.349 NA 
HETATM   14  C   UNL     1     -10.484   9.087  71.620  1.00  0.00    -0.355 C  
HETATM   15  C   UNL     1      -9.401   8.056  71.242  1.00  0.00    -0.182 C  
HETATM   16  C   UNL     1      -9.914   6.936  70.315  1.00  0.00    -0.189 C  
HETATM   17  C   UNL     1     -11.230   6.392  70.896  1.00  0.00    -0.384 C  
HETATM   18  C   UNL     1     -12.237   7.517  71.094  1.00  0.00    -0.301 C  
BRANCH  16  19
HETATM   19  C   UNL     1     -10.085   7.357  68.878  1.00  0.00    -0.186 A  
HETATM   20  N   UNL     1     -10.861   6.654  68.040  1.00  0.00    -0.267 NA 
HETATM   21  O   UNL     1     -10.656   7.193  66.786  1.00  0.00    -0.288 OA 
HETATM   22  C   UNL     1      -9.775   8.226  66.875  1.00  0.00    -0.225 A  
HETATM   23  C   UNL     1      -9.434   8.427  68.194  1.00  0.00    -0.148 A  
HETATM   24  C   UNL     1      -8.560   9.483  68.509  1.00  0.00    -0.119 A  
HETATM   25  C   UNL     1      -8.030  10.241  67.454  1.00  0.00    -0.107 A  
HETATM   26  C   UNL     1      -8.380   9.964  66.134  1.00  0.00    -0.122 A  
HETATM   27  C   UNL     1      -9.286   8.962  65.801  1.00  0.00    -0.286 A  
HETATM   28  F   UNL     1      -7.819  10.684  65.153  1.00  0.00    -0.153 F  
ENDBRANCH  16  19
ENDBRANCH  12  13
ENDBRANCH  11  12
ENDBRANCH  10  11
ENDBRANCH   9  10
ENDBRANCH   4   9
BRANCH   6  29
HETATM   29  C   UNL     1     -11.795  12.960  65.458  1.00  0.00    -0.411 C  
HETATM   30  O   UNL     1     -12.802  13.379  64.889  1.00  0.00    -0.688 OA 
HETATM   31  C   UNL     1     -10.492  12.808  64.713  1.00  0.00    -0.357 C  
ENDBRANCH   6  29
ENDBRANCH   2   3
TORSDOF 8
ENDMDL
MODEL       17
REMARK 921   NORMALIZED FREE ENERGY PREDICTED BY IDOCK:   -6.74 KCAL/MOL
REMARK 922        TOTAL FREE ENERGY PREDICTED BY IDOCK:  -10.69 KCAL/MOL
REMARK 923 INTER-LIGAND FREE ENERGY PREDICTED BY IDOCK:   -9.60 KCAL/MOL
REMARK 924 INTRA-LIGAND FREE ENERGY PREDICTED BY IDOCK:   -1.09 KCAL/MOL
REMARK 927      BINDING AFFINITY PREDICTED BY RF-SCORE:    0.00 PKD
ROOT
HETATM    1  C   UNL     1     -12.653  10.164  71.548  1.00  0.00    -0.434 C  
HETATM    2  O   UNL     1     -11.881   9.602  70.497  1.00  0.00    -0.265 OA 
ENDROOT
BRANCH   2   3
HETATM    3  C   UNL     1     -11.072   8.538  70.808  1.00  0.00    -0.254 A  
HETATM    4  C   UNL     1     -10.051   8.251  69.883  1.00  0.00    -0.195 A  
HETATM    5  C   UNL     1      -9.183   7.183  70.120  1.00  0.00    -0.155 A  
HETATM    6  C   UNL     1     -10.317   6.692  72.200  1.00  0.00    -0.222 A  
HETATM    7  C   UNL     1     -11.189   7.764  71.968  1.00  0.00    -0.327 A  
HETATM    8  C   UNL     1      -9.307   6.414  71.280  1.00  0.00    -0.162 A  
BRANCH   4   9
HETATM    9  O   UNL     1     -10.000   9.032  68.757  1.00  0.00    -0.171 OA 
BRANCH   9  10
HETATM   10  C   UNL     1      -8.715   9.388  68.248  1.00  0.00    -0.124 C  
BRANCH  10  11
HETATM   11  C   UNL     1      -8.302  10.809  68.648  1.00  0.00    -0.141 C  
BRANCH  11  12
HETATM   12  C   UNL     1      -8.367  11.839  67.505  1.00  0.00    -0.154 C  
BRANCH  12  13
HETATM   13  N   UNL     1      -9.683  12.480  67.415  1.00  0.00    -0.192 NA 
HETATM   14  C   UNL     1      -9.614  13.880  66.978  1.00  0.00    -0.254 C  
HETATM   15  C   UNL     1     -11.030  14.425  66.700  1.00  0.00    -0.318 C  
HETATM   16  C   UNL     1     -12.023  14.173  67.853  1.00  0.00    -0.378 C  
HETATM   17  C   UNL     1     -11.907  12.700  68.279  1.00  0.00    -0.354 C  
HETATM   18  C   UNL     1     -10.469  12.355  68.639  1.00  0.00    -0.204 C  
BRANCH  16  19
HETATM   19  C   UNL     1     -11.845  15.097  69.029  1.00  0.00    -0.304 A  
HETATM   20  N   UNL     1     -11.077  16.193  68.936  1.00  0.00    -0.326 NA 
HETATM   21  O   UNL     1     -10.983  16.704  70.215  1.00  0.00    -0.300 OA 
HETATM   22  C   UNL     1     -11.707  15.929  71.068  1.00  0.00    -0.432 A  
HETATM   23  C   UNL     1     -12.341  14.933  70.358  1.00  0.00    -0.401 A  
HETATM   24  C   UNL     1     -13.179  14.042  71.051  1.00  0.00    -0.294 A  
HETATM   25  C   UNL     1     -13.278  14.175  72.445  1.00  0.00    -0.566 A  
HETATM   26  C   UNL     1     -12.580  15.178  73.114  1.00  0.00    -0.473 A  
HETATM   27  C   UNL     1     -11.790  16.107  72.444  1.00  0.00    -0.637 A  
HETATM   28  F   UNL     1     -12.668  15.245  74.450  1.00  0.00    -0.602 F  
ENDBRANCH  16  19
ENDBRANCH  12  13
ENDBRANCH  11  12
ENDBRANCH  10  11
ENDBRANCH   9  10
ENDBRANCH   4   9
BRANCH   6  29
HETATM   29  C   UNL     1     -10.508   5.884  73.436  1.00  0.00    -0.246 C  
HETATM   30  O   UNL     1     -10.082   6.312  74.507  1.00  0.00    -0.313 OA 
HETATM   31  C   UNL     1     -11.274   4.586  73.370  1.00  0.00    -0.404 C  
ENDBRANCH   6  29
ENDBRANCH   2   3
TORSDOF 8
ENDMDL
MODEL       18
REMARK 921   NORMALIZED FREE ENERGY PREDICTED BY IDOCK:   -6.71 KCAL/MOL
REMARK 922        TOTAL FREE ENERGY PREDICTED BY IDOCK:  -10.64 KCAL/MOL
REMARK 923 INTER-LIGAND FREE ENERGY PREDICTED BY IDOCK:   -9.54 KCAL/MOL
REMARK 924 INTRA-LIGAND FREE ENERGY PREDICTED BY IDOCK:   -1.10 KCAL/MOL
REMARK 927      BINDING AFFINITY PREDICTED BY RF-SCORE:    0.00 PKD
ROOT
HETATM    1  C   UNL     1     -10.213  17.168  68.735  1.00  0.00    -0.332 C  
HETATM    2  O   UNL     1     -11.409  16.495  68.372  1.00  0.00    -0.348 OA 
ENDROOT
BRANCH   2   3
HETATM    3  C   UNL     1     -11.775  15.408  69.126  1.00  0.00    -0.345 A  
HETATM    4  C   UNL     1     -11.468  14.149  68.578  1.00  0.00    -0.300 A  
HETATM    5  C   UNL     1     -11.808  12.989  69.279  1.00  0.00    -0.370 A  
HETATM    6  C   UNL     1     -12.736  14.317  71.075  1.00  0.00    -0.430 A  
HETATM    7  C   UNL     1     -12.395  15.484  70.379  1.00  0.00    -0.451 A  
HETATM    8  C   UNL     1     -12.428  13.072  70.528  1.00  0.00    -0.306 A  
BRANCH   4   9
HETATM    9  O   UNL     1     -10.880  14.140  67.340  1.00  0.00    -0.280 OA 
BRANCH   9  10
HETATM   10  C   UNL     1     -11.662  13.696  66.232  1.00  0.00    -0.367 C  
BRANCH  10  11
HETATM   11  C   UNL     1     -11.504  12.193  65.973  1.00  0.00    -0.427 C  
BRANCH  11  12
HETATM   12  C   UNL     1     -10.308  11.820  65.077  1.00  0.00    -0.281 C  
BRANCH  12  13
HETATM   13  N   UNL     1      -9.385  10.899  65.748  1.00  0.00    -0.195 NA 
HETATM   14  C   UNL     1      -9.452   9.530  65.221  1.00  0.00    -0.258 C  
HETATM   15  C   UNL     1      -8.317   8.671  65.814  1.00  0.00    -0.148 C  
HETATM   16  C   UNL     1      -8.225   8.750  67.352  1.00  0.00    -0.109 C  
HETATM   17  C   UNL     1      -8.275  10.231  67.764  1.00  0.00    -0.110 C  
HETATM   18  C   UNL     1      -9.519  10.905  67.201  1.00  0.00    -0.160 C  
BRANCH  16  19
HETATM   19  C   UNL     1      -9.276   7.947  68.072  1.00  0.00    -0.131 A  
HETATM   20  N   UNL     1     -10.041   7.063  67.414  1.00  0.00    -0.177 NA 
HETATM   21  O   UNL     1     -11.001   6.645  68.313  1.00  0.00    -0.262 OA 
HETATM   22  C   UNL     1     -10.801   7.260  69.510  1.00  0.00    -0.209 A  
HETATM   23  C   UNL     1      -9.671   8.044  69.440  1.00  0.00    -0.170 A  
HETATM   24  C   UNL     1      -9.261   8.738  70.593  1.00  0.00    -0.233 A  
HETATM   25  C   UNL     1     -10.062   8.644  71.742  1.00  0.00    -0.380 A  
HETATM   26  C   UNL     1     -11.219   7.867  71.740  1.00  0.00    -0.260 A  
HETATM   27  C   UNL     1     -11.614   7.127  70.631  1.00  0.00    -0.354 A  
HETATM   28  F   UNL     1     -11.979   7.838  72.843  1.00  0.00    -0.320 F  
ENDBRANCH  16  19
ENDBRANCH  12  13
ENDBRANCH  11  12
ENDBRANCH  10  11
ENDBRANCH   9  10
ENDBRANCH   4   9
BRANCH   6  29
HETATM   29  C   UNL     1     -13.421  14.458  72.390  1.00  0.00    -0.462 C  
HETATM   30  O   UNL     1     -14.211  13.589  72.754  1.00  0.00    -0.692 OA 
HETATM   31  C   UNL     1     -13.092  15.627  73.284  1.00  0.00    -0.675 C  
ENDBRANCH   6  29
ENDBRANCH   2   3
TORSDOF 8
ENDMDL
MODEL       19
REMARK 921   NORMALIZED FREE ENERGY PREDICTED BY IDOCK:   -6.69 KCAL/MOL
REMARK 922        TOTAL FREE ENERGY PREDICTED BY IDOCK:  -10.61 KCAL/MOL
REMARK 923 INTER-LIGAND FREE ENERGY PREDICTED BY IDOCK:   -9.70 KCAL/MOL
REMARK 924 INTRA-LIGAND FREE ENERGY PREDICTED BY IDOCK:   -0.91 KCAL/MOL
REMARK 927      BINDING AFFINITY PREDICTED BY RF-SCORE:    0.00 PKD
ROOT
HETATM    1  C   UNL     1     -12.367  10.833  70.474  1.00  0.00    -0.369 C  
HETATM    2  O   UNL     1     -11.067  10.278  70.332  1.00  0.00    -0.292 OA 
ENDROOT
BRANCH   2   3
HETATM    3  C   UNL     1     -10.952   8.913  70.410  1.00  0.00    -0.244 A  
HETATM    4  C   UNL     1     -10.768   8.241  69.187  1.00  0.00    -0.101 A  
HETATM    5  C   UNL     1     -10.644   6.850  69.174  1.00  0.00    -0.245 A  
HETATM    6  C   UNL     1     -10.861   6.785  71.583  1.00  0.00    -0.259 A  
HETATM    7  C   UNL     1     -10.983   8.180  71.602  1.00  0.00    -0.306 A  
HETATM    8  C   UNL     1     -10.678   6.125  70.368  1.00  0.00    -0.347 A  
BRANCH   4   9
HETATM    9  O   UNL     1     -10.766   9.011  68.053  1.00  0.00    -0.208 OA 
BRANCH   9  10
HETATM   10  C   UNL     1     -10.182   8.460  66.872  1.00  0.00    -0.313 C  
BRANCH  10  11
HETATM   11  C   UNL     1      -9.136   9.392  66.250  1.00  0.00    -0.204 C  
BRANCH  11  12
HETATM   12  C   UNL     1      -9.646  10.219  65.055  1.00  0.00    -0.285 C  
BRANCH  12  13
HETATM   13  N   UNL     1     -10.739  11.120  65.436  1.00  0.00    -0.231 NA 
HETATM   14  C   UNL     1     -11.268  11.895  64.307  1.00  0.00    -0.357 C  
HETATM   15  C   UNL     1     -12.543  12.653  64.729  1.00  0.00    -0.530 C  
HETATM   16  C   UNL     1     -12.373  13.468  66.027  1.00  0.00    -0.486 C  
HETATM   17  C   UNL     1     -11.711  12.566  67.082  1.00  0.00    -0.425 C  
HETATM   18  C   UNL     1     -10.401  11.994  66.555  1.00  0.00    -0.210 C  
BRANCH  16  19
HETATM   19  C   UNL     1     -11.608  14.753  65.850  1.00  0.00    -0.286 A  
HETATM   20  N   UNL     1     -11.203  15.154  64.635  1.00  0.00    -0.371 NA 
HETATM   21  O   UNL     1     -10.390  16.249  64.845  1.00  0.00    -0.578 OA 
HETATM   22  C   UNL     1     -10.322  16.516  66.177  1.00  0.00    -0.334 A  
HETATM   23  C   UNL     1     -11.139  15.643  66.862  1.00  0.00    -0.181 A  
HETATM   24  C   UNL     1     -11.245  15.777  68.258  1.00  0.00    -0.356 A  
HETATM   25  C   UNL     1     -10.465  16.757  68.891  1.00  0.00    -0.332 A  
HETATM   26  C   UNL     1      -9.625  17.585  68.149  1.00  0.00    -0.294 A  
HETATM   27  C   UNL     1      -9.545  17.510  66.762  1.00  0.00    -0.286 A  
HETATM   28  F   UNL     1      -8.865  18.479  68.794  1.00  0.00    -0.329 F  
ENDBRANCH  16  19
ENDBRANCH  12  13
ENDBRANCH  11  12
ENDBRANCH  10  11
ENDBRANCH   9  10
ENDBRANCH   4   9
BRANCH   6  29
HETATM   29  C   UNL     1     -10.932   6.055  72.879  1.00  0.00    -0.269 C  
HETATM   30  O   UNL     1     -11.519   4.975  72.932  1.00  0.00    -0.281 OA 
HETATM   31  C   UNL     1     -10.231   6.614  74.092  1.00  0.00    -0.390 C  
ENDBRANCH   6  29
ENDBRANCH   2   3
TORSDOF 8
ENDMDL
MODEL       20
REMARK 921   NORMALIZED FREE ENERGY PREDICTED BY IDOCK:   -6.68 KCAL/MOL
REMARK 922        TOTAL FREE ENERGY PREDICTED BY IDOCK:  -10.60 KCAL/MOL
REMARK 923 INTER-LIGAND FREE ENERGY PREDICTED BY IDOCK:   -9.46 KCAL/MOL
REMARK 924 INTRA-LIGAND FREE ENERGY PREDICTED BY IDOCK:   -1.15 KCAL/MOL
REMARK 927      BINDING AFFINITY PREDICTED BY RF-SCORE:    0.00 PKD
ROOT
HETATM    1  C   UNL     1     -11.880  11.143  67.989  1.00  0.00    -0.126 C  
HETATM    2  O   UNL     1     -11.183  11.580  69.147  1.00  0.00    -0.236 OA 
ENDROOT
BRANCH   2   3
HETATM    3  C   UNL     1     -11.930  12.105  70.172  1.00  0.00    -0.314 A  
HETATM    4  C   UNL     1     -12.443  11.176  71.096  1.00  0.00    -0.393 A  
HETATM    5  C   UNL     1     -13.216  11.625  72.170  1.00  0.00    -0.327 A  
HETATM    6  C   UNL     1     -12.956  13.914  71.431  1.00  0.00    -0.430 A  
HETATM    7  C   UNL     1     -12.178  13.470  70.354  1.00  0.00    -0.426 A  
HETATM    8  C   UNL     1     -13.462  12.990  72.344  1.00  0.00    -0.615 A  
BRANCH   4   9
HETATM    9  O   UNL     1     -12.182   9.853  70.852  1.00  0.00    -0.300 OA 
BRANCH   9  10
HETATM   10  C   UNL     1     -11.272   9.180  71.722  1.00  0.00    -0.381 C  
BRANCH  10  11
HETATM   11  C   UNL     1      -9.876   9.033  71.104  1.00  0.00    -0.371 C  
BRANCH  11  12
HETATM   12  C   UNL     1      -9.704   7.796  70.203  1.00  0.00    -0.183 C  
BRANCH  12  13
HETATM   13  N   UNL     1      -8.964   8.109  68.976  1.00  0.00    -0.144 NA 
HETATM   14  C   UNL     1      -7.949   9.152  69.164  1.00  0.00    -0.097 C  
HETATM   15  C   UNL     1      -7.070   9.279  67.903  1.00  0.00    -0.078 C  
HETATM   16  C   UNL     1      -7.883   9.420  66.599  1.00  0.00    -0.104 C  
HETATM   17  C   UNL     1      -8.973   8.336  66.590  1.00  0.00    -0.179 C  
HETATM   18  C   UNL     1      -9.832   8.425  67.845  1.00  0.00    -0.170 C  
BRANCH  16  19
HETATM   19  C   UNL     1      -8.472  10.790  66.387  1.00  0.00    -0.158 A  
HETATM   20  N   UNL     1      -8.333  11.752  67.312  1.00  0.00    -0.154 NA 
HETATM   21  O   UNL     1      -9.129  12.799  66.896  1.00  0.00    -0.213 OA 
HETATM   22  C   UNL     1      -9.728  12.475  65.718  1.00  0.00    -0.187 A  
HETATM   23  C   UNL     1      -9.288  11.237  65.305  1.00  0.00    -0.225 A  
HETATM   24  C   UNL     1      -9.757  10.731  64.079  1.00  0.00    -0.367 A  
HETATM   25  C   UNL     1     -10.700  11.488  63.367  1.00  0.00    -0.444 A  
HETATM   26  C   UNL     1     -11.139  12.717  63.856  1.00  0.00    -0.431 A  
HETATM   27  C   UNL     1     -10.647  13.265  65.037  1.00  0.00    -0.360 A  
HETATM   28  F   UNL     1     -12.071  13.390  63.168  1.00  0.00    -0.577 F  
ENDBRANCH  16  19
ENDBRANCH  12  13
ENDBRANCH  11  12
ENDBRANCH  10  11
ENDBRANCH   9  10
ENDBRANCH   4   9
BRANCH   6  29
HETATM   29  C   UNL     1     -13.213  15.375  71.558  1.00  0.00    -0.490 C  
HETATM   30  O   UNL     1     -14.304  15.828  71.214  1.00  0.00    -0.446 OA 
HETATM   31  C   UNL     1     -12.161  16.270  72.164  1.00  0.00    -0.530 C  
ENDBRANCH   6  29
ENDBRANCH   2   3
TORSDOF 8
ENDMDL
MODEL       21
REMARK 921   NORMALIZED FREE ENERGY PREDICTED BY IDOCK:   -6.66 KCAL/MOL
REMARK 922        TOTAL FREE ENERGY PREDICTED BY IDOCK:  -10.57 KCAL/MOL
REMARK 923 INTER-LIGAND FREE ENERGY PREDICTED BY IDOCK:   -9.85 KCAL/MOL
REMARK 924 INTRA-LIGAND FREE ENERGY PREDICTED BY IDOCK:   -0.72 KCAL/MOL
REMARK 927      BINDING AFFINITY PREDICTED BY RF-SCORE:    0.00 PKD
ROOT
HETATM    1  C   UNL     1      -9.090   6.589  70.755  1.00  0.00    -0.154 C  
HETATM    2  O   UNL     1      -9.740   7.198  69.649  1.00  0.00    -0.158 OA 
ENDROOT
BRANCH   2   3
HETATM    3  C   UNL     1     -10.258   8.455  69.835  1.00  0.00    -0.201 A  
HETATM    4  C   UNL     1      -9.631   9.490  69.117  1.00  0.00    -0.170 A  
HETATM    5  C   UNL     1     -10.094  10.801  69.249  1.00  0.00    -0.200 A  
HETATM    6  C   UNL     1     -11.812  10.066  70.786  1.00  0.00    -0.435 A  
HETATM    7  C   UNL     1     -11.354   8.748  70.654  1.00  0.00    -0.289 A  
HETATM    8  C   UNL     1     -11.187  11.087  70.070  1.00  0.00    -0.303 A  
BRANCH   4   9
HETATM    9  O   UNL     1      -8.551   9.142  68.347  1.00  0.00    -0.127 OA 
BRANCH   9  10
HETATM   10  C   UNL     1      -8.360   9.835  67.113  1.00  0.00    -0.121 C  
BRANCH  10  11
HETATM   11  C   UNL     1      -9.370   9.407  66.042  1.00  0.00    -0.279 C  
BRANCH  11  12
HETATM   12  C   UNL     1      -9.462  10.358  64.834  1.00  0.00    -0.265 C  
BRANCH  12  13
HETATM   13  N   UNL     1     -10.693  11.155  64.854  1.00  0.00    -0.283 NA 
HETATM   14  C   UNL     1     -10.916  11.904  63.611  1.00  0.00    -0.440 C  
HETATM   15  C   UNL     1     -12.319  12.543  63.614  1.00  0.00    -0.618 C  
HETATM   16  C   UNL     1     -12.626  13.345  64.896  1.00  0.00    -0.416 C  
HETATM   17  C   UNL     1     -12.244  12.482  66.110  1.00  0.00    -0.215 C  
HETATM   18  C   UNL     1     -10.792  12.033  66.016  1.00  0.00    -0.289 C  
BRANCH  16  19
HETATM   19  C   UNL     1     -11.957  14.693  64.952  1.00  0.00    -0.400 A  
HETATM   20  N   UNL     1     -11.790  15.428  63.842  1.00  0.00    -0.320 NA 
HETATM   21  O   UNL     1     -10.998  16.497  64.207  1.00  0.00    -0.848 OA 
HETATM   22  C   UNL     1     -10.708  16.416  65.533  1.00  0.00    -0.287 A  
HETATM   23  C   UNL     1     -11.354  15.328  66.079  1.00  0.00    -0.162 A  
HETATM   24  C   UNL     1     -11.219  15.088  67.458  1.00  0.00    -0.333 A  
HETATM   25  C   UNL     1     -10.381  15.935  68.199  1.00  0.00    -0.256 A  
HETATM   26  C   UNL     1      -9.719  16.995  67.583  1.00  0.00    -0.257 A  
HETATM   27  C   UNL     1      -9.882  17.288  66.233  1.00  0.00    -0.299 A  
HETATM   28  F   UNL     1      -8.895  17.755  68.317  1.00  0.00    -0.245 F  
ENDBRANCH  16  19
ENDBRANCH  12  13
ENDBRANCH  11  12
ENDBRANCH  10  11
ENDBRANCH   9  10
ENDBRANCH   4   9
BRANCH   6  29
HETATM   29  C   UNL     1     -12.962  10.324  71.695  1.00  0.00    -0.465 C  
HETATM   30  O   UNL     1     -13.237  11.481  72.006  1.00  0.00    -0.509 OA 
HETATM   31  C   UNL     1     -13.813   9.172  72.169  1.00  0.00    -0.508 C  
ENDBRANCH   6  29
ENDBRANCH   2   3
TORSDOF 8
ENDMDL
MODEL       22
REMARK 921   NORMALIZED FREE ENERGY PREDICTED BY IDOCK:   -6.65 KCAL/MOL
REMARK 922        TOTAL FREE ENERGY PREDICTED BY IDOCK:  -10.55 KCAL/MOL
REMARK 923 INTER-LIGAND FREE ENERGY PREDICTED BY IDOCK:   -9.96 KCAL/MOL
REMARK 924 INTRA-LIGAND FREE ENERGY PREDICTED BY IDOCK:   -0.59 KCAL/MOL
REMARK 927      BINDING AFFINITY PREDICTED BY RF-SCORE:    0.00 PKD
ROOT
HETATM    1  C   UNL     1     -11.816   5.798  72.499  1.00  0.00    -0.166 C  
HETATM    2  O   UNL     1     -11.712   7.078  71.893  1.00  0.00    -0.273 OA 
ENDROOT
BRANCH   2   3
HETATM    3  C   UNL     1     -11.287   7.127  70.589  1.00  0.00    -0.292 A  
HETATM    4  C   UNL     1     -11.149   8.414  70.036  1.00  0.00    -0.148 A  
HETATM    5  C   UNL     1     -10.723   8.555  68.713  1.00  0.00    -0.089 A  
HETATM    6  C   UNL     1     -10.549   6.152  68.488  1.00  0.00    -0.327 A  
HETATM    7  C   UNL     1     -10.972   6.005  69.815  1.00  0.00    -0.471 A  
HETATM    8  C   UNL     1     -10.412   7.430  67.945  1.00  0.00    -0.265 A  
BRANCH   4   9
HETATM    9  O   UNL     1     -11.492   9.471  70.838  1.00  0.00    -0.283 OA 
BRANCH   9  10
HETATM   10  C   UNL     1     -12.323  10.490  70.281  1.00  0.00    -0.298 C  
BRANCH  10  11
HETATM   11  C   UNL     1     -11.575  11.815  70.093  1.00  0.00    -0.281 C  
BRANCH  11  12
HETATM   12  C   UNL     1     -12.133  12.710  68.971  1.00  0.00    -0.139 C  
BRANCH  12  13
HETATM   13  N   UNL     1     -11.080  13.164  68.055  1.00  0.00    -0.252 NA 
HETATM   14  C   UNL     1     -10.278  14.266  68.599  1.00  0.00    -0.246 C  
HETATM   15  C   UNL     1      -9.067  14.548  67.688  1.00  0.00    -0.195 C  
HETATM   16  C   UNL     1      -9.441  14.715  66.201  1.00  0.00    -0.308 C  
HETATM   17  C   UNL     1     -10.366  13.554  65.801  1.00  0.00    -0.296 C  
HETATM   18  C   UNL     1     -11.578  13.489  66.722  1.00  0.00    -0.363 C  
BRANCH  16  19
HETATM   19  C   UNL     1     -10.062  16.048  65.870  1.00  0.00    -0.353 A  
HETATM   20  N   UNL     1     -10.816  16.205  64.772  1.00  0.00    -0.669 NA 
HETATM   21  O   UNL     1     -11.070  17.558  64.673  1.00  0.00    -0.978 OA 
HETATM   22  C   UNL     1     -10.488  18.207  65.718  1.00  0.00    -0.207 A  
HETATM   23  C   UNL     1      -9.895  17.288  66.556  1.00  0.00    -0.306 A  
HETATM   24  C   UNL     1      -9.269  17.753  67.727  1.00  0.00    -0.256 A  
HETATM   25  C   UNL     1      -9.226  19.137  67.951  1.00  0.00    -0.358 A  
HETATM   26  C   UNL     1      -9.809  20.021  67.044  1.00  0.00    -0.430 A  
HETATM   27  C   UNL     1     -10.483  19.584  65.909  1.00  0.00    -0.585 A  
HETATM   28  F   UNL     1      -9.710  21.338  67.273  1.00  0.00    -0.599 F  
ENDBRANCH  16  19
ENDBRANCH  12  13
ENDBRANCH  11  12
ENDBRANCH  10  11
ENDBRANCH   9  10
ENDBRANCH   4   9
BRANCH   6  29
HETATM   29  C   UNL     1     -10.256   4.922  67.701  1.00  0.00    -0.076 C  
HETATM   30  O   UNL     1      -9.757   3.950  68.265  1.00  0.00    -0.140 OA 
HETATM   31  C   UNL     1     -10.634   4.860  66.242  1.00  0.00    -0.307 C  
ENDBRANCH   6  29
ENDBRANCH   2   3
TORSDOF 8
ENDMDL
MODEL       23
REMARK 921   NORMALIZED FREE ENERGY PREDICTED BY IDOCK:   -6.65 KCAL/MOL
REMARK 922        TOTAL FREE ENERGY PREDICTED BY IDOCK:  -10.55 KCAL/MOL
REMARK 923 INTER-LIGAND FREE ENERGY PREDICTED BY IDOCK:   -9.35 KCAL/MOL
REMARK 924 INTRA-LIGAND FREE ENERGY PREDICTED BY IDOCK:   -1.20 KCAL/MOL
REMARK 927      BINDING AFFINITY PREDICTED BY RF-SCORE:    0.00 PKD
ROOT
HETATM    1  C   UNL     1     -11.696  14.069  69.839  1.00  0.00    -0.303 C  
HETATM    2  O   UNL     1     -12.146  14.041  68.493  1.00  0.00    -0.357 OA 
ENDROOT
BRANCH   2   3
HETATM    3  C   UNL     1     -11.588  14.943  67.622  1.00  0.00    -0.339 A  
HETATM    4  C   UNL     1     -11.616  14.582  66.262  1.00  0.00    -0.360 A  
HETATM    5  C   UNL     1     -11.068  15.442  65.307  1.00  0.00    -0.367 A  
HETATM    6  C   UNL     1     -10.481  17.028  67.038  1.00  0.00    -0.279 A  
HETATM    7  C   UNL     1     -11.033  16.171  67.999  1.00  0.00    -0.338 A  
HETATM    8  C   UNL     1     -10.514  16.666  65.691  1.00  0.00    -0.313 A  
BRANCH   4   9
HETATM    9  O   UNL     1     -12.155  13.359  65.958  1.00  0.00    -0.396 OA 
BRANCH   9  10
HETATM   10  C   UNL     1     -12.373  13.048  64.582  1.00  0.00    -0.422 C  
BRANCH  10  11
HETATM   11  C   UNL     1     -11.618  11.788  64.143  1.00  0.00    -0.394 C  
BRANCH  11  12
HETATM   12  C   UNL     1     -10.092  11.962  64.033  1.00  0.00    -0.334 C  
BRANCH  12  13
HETATM   13  N   UNL     1      -9.373  11.130  65.004  1.00  0.00    -0.221 NA 
HETATM   14  C   UNL     1      -9.991   9.814  65.205  1.00  0.00    -0.181 C  
HETATM   15  C   UNL     1      -9.076   8.918  66.064  1.00  0.00    -0.265 C  
HETATM   16  C   UNL     1      -8.597   9.594  67.365  1.00  0.00    -0.125 C  
HETATM   17  C   UNL     1      -8.079  10.999  67.017  1.00  0.00    -0.136 C  
HETATM   18  C   UNL     1      -9.145  11.800  66.280  1.00  0.00    -0.206 C  
BRANCH  16  19
HETATM   19  C   UNL     1      -9.642   9.650  68.449  1.00  0.00    -0.144 A  
HETATM   20  N   UNL     1      -9.945  10.807  69.057  1.00  0.00    -0.203 NA 
HETATM   21  O   UNL     1     -10.787  10.482  70.100  1.00  0.00    -0.283 OA 
HETATM   22  C   UNL     1     -11.004   9.139  70.106  1.00  0.00    -0.239 A  
HETATM   23  C   UNL     1     -10.361   8.564  69.032  1.00  0.00    -0.229 A  
HETATM   24  C   UNL     1     -10.495   7.179  68.830  1.00  0.00    -0.218 A  
HETATM   25  C   UNL     1     -11.227   6.440  69.772  1.00  0.00    -0.484 A  
HETATM   26  C   UNL     1     -11.821   7.071  70.863  1.00  0.00    -0.356 A  
HETATM   27  C   UNL     1     -11.752   8.447  71.053  1.00  0.00    -0.296 A  
HETATM   28  F   UNL     1     -12.476   6.324  71.763  1.00  0.00    -0.381 F  
ENDBRANCH  16  19
ENDBRANCH  12  13
ENDBRANCH  11  12
ENDBRANCH  10  11
ENDBRANCH   9  10
ENDBRANCH   4   9
BRANCH   6  29
HETATM   29  C   UNL     1      -9.877  18.308  67.500  1.00  0.00    -0.317 C  
HETATM   30  O   UNL     1      -8.769  18.294  68.033  1.00  0.00    -0.263 OA 
HETATM   31  C   UNL     1     -10.599  19.609  67.251  1.00  0.00    -0.598 C  
ENDBRANCH   6  29
ENDBRANCH   2   3
TORSDOF 8
ENDMDL
MODEL       24
REMARK 921   NORMALIZED FREE ENERGY PREDICTED BY IDOCK:   -6.62 KCAL/MOL
REMARK 922        TOTAL FREE ENERGY PREDICTED BY IDOCK:  -10.51 KCAL/MOL
REMARK 923 INTER-LIGAND FREE ENERGY PREDICTED BY IDOCK:   -9.72 KCAL/MOL
REMARK 924 INTRA-LIGAND FREE ENERGY PREDICTED BY IDOCK:   -0.78 KCAL/MOL
REMARK 927      BINDING AFFINITY PREDICTED BY RF-SCORE:    0.00 PKD
ROOT
HETATM    1  C   UNL     1     -10.158   4.704  66.707  1.00  0.00    -0.213 C  
HETATM    2  O   UNL     1     -10.998   5.845  66.801  1.00  0.00    -0.299 OA 
ENDROOT
BRANCH   2   3
HETATM    3  C   UNL     1     -10.839   6.658  67.895  1.00  0.00    -0.277 A  
HETATM    4  C   UNL     1     -10.530   8.003  67.621  1.00  0.00    -0.232 A  
HETATM    5  C   UNL     1     -10.349   8.899  68.677  1.00  0.00    -0.228 A  
HETATM    6  C   UNL     1     -10.802   7.142  70.277  1.00  0.00    -0.271 A  
HETATM    7  C   UNL     1     -10.988   6.240  69.222  1.00  0.00    -0.435 A  
HETATM    8  C   UNL     1     -10.497   8.474  70.000  1.00  0.00    -0.226 A  
BRANCH   4   9
HETATM    9  O   UNL     1     -10.378   8.346  66.302  1.00  0.00    -0.154 OA 
BRANCH   9  10
HETATM   10  C   UNL     1      -9.315   9.237  65.962  1.00  0.00    -0.223 C  
BRANCH  10  11
HETATM   11  C   UNL     1      -9.828  10.599  65.480  1.00  0.00    -0.316 C  
BRANCH  11  12
HETATM   12  C   UNL     1      -8.993  11.801  65.957  1.00  0.00    -0.107 C  
BRANCH  12  13
HETATM   13  N   UNL     1      -9.837  12.910  66.414  1.00  0.00    -0.263 NA 
HETATM   14  C   UNL     1      -9.216  13.707  67.479  1.00  0.00    -0.218 C  
HETATM   15  C   UNL     1     -10.054  14.971  67.761  1.00  0.00    -0.234 C  
HETATM   16  C   UNL     1     -11.552  14.679  67.984  1.00  0.00    -0.366 C  
HETATM   17  C   UNL     1     -12.037  13.751  66.858  1.00  0.00    -0.454 C  
HETATM   18  C   UNL     1     -11.183  12.492  66.794  1.00  0.00    -0.296 C  
BRANCH  16  19
HETATM   19  C   UNL     1     -11.870  14.107  69.340  1.00  0.00    -0.330 A  
HETATM   20  N   UNL     1     -12.244  12.826  69.478  1.00  0.00    -0.171 NA 
HETATM   21  O   UNL     1     -12.630  12.680  70.795  1.00  0.00    -0.306 OA 
HETATM   22  C   UNL     1     -12.470  13.862  71.449  1.00  0.00    -0.340 A  
HETATM   23  C   UNL     1     -11.918  14.789  70.593  1.00  0.00    -0.371 A  
HETATM   24  C   UNL     1     -11.631  16.075  71.087  1.00  0.00    -0.492 A  
HETATM   25  C   UNL     1     -11.980  16.367  72.415  1.00  0.00    -0.553 A  
HETATM   26  C   UNL     1     -12.575  15.399  73.222  1.00  0.00    -0.499 A  
HETATM   27  C   UNL     1     -12.817  14.104  72.774  1.00  0.00    -0.445 A  
HETATM   28  F   UNL     1     -12.932  15.730  74.470  1.00  0.00    -0.541 F  
ENDBRANCH  16  19
ENDBRANCH  12  13
ENDBRANCH  11  12
ENDBRANCH  10  11
ENDBRANCH   9  10
ENDBRANCH   4   9
BRANCH   6  29
HETATM   29  C   UNL     1     -10.943   6.635  71.670  1.00  0.00    -0.241 C  
HETATM   30  O   UNL     1     -11.047   5.425  71.864  1.00  0.00    -0.207 OA 
HETATM   31  C   UNL     1     -10.891   7.602  72.827  1.00  0.00    -0.416 C  
ENDBRANCH   6  29
ENDBRANCH   2   3
TORSDOF 8
ENDMDL
MODEL       25
REMARK 921   NORMALIZED FREE ENERGY PREDICTED BY IDOCK:   -6.61 KCAL/MOL
REMARK 922        TOTAL FREE ENERGY PREDICTED BY IDOCK:  -10.49 KCAL/MOL
REMARK 923 INTER-LIGAND FREE ENERGY PREDICTED BY IDOCK:   -8.40 KCAL/MOL
REMARK 924 INTRA-LIGAND FREE ENERGY PREDICTED BY IDOCK:   -2.09 KCAL/MOL
REMARK 927      BINDING AFFINITY PREDICTED BY RF-SCORE:    0.00 PKD
ROOT
HETATM    1  C   UNL     1     -11.142  15.536  70.770  1.00  0.00    -0.351 C  
HETATM    2  O   UNL     1     -12.030  14.432  70.676  1.00  0.00    -0.293 OA 
ENDROOT
BRANCH   2   3
HETATM    3  C   UNL     1     -12.011  13.702  69.514  1.00  0.00    -0.341 A  
HETATM    4  C   UNL     1     -11.978  12.304  69.666  1.00  0.00    -0.279 A  
HETATM    5  C   UNL     1     -11.954  11.486  68.535  1.00  0.00    -0.293 A  
HETATM    6  C   UNL     1     -12.020  13.431  67.097  1.00  0.00    -0.415 A  
HETATM    7  C   UNL     1     -12.047  14.256  68.229  1.00  0.00    -0.278 A  
HETATM    8  C   UNL     1     -11.988  12.046  67.255  1.00  0.00    -0.111 A  
BRANCH   4   9
HETATM    9  O   UNL     1     -11.924  11.823  70.949  1.00  0.00    -0.269 OA 
BRANCH   9  10
HETATM   10  C   UNL     1     -13.113  11.257  71.500  1.00  0.00    -0.355 C  
BRANCH  10  11
HETATM   11  C   UNL     1     -13.189   9.740  71.289  1.00  0.00    -0.452 C  
BRANCH  11  12
HETATM   12  C   UNL     1     -12.226   8.923  72.170  1.00  0.00    -0.367 C  
BRANCH  12  13
HETATM   13  N   UNL     1     -11.107   8.373  71.399  1.00  0.00    -0.243 NA 
HETATM   14  C   UNL     1      -9.800   8.881  71.833  1.00  0.00    -0.294 C  
HETATM   15  C   UNL     1      -8.664   8.109  71.134  1.00  0.00    -0.161 C  
HETATM   16  C   UNL     1      -8.829   8.024  69.602  1.00  0.00    -0.141 C  
HETATM   17  C   UNL     1     -10.271   7.587  69.295  1.00  0.00    -0.201 C  
HETATM   18  C   UNL     1     -11.272   8.525  69.956  1.00  0.00    -0.086 C  
BRANCH  16  19
HETATM   19  C   UNL     1      -8.478   9.296  68.876  1.00  0.00    -0.129 A  
HETATM   20  N   UNL     1      -7.825  10.289  69.499  1.00  0.00    -0.159 NA 
HETATM   21  O   UNL     1      -7.825  11.355  68.622  1.00  0.00    -0.128 OA 
HETATM   22  C   UNL     1      -8.458  10.998  67.472  1.00  0.00    -0.127 A  
HETATM   23  C   UNL     1      -8.830   9.673  67.545  1.00  0.00    -0.129 A  
HETATM   24  C   UNL     1      -9.466   9.091  66.434  1.00  0.00    -0.288 A  
HETATM   25  C   UNL     1      -9.746   9.908  65.328  1.00  0.00    -0.383 A  
HETATM   26  C   UNL     1      -9.382  11.254  65.329  1.00  0.00    -0.203 A  
HETATM   27  C   UNL     1      -8.701  11.838  66.392  1.00  0.00    -0.147 A  
HETATM   28  F   UNL     1      -9.705  12.010  64.271  1.00  0.00    -0.244 F  
ENDBRANCH  16  19
ENDBRANCH  12  13
ENDBRANCH  11  12
ENDBRANCH  10  11
ENDBRANCH   9  10
ENDBRANCH   4   9
BRANCH   6  29
HETATM   29  C   UNL     1     -12.029  14.077  65.756  1.00  0.00    -0.404 C  
HETATM   30  O   UNL     1     -13.015  13.950  65.032  1.00  0.00    -0.731 OA 
HETATM   31  C   UNL     1     -10.859  14.928  65.328  1.00  0.00    -0.398 C  
ENDBRANCH   6  29
ENDBRANCH   2   3
TORSDOF 8
ENDMDL
MODEL       26
REMARK 921   NORMALIZED FREE ENERGY PREDICTED BY IDOCK:   -6.61 KCAL/MOL
REMARK 922        TOTAL FREE ENERGY PREDICTED BY IDOCK:  -10.49 KCAL/MOL
REMARK 923 INTER-LIGAND FREE ENERGY PREDICTED BY IDOCK:   -9.15 KCAL/MOL
REMARK 924 INTRA-LIGAND FREE ENERGY PREDICTED BY IDOCK:   -1.34 KCAL/MOL
REMARK 927      BINDING AFFINITY PREDICTED BY RF-SCORE:    0.00 PKD
ROOT
HETATM    1  C   UNL     1     -10.803  16.647  68.440  1.00  0.00    -0.361 C  
HETATM    2  O   UNL     1     -11.412  15.461  67.952  1.00  0.00    -0.335 OA 
ENDROOT
BRANCH   2   3
HETATM    3  C   UNL     1     -11.740  14.496  68.872  1.00  0.00    -0.319 A  
HETATM    4  C   UNL     1     -11.441  13.171  68.505  1.00  0.00    -0.303 A  
HETATM    5  C   UNL     1     -11.743  12.126  69.382  1.00  0.00    -0.391 A  
HETATM    6  C   UNL     1     -12.619  13.702  70.995  1.00  0.00    -0.441 A  
HETATM    7  C   UNL     1     -12.315  14.754  70.121  1.00  0.00    -0.381 A  
HETATM    8  C   UNL     1     -12.319  12.391  70.627  1.00  0.00    -0.367 A  
BRANCH   4   9
HETATM    9  O   UNL     1     -10.897  12.982  67.261  1.00  0.00    -0.247 OA 
BRANCH   9  10
HETATM   10  C   UNL     1     -11.604  12.147  66.343  1.00  0.00    -0.364 C  
BRANCH  10  11
HETATM   11  C   UNL     1     -10.748  10.977  65.842  1.00  0.00    -0.226 C  
BRANCH  11  12
HETATM   12  C   UNL     1      -9.234  11.155  66.056  1.00  0.00    -0.205 C  
BRANCH  12  13
HETATM   13  N   UNL     1      -8.657  10.062  66.845  1.00  0.00    -0.125 NA 
HETATM   14  C   UNL     1      -8.935   8.735  66.282  1.00  0.00    -0.173 C  
HETATM   15  C   UNL     1      -8.128   7.655  67.031  1.00  0.00    -0.117 C  
HETATM   16  C   UNL     1      -8.275   7.731  68.565  1.00  0.00    -0.128 C  
HETATM   17  C   UNL     1      -8.067   9.192  68.999  1.00  0.00    -0.102 C  
HETATM   18  C   UNL     1      -9.024  10.115  68.257  1.00  0.00    -0.120 C  
BRANCH  16  19
HETATM   19  C   UNL     1      -9.580   7.187  69.084  1.00  0.00    -0.154 A  
HETATM   20  N   UNL     1     -10.219   6.196  68.445  1.00  0.00    -0.158 NA 
HETATM   21  O   UNL     1     -11.443   6.066  69.067  1.00  0.00    -0.275 OA 
HETATM   22  C   UNL     1     -11.531   6.961  70.088  1.00  0.00    -0.303 A  
HETATM   23  C   UNL     1     -10.344   7.653  70.196  1.00  0.00    -0.217 A  
HETATM   24  C   UNL     1     -10.211   8.604  71.224  1.00  0.00    -0.308 A  
HETATM   25  C   UNL     1     -11.320   8.845  72.050  1.00  0.00    -0.427 A  
HETATM   26  C   UNL     1     -12.509   8.144  71.866  1.00  0.00    -0.332 A  
HETATM   27  C   UNL     1     -12.647   7.158  70.894  1.00  0.00    -0.268 A  
HETATM   28  F   UNL     1     -13.558   8.433  72.648  1.00  0.00    -0.277 F  
ENDBRANCH  16  19
ENDBRANCH  12  13
ENDBRANCH  11  12
ENDBRANCH  10  11
ENDBRANCH   9  10
ENDBRANCH   4   9
BRANCH   6  29
HETATM   29  C   UNL     1     -13.258  14.032  72.299  1.00  0.00    -0.464 C  
HETATM   30  O   UNL     1     -14.064  13.246  72.792  1.00  0.00    -0.691 OA 
HETATM   31  C   UNL     1     -12.862  15.293  73.027  1.00  0.00    -0.577 C  
ENDBRANCH   6  29
ENDBRANCH   2   3
TORSDOF 8
ENDMDL
MODEL       27
REMARK 921   NORMALIZED FREE ENERGY PREDICTED BY IDOCK:   -6.58 KCAL/MOL
REMARK 922        TOTAL FREE ENERGY PREDICTED BY IDOCK:  -10.44 KCAL/MOL
REMARK 923 INTER-LIGAND FREE ENERGY PREDICTED BY IDOCK:   -8.86 KCAL/MOL
REMARK 924 INTRA-LIGAND FREE ENERGY PREDICTED BY IDOCK:   -1.58 KCAL/MOL
REMARK 927      BINDING AFFINITY PREDICTED BY RF-SCORE:    0.00 PKD
ROOT
HETATM    1  C   UNL     1     -10.761  15.084  66.350  1.00  0.00    -0.322 C  
HETATM    2  O   UNL     1     -11.981  14.465  66.730  1.00  0.00    -0.411 OA 
ENDROOT
BRANCH   2   3
HETATM    3  C   UNL     1     -12.008  13.807  67.934  1.00  0.00    -0.356 A  
HETATM    4  C   UNL     1     -11.784  12.419  67.881  1.00  0.00    -0.360 A  
HETATM    5  C   UNL     1     -11.796  11.671  69.060  1.00  0.00    -0.391 A  
HETATM    6  C   UNL     1     -12.231  13.671  70.351  1.00  0.00    -0.434 A  
HETATM    7  C   UNL     1     -12.216  14.426  69.171  1.00  0.00    -0.255 A  
HETATM    8  C   UNL     1     -12.006  12.296  70.293  1.00  0.00    -0.373 A  
BRANCH   4   9
HETATM    9  O   UNL     1     -11.606  11.869  66.638  1.00  0.00    -0.465 OA 
BRANCH   9  10
HETATM   10  C   UNL     1     -10.409  11.127  66.401  1.00  0.00    -0.252 C  
BRANCH  10  11
HETATM   11  C   UNL     1      -9.151  11.992  66.538  1.00  0.00    -0.202 C  
BRANCH  11  12
HETATM   12  C   UNL     1      -8.236  11.608  67.715  1.00  0.00    -0.141 C  
BRANCH  12  13
HETATM   13  N   UNL     1      -7.542  12.772  68.275  1.00  0.00    -0.125 NA 
HETATM   14  C   UNL     1      -8.457  13.786  68.812  1.00  0.00     0.026 C  
HETATM   15  C   UNL     1      -7.668  14.872  69.571  1.00  0.00    -0.121 C  
HETATM   16  C   UNL     1      -6.488  15.453  68.764  1.00  0.00    -0.105 C  
HETATM   17  C   UNL     1      -5.684  14.283  68.174  1.00  0.00    -0.129 C  
HETATM   18  C   UNL     1      -6.584  13.371  67.350  1.00  0.00    -0.023 C  
BRANCH  16  19
HETATM   19  C   UNL     1      -6.898  16.429  67.693  1.00  0.00    -0.138 A  
HETATM   20  N   UNL     1      -6.211  16.524  66.545  1.00  0.00    -0.240 NA 
HETATM   21  O   UNL     1      -6.729  17.615  65.878  1.00  0.00    -0.259 OA 
HETATM   22  C   UNL     1      -7.734  18.162  66.613  1.00  0.00    -0.236 A  
HETATM   23  C   UNL     1      -7.940  17.404  67.745  1.00  0.00    -0.208 A  
HETATM   24  C   UNL     1      -8.971  17.777  68.626  1.00  0.00    -0.258 A  
HETATM   25  C   UNL     1      -9.700  18.941  68.338  1.00  0.00    -0.432 A  
HETATM   26  C   UNL     1      -9.419  19.691  67.198  1.00  0.00    -0.340 A  
HETATM   27  C   UNL     1      -8.443  19.312  66.282  1.00  0.00    -0.328 A  
HETATM   28  F   UNL     1     -10.109  20.818  66.980  1.00  0.00    -0.584 F  
ENDBRANCH  16  19
ENDBRANCH  12  13
ENDBRANCH  11  12
ENDBRANCH  10  11
ENDBRANCH   9  10
ENDBRANCH   4   9
BRANCH   6  29
HETATM   29  C   UNL     1     -12.488  14.378  71.636  1.00  0.00    -0.352 C  
HETATM   30  O   UNL     1     -11.784  15.338  71.948  1.00  0.00    -0.370 OA 
HETATM   31  C   UNL     1     -13.643  13.951  72.507  1.00  0.00    -0.680 C  
ENDBRANCH   6  29
ENDBRANCH   2   3
TORSDOF 8
ENDMDL
MODEL       28
REMARK 921   NORMALIZED FREE ENERGY PREDICTED BY IDOCK:   -6.54 KCAL/MOL
REMARK 922        TOTAL FREE ENERGY PREDICTED BY IDOCK:  -10.40 KCAL/MOL
REMARK 923 INTER-LIGAND FREE ENERGY PREDICTED BY IDOCK:   -9.57 KCAL/MOL
REMARK 924 INTRA-LIGAND FREE ENERGY PREDICTED BY IDOCK:   -0.82 KCAL/MOL
REMARK 927      BINDING AFFINITY PREDICTED BY RF-SCORE:    0.00 PKD
ROOT
HETATM    1  C   UNL     1     -10.819  19.902  65.460  1.00  0.00    -0.127 C  
HETATM    2  O   UNL     1     -10.818  19.817  66.878  1.00  0.00    -0.472 OA 
ENDROOT
BRANCH   2   3
HETATM    3  C   UNL     1      -9.647  19.444  67.487  1.00  0.00    -0.326 A  
HETATM    4  C   UNL     1      -9.638  18.162  68.068  1.00  0.00    -0.300 A  
HETATM    5  C   UNL     1      -8.487  17.702  68.711  1.00  0.00    -0.213 A  
HETATM    6  C   UNL     1      -7.341  19.768  68.187  1.00  0.00    -0.338 A  
HETATM    7  C   UNL     1      -8.492  20.233  67.538  1.00  0.00    -0.376 A  
HETATM    8  C   UNL     1      -7.338  18.496  68.760  1.00  0.00    -0.312 A  
BRANCH   4   9
HETATM    9  O   UNL     1     -10.805  17.446  68.002  1.00  0.00    -0.384 OA 
BRANCH   9  10
HETATM   10  C   UNL     1     -10.714  16.021  67.970  1.00  0.00    -0.309 C  
BRANCH  10  11
HETATM   11  C   UNL     1     -10.879  15.459  66.553  1.00  0.00    -0.298 C  
BRANCH  11  12
HETATM   12  C   UNL     1      -9.595  14.863  65.948  1.00  0.00    -0.308 C  
BRANCH  12  13
HETATM   13  N   UNL     1      -9.582  13.398  66.017  1.00  0.00    -0.212 NA 
HETATM   14  C   UNL     1     -10.865  12.792  65.642  1.00  0.00    -0.273 C  
HETATM   15  C   UNL     1     -10.722  11.261  65.529  1.00  0.00    -0.283 C  
HETATM   16  C   UNL     1     -10.056  10.612  66.760  1.00  0.00    -0.272 C  
HETATM   17  C   UNL     1      -8.789  11.414  67.102  1.00  0.00    -0.156 C  
HETATM   18  C   UNL     1      -9.121  12.886  67.304  1.00  0.00    -0.208 C  
BRANCH  16  19
HETATM   19  C   UNL     1     -10.963  10.489  67.956  1.00  0.00    -0.290 A  
HETATM   20  N   UNL     1     -12.084  11.219  68.050  1.00  0.00    -0.624 NA 
HETATM   21  O   UNL     1     -12.574  11.004  69.322  1.00  0.00    -0.361 OA 
HETATM   22  C   UNL     1     -11.762  10.134  69.981  1.00  0.00    -0.223 A  
HETATM   23  C   UNL     1     -10.760   9.712  69.136  1.00  0.00    -0.237 A  
HETATM   24  C   UNL     1      -9.830   8.770  69.613  1.00  0.00    -0.183 A  
HETATM   25  C   UNL     1      -9.934   8.355  70.949  1.00  0.00    -0.230 A  
HETATM   26  C   UNL     1     -10.946   8.849  71.770  1.00  0.00    -0.361 A  
HETATM   27  C   UNL     1     -11.912   9.737  71.305  1.00  0.00    -0.471 A  
HETATM   28  F   UNL     1     -10.986   8.460  73.051  1.00  0.00    -0.387 F  
ENDBRANCH  16  19
ENDBRANCH  12  13
ENDBRANCH  11  12
ENDBRANCH  10  11
ENDBRANCH   9  10
ENDBRANCH   4   9
BRANCH   6  29
HETATM   29  C   UNL     1      -6.152  20.662  68.237  1.00  0.00    -0.333 C  
HETATM   30  O   UNL     1      -5.877  21.356  67.260  1.00  0.00    -0.301 OA 
HETATM   31  C   UNL     1      -5.338  20.755  69.504  1.00  0.00    -0.406 C  
ENDBRANCH   6  29
ENDBRANCH   2   3
TORSDOF 8
ENDMDL
MODEL       29
REMARK 921   NORMALIZED FREE ENERGY PREDICTED BY IDOCK:   -6.54 KCAL/MOL
REMARK 922        TOTAL FREE ENERGY PREDICTED BY IDOCK:  -10.39 KCAL/MOL
REMARK 923 INTER-LIGAND FREE ENERGY PREDICTED BY IDOCK:   -9.40 KCAL/MOL
REMARK 924 INTRA-LIGAND FREE ENERGY PREDICTED BY IDOCK:   -0.99 KCAL/MOL
REMARK 927      BINDING AFFINITY PREDICTED BY RF-SCORE:    0.00 PKD
ROOT
HETATM    1  C   UNL     1     -10.622   5.853  67.351  1.00  0.00    -0.282 C  
HETATM    2  O   UNL     1     -10.900   7.245  67.398  1.00  0.00    -0.274 OA 
ENDROOT
BRANCH   2   3
HETATM    3  C   UNL     1     -10.231   7.992  68.334  1.00  0.00    -0.207 A  
HETATM    4  C   UNL     1      -9.418   9.024  67.831  1.00  0.00    -0.141 A  
HETATM    5  C   UNL     1      -8.699   9.832  68.715  1.00  0.00    -0.128 A  
HETATM    6  C   UNL     1      -9.603   8.613  70.600  1.00  0.00    -0.222 A  
HETATM    7  C   UNL     1     -10.329   7.803  69.717  1.00  0.00    -0.221 A  
HETATM    8  C   UNL     1      -8.800   9.636  70.095  1.00  0.00    -0.266 A  
BRANCH   4   9
HETATM    9  O   UNL     1      -9.348   9.146  66.467  1.00  0.00    -0.163 OA 
BRANCH   9  10
HETATM   10  C   UNL     1     -10.268  10.032  65.828  1.00  0.00    -0.200 C  
BRANCH  10  11
HETATM   11  C   UNL     1      -9.724  11.462  65.725  1.00  0.00    -0.263 C  
BRANCH  11  12
HETATM   12  C   UNL     1     -10.806  12.548  65.581  1.00  0.00    -0.277 C  
BRANCH  12  13
HETATM   13  N   UNL     1     -10.637  13.626  66.560  1.00  0.00    -0.280 NA 
HETATM   14  C   UNL     1      -9.990  13.182  67.801  1.00  0.00    -0.227 C  
HETATM   15  C   UNL     1      -9.650  14.394  68.692  1.00  0.00    -0.208 C  
HETATM   16  C   UNL     1     -10.841  15.351  68.910  1.00  0.00    -0.251 C  
HETATM   17  C   UNL     1     -11.484  15.641  67.543  1.00  0.00    -0.121 C  
HETATM   18  C   UNL     1     -11.875  14.345  66.846  1.00  0.00    -0.410 C  
BRANCH  16  19
HETATM   19  C   UNL     1     -11.860  14.848  69.898  1.00  0.00    -0.311 A  
HETATM   20  N   UNL     1     -12.566  15.700  70.657  1.00  0.00    -0.440 NA 
HETATM   21  O   UNL     1     -13.260  14.922  71.561  1.00  0.00    -0.320 OA 
HETATM   22  C   UNL     1     -12.987  13.609  71.334  1.00  0.00    -0.347 A  
HETATM   23  C   UNL     1     -12.160  13.494  70.238  1.00  0.00    -0.425 A  
HETATM   24  C   UNL     1     -11.790  12.208  69.806  1.00  0.00    -0.397 A  
HETATM   25  C   UNL     1     -12.232  11.106  70.553  1.00  0.00    -0.475 A  
HETATM   26  C   UNL     1     -13.034  11.286  71.679  1.00  0.00    -0.432 A  
HETATM   27  C   UNL     1     -13.461  12.544  72.092  1.00  0.00    -0.523 A  
HETATM   28  F   UNL     1     -13.400  10.211  72.390  1.00  0.00    -0.500 F  
ENDBRANCH  16  19
ENDBRANCH  12  13
ENDBRANCH  11  12
ENDBRANCH  10  11
ENDBRANCH   9  10
ENDBRANCH   4   9
BRANCH   6  29
HETATM   29  C   UNL     1      -9.722   8.347  72.060  1.00  0.00    -0.283 C  
HETATM   30  O   UNL     1      -8.777   8.612  72.800  1.00  0.00    -0.387 OA 
HETATM   31  C   UNL     1     -11.018   7.817  72.620  1.00  0.00    -0.422 C  
ENDBRANCH   6  29
ENDBRANCH   2   3
TORSDOF 8
ENDMDL
MODEL       30
REMARK 921   NORMALIZED FREE ENERGY PREDICTED BY IDOCK:   -6.53 KCAL/MOL
REMARK 922        TOTAL FREE ENERGY PREDICTED BY IDOCK:  -10.38 KCAL/MOL
REMARK 923 INTER-LIGAND FREE ENERGY PREDICTED BY IDOCK:   -9.50 KCAL/MOL
REMARK 924 INTRA-LIGAND FREE ENERGY PREDICTED BY IDOCK:   -0.88 KCAL/MOL
REMARK 927      BINDING AFFINITY PREDICTED BY RF-SCORE:    0.00 PKD
ROOT
HETATM    1  C   UNL     1      -7.694  14.330  67.389  1.00  0.00    -0.173 C  
HETATM    2  O   UNL     1      -8.594  14.636  66.333  1.00  0.00    -0.101 OA 
ENDROOT
BRANCH   2   3
HETATM    3  C   UNL     1      -9.145  15.893  66.318  1.00  0.00    -0.344 A  
HETATM    4  C   UNL     1     -10.252  16.068  65.467  1.00  0.00    -0.360 A  
HETATM    5  C   UNL     1     -10.873  17.316  65.389  1.00  0.00    -0.024 A  
HETATM    6  C   UNL     1      -9.320  18.217  67.011  1.00  0.00    -0.270 A  
HETATM    7  C   UNL     1      -8.695  16.965  67.096  1.00  0.00    -0.219 A  
HETATM    8  C   UNL     1     -10.417  18.384  66.166  1.00  0.00    -0.422 A  
BRANCH   4   9
HETATM    9  O   UNL     1     -10.632  14.985  64.717  1.00  0.00    -0.402 OA 
BRANCH   9  10
HETATM   10  C   UNL     1     -12.005  14.883  64.339  1.00  0.00    -0.394 C  
BRANCH  10  11
HETATM   11  C   UNL     1     -12.763  13.842  65.170  1.00  0.00    -0.439 C  
BRANCH  11  12
HETATM   12  C   UNL     1     -12.072  12.468  65.257  1.00  0.00    -0.444 C  
BRANCH  12  13
HETATM   13  N   UNL     1     -11.232  12.350  66.453  1.00  0.00    -0.301 NA 
HETATM   14  C   UNL     1     -10.652  11.012  66.621  1.00  0.00    -0.262 C  
HETATM   15  C   UNL     1      -9.618  11.015  67.765  1.00  0.00    -0.180 C  
HETATM   16  C   UNL     1     -10.149  11.640  69.072  1.00  0.00    -0.034 C  
HETATM   17  C   UNL     1     -10.823  12.978  68.729  1.00  0.00    -0.277 C  
HETATM   18  C   UNL     1     -11.904  12.783  67.675  1.00  0.00    -0.339 C  
BRANCH  16  19
HETATM   19  C   UNL     1     -11.078  10.743  69.848  1.00  0.00    -0.271 A  
HETATM   20  N   UNL     1     -12.405  10.935  69.821  1.00  0.00    -0.310 NA 
HETATM   21  O   UNL     1     -12.935  10.076  70.763  1.00  0.00    -0.330 OA 
HETATM   22  C   UNL     1     -11.932   9.358  71.337  1.00  0.00    -0.371 A  
HETATM   23  C   UNL     1     -10.734   9.685  70.741  1.00  0.00    -0.401 A  
HETATM   24  C   UNL     1      -9.569   9.019  71.164  1.00  0.00    -0.356 A  
HETATM   25  C   UNL     1      -9.678   8.097  72.217  1.00  0.00    -0.322 A  
HETATM   26  C   UNL     1     -10.912   7.839  72.809  1.00  0.00    -0.388 A  
HETATM   27  C   UNL     1     -12.087   8.441  72.371  1.00  0.00    -0.443 A  
HETATM   28  F   UNL     1     -10.968   6.984  73.840  1.00  0.00    -0.340 F  
ENDBRANCH  16  19
ENDBRANCH  12  13
ENDBRANCH  11  12
ENDBRANCH  10  11
ENDBRANCH   9  10
ENDBRANCH   4   9
BRANCH   6  29
HETATM   29  C   UNL     1      -8.780  19.330  67.838  1.00  0.00    -0.313 C  
HETATM   30  O   UNL     1      -8.697  19.191  69.057  1.00  0.00    -0.315 OA 
HETATM   31  C   UNL     1      -8.283  20.587  67.168  1.00  0.00    -0.353 C  
ENDBRANCH   6  29
ENDBRANCH   2   3
TORSDOF 8
ENDMDL
MODEL       31
REMARK 921   NORMALIZED FREE ENERGY PREDICTED BY IDOCK:   -6.53 KCAL/MOL
REMARK 922        TOTAL FREE ENERGY PREDICTED BY IDOCK:  -10.38 KCAL/MOL
REMARK 923 INTER-LIGAND FREE ENERGY PREDICTED BY IDOCK:   -9.16 KCAL/MOL
REMARK 924 INTRA-LIGAND FREE ENERGY PREDICTED BY IDOCK:   -1.22 KCAL/MOL
REMARK 927      BINDING AFFINITY PREDICTED BY RF-SCORE:    0.00 PKD
ROOT
HETATM    1  C   UNL     1     -12.208  15.435  70.002  1.00  0.00    -0.361 C  
HETATM    2  O   UNL     1     -10.939  15.047  69.496  1.00  0.00    -0.248 OA 
ENDROOT
BRANCH   2   3
HETATM    3  C   UNL     1     -10.733  15.172  68.145  1.00  0.00    -0.254 A  
HETATM    4  C   UNL     1      -9.571  15.868  67.763  1.00  0.00    -0.218 A  
HETATM    5  C   UNL     1      -9.285  16.043  66.407  1.00  0.00    -0.339 A  
HETATM    6  C   UNL     1     -11.285  14.822  65.803  1.00  0.00    -0.337 A  
HETATM    7  C   UNL     1     -11.575  14.641  67.162  1.00  0.00    -0.394 A  
HETATM    8  C   UNL     1     -10.132  15.511  65.430  1.00  0.00    -0.387 A  
BRANCH   4   9
HETATM    9  O   UNL     1      -8.798  16.381  68.772  1.00  0.00    -0.225 OA 
BRANCH   9  10
HETATM   10  C   UNL     1      -7.706  15.591  69.243  1.00  0.00    -0.223 C  
BRANCH  10  11
HETATM   11  C   UNL     1      -7.151  14.658  68.160  1.00  0.00    -0.127 C  
BRANCH  11  12
HETATM   12  C   UNL     1      -6.571  13.335  68.693  1.00  0.00    -0.091 C  
BRANCH  12  13
HETATM   13  N   UNL     1      -7.252  12.167  68.122  1.00  0.00    -0.087 NA 
HETATM   14  C   UNL     1      -8.330  12.525  67.193  1.00  0.00    -0.179 C  
HETATM   15  C   UNL     1      -8.856  11.268  66.472  1.00  0.00    -0.180 C  
HETATM   16  C   UNL     1      -9.208  10.111  67.429  1.00  0.00    -0.156 C  
HETATM   17  C   UNL     1      -8.039   9.922  68.410  1.00  0.00    -0.101 C  
HETATM   18  C   UNL     1      -7.725  11.226  69.132  1.00  0.00    -0.046 C  
BRANCH  16  19
HETATM   19  C   UNL     1     -10.511  10.296  68.162  1.00  0.00    -0.190 A  
HETATM   20  N   UNL     1     -11.441  11.152  67.712  1.00  0.00    -0.483 NA 
HETATM   21  O   UNL     1     -12.410  11.214  68.693  1.00  0.00    -0.549 OA 
HETATM   22  C   UNL     1     -12.073  10.385  69.717  1.00  0.00    -0.138 A  
HETATM   23  C   UNL     1     -10.911   9.715  69.403  1.00  0.00    -0.239 A  
HETATM   24  C   UNL     1     -10.410   8.771  70.318  1.00  0.00    -0.227 A  
HETATM   25  C   UNL     1     -11.088   8.605  71.535  1.00  0.00    -0.358 A  
HETATM   26  C   UNL     1     -12.237   9.342  71.815  1.00  0.00    -0.390 A  
HETATM   27  C   UNL     1     -12.784  10.239  70.904  1.00  0.00    -0.462 A  
HETATM   28  F   UNL     1     -12.830   9.185  73.006  1.00  0.00    -0.370 F  
ENDBRANCH  16  19
ENDBRANCH  12  13
ENDBRANCH  11  12
ENDBRANCH  10  11
ENDBRANCH   9  10
ENDBRANCH   4   9
BRANCH   6  29
HETATM   29  C   UNL     1     -12.232  14.261  64.801  1.00  0.00    -0.443 C  
HETATM   30  O   UNL     1     -12.630  14.975  63.881  1.00  0.00    -0.813 OA 
HETATM   31  C   UNL     1     -12.642  12.812  64.887  1.00  0.00    -0.541 C  
ENDBRANCH   6  29
ENDBRANCH   2   3
TORSDOF 8
ENDMDL
MODEL       32
REMARK 921   NORMALIZED FREE ENERGY PREDICTED BY IDOCK:   -6.52 KCAL/MOL
REMARK 922        TOTAL FREE ENERGY PREDICTED BY IDOCK:  -10.36 KCAL/MOL
REMARK 923 INTER-LIGAND FREE ENERGY PREDICTED BY IDOCK:   -9.31 KCAL/MOL
REMARK 924 INTRA-LIGAND FREE ENERGY PREDICTED BY IDOCK:   -1.05 KCAL/MOL
REMARK 927      BINDING AFFINITY PREDICTED BY RF-SCORE:    0.00 PKD
ROOT
HETATM    1  C   UNL     1     -12.260  14.270  69.593  1.00  0.00    -0.323 C  
HETATM    2  O   UNL     1     -12.023  15.304  68.650  1.00  0.00    -0.320 OA 
ENDROOT
BRANCH   2   3
HETATM    3  C   UNL     1     -11.578  14.934  67.406  1.00  0.00    -0.332 A  
HETATM    4  C   UNL     1     -10.436  15.609  66.936  1.00  0.00    -0.307 A  
HETATM    5  C   UNL     1      -9.917  15.296  65.677  1.00  0.00    -0.397 A  
HETATM    6  C   UNL     1     -11.642  13.630  65.354  1.00  0.00    -0.334 A  
HETATM    7  C   UNL     1     -12.165  13.938  66.617  1.00  0.00    -0.465 A  
HETATM    8  C   UNL     1     -10.510  14.302  64.894  1.00  0.00    -0.454 A  
BRANCH   4   9
HETATM    9  O   UNL     1      -9.919  16.587  67.745  1.00  0.00    -0.244 OA 
BRANCH   9  10
HETATM   10  C   UNL     1      -8.795  16.254  68.560  1.00  0.00    -0.219 C  
BRANCH  10  11
HETATM   11  C   UNL     1      -7.866  15.239  67.885  1.00  0.00    -0.149 C  
BRANCH  11  12
HETATM   12  C   UNL     1      -7.370  14.111  68.809  1.00  0.00    -0.128 C  
BRANCH  12  13
HETATM   13  N   UNL     1      -7.805  12.790  68.347  1.00  0.00    -0.137 NA 
HETATM   14  C   UNL     1      -9.265  12.630  68.345  1.00  0.00    -0.135 C  
HETATM   15  C   UNL     1      -9.659  11.311  67.652  1.00  0.00    -0.180 C  
HETATM   16  C   UNL     1      -8.893  10.083  68.184  1.00  0.00    -0.122 C  
HETATM   17  C   UNL     1      -7.396  10.431  68.233  1.00  0.00    -0.088 C  
HETATM   18  C   UNL     1      -7.162  11.689  69.058  1.00  0.00    -0.094 C  
BRANCH  16  19
HETATM   19  C   UNL     1      -9.382   9.585  69.519  1.00  0.00    -0.190 A  
HETATM   20  N   UNL     1      -8.642   8.741  70.254  1.00  0.00    -0.140 NA 
HETATM   21  O   UNL     1      -9.444   8.349  71.307  1.00  0.00    -0.160 OA 
HETATM   22  C   UNL     1     -10.651   8.968  71.214  1.00  0.00    -0.308 A  
HETATM   23  C   UNL     1     -10.645   9.827  70.137  1.00  0.00    -0.337 A  
HETATM   24  C   UNL     1     -11.792  10.602  69.888  1.00  0.00    -0.392 A  
HETATM   25  C   UNL     1     -12.910  10.415  70.715  1.00  0.00    -0.450 A  
HETATM   26  C   UNL     1     -12.871   9.500  71.766  1.00  0.00    -0.406 A  
HETATM   27  C   UNL     1     -11.730   8.764  72.068  1.00  0.00    -0.442 A  
HETATM   28  F   UNL     1     -13.973   9.320  72.506  1.00  0.00    -0.452 F  
ENDBRANCH  16  19
ENDBRANCH  12  13
ENDBRANCH  11  12
ENDBRANCH  10  11
ENDBRANCH   9  10
ENDBRANCH   4   9
BRANCH   6  29
HETATM   29  C   UNL     1     -12.326  12.583  64.546  1.00  0.00    -0.467 C  
HETATM   30  O   UNL     1     -13.518  12.354  64.741  1.00  0.00    -0.600 OA 
HETATM   31  C   UNL     1     -11.568  11.864  63.458  1.00  0.00    -0.537 C  
ENDBRANCH   6  29
ENDBRANCH   2   3
TORSDOF 8
ENDMDL
MODEL       33
REMARK 921   NORMALIZED FREE ENERGY PREDICTED BY IDOCK:   -6.50 KCAL/MOL
REMARK 922        TOTAL FREE ENERGY PREDICTED BY IDOCK:  -10.33 KCAL/MOL
REMARK 923 INTER-LIGAND FREE ENERGY PREDICTED BY IDOCK:   -9.93 KCAL/MOL
REMARK 924 INTRA-LIGAND FREE ENERGY PREDICTED BY IDOCK:   -0.40 KCAL/MOL
REMARK 927      BINDING AFFINITY PREDICTED BY RF-SCORE:    0.00 PKD
ROOT
HETATM    1  C   UNL     1     -13.201  15.143  73.453  1.00  0.00    -0.365 C  
HETATM    2  O   UNL     1     -13.985  14.110  72.875  1.00  0.00    -0.602 OA 
ENDROOT
BRANCH   2   3
HETATM    3  C   UNL     1     -13.351  13.236  72.027  1.00  0.00    -0.489 A  
HETATM    4  C   UNL     1     -12.647  13.820  70.958  1.00  0.00    -0.371 A  
HETATM    5  C   UNL     1     -11.974  13.004  70.046  1.00  0.00    -0.383 A  
HETATM    6  C   UNL     1     -12.675  11.031  71.258  1.00  0.00    -0.537 A  
HETATM    7  C   UNL     1     -13.348  11.845  72.178  1.00  0.00    -0.361 A  
HETATM    8  C   UNL     1     -11.977  11.615  70.201  1.00  0.00    -0.441 A  
BRANCH   4   9
HETATM    9  O   UNL     1     -12.703  15.186  70.853  1.00  0.00    -0.341 OA 
BRANCH   9  10
HETATM   10  C   UNL     1     -12.114  15.792  69.702  1.00  0.00    -0.264 C  
BRANCH  10  11
HETATM   11  C   UNL     1     -10.753  16.427  70.010  1.00  0.00    -0.258 C  
BRANCH  11  12
HETATM   12  C   UNL     1     -10.216  17.354  68.905  1.00  0.00    -0.352 C  
BRANCH  12  13
HETATM   13  N   UNL     1      -9.875  16.615  67.685  1.00  0.00    -0.252 NA 
HETATM   14  C   UNL     1     -11.016  16.440  66.779  1.00  0.00     0.011 C  
HETATM   15  C   UNL     1     -10.547  15.851  65.433  1.00  0.00    -0.439 C  
HETATM   16  C   UNL     1      -9.665  14.594  65.585  1.00  0.00    -0.302 C  
HETATM   17  C   UNL     1      -8.585  14.887  66.640  1.00  0.00    -0.207 C  
HETATM   18  C   UNL     1      -9.218  15.338  67.949  1.00  0.00    -0.184 C  
BRANCH  16  19
HETATM   19  C   UNL     1     -10.433  13.342  65.922  1.00  0.00    -0.287 A  
HETATM   20  N   UNL     1     -11.774  13.325  65.889  1.00  0.00    -0.348 NA 
HETATM   21  O   UNL     1     -12.153  12.108  66.417  1.00  0.00    -0.630 OA 
HETATM   22  C   UNL     1     -11.045  11.390  66.747  1.00  0.00    -0.281 A  
HETATM   23  C   UNL     1      -9.918  12.094  66.385  1.00  0.00    -0.243 A  
HETATM   24  C   UNL     1      -8.659  11.506  66.602  1.00  0.00    -0.176 A  
HETATM   25  C   UNL     1      -8.613  10.255  67.236  1.00  0.00    -0.125 A  
HETATM   26  C   UNL     1      -9.787   9.609  67.618  1.00  0.00    -0.164 A  
HETATM   27  C   UNL     1     -11.046  10.143  67.362  1.00  0.00    -0.219 A  
HETATM   28  F   UNL     1      -9.699   8.435  68.258  1.00  0.00    -0.146 F  
ENDBRANCH  16  19
ENDBRANCH  12  13
ENDBRANCH  11  12
ENDBRANCH  10  11
ENDBRANCH   9  10
ENDBRANCH   4   9
BRANCH   6  29
HETATM   29  C   UNL     1     -12.732   9.555  71.451  1.00  0.00    -0.358 C  
HETATM   30  O   UNL     1     -11.855   8.848  70.958  1.00  0.00    -0.283 OA 
HETATM   31  C   UNL     1     -13.824   8.953  72.300  1.00  0.00    -0.536 C  
ENDBRANCH   6  29
ENDBRANCH   2   3
TORSDOF 8
ENDMDL
MODEL       34
REMARK 921   NORMALIZED FREE ENERGY PREDICTED BY IDOCK:   -6.49 KCAL/MOL
REMARK 922        TOTAL FREE ENERGY PREDICTED BY IDOCK:  -10.33 KCAL/MOL
REMARK 923 INTER-LIGAND FREE ENERGY PREDICTED BY IDOCK:   -8.29 KCAL/MOL
REMARK 924 INTRA-LIGAND FREE ENERGY PREDICTED BY IDOCK:   -2.03 KCAL/MOL
REMARK 927      BINDING AFFINITY PREDICTED BY RF-SCORE:    0.00 PKD
ROOT
HETATM    1  C   UNL     1     -13.997   8.730  72.463  1.00  0.00    -0.363 C  
HETATM    2  O   UNL     1     -13.329   9.983  72.434  1.00  0.00    -0.368 OA 
ENDROOT
BRANCH   2   3
HETATM    3  C   UNL     1     -12.484  10.223  71.380  1.00  0.00    -0.424 A  
HETATM    4  C   UNL     1     -12.507  11.530  70.859  1.00  0.00    -0.366 A  
HETATM    5  C   UNL     1     -11.679  11.861  69.784  1.00  0.00    -0.403 A  
HETATM    6  C   UNL     1     -10.786   9.612  69.750  1.00  0.00    -0.269 A  
HETATM    7  C   UNL     1     -11.612   9.276  70.831  1.00  0.00    -0.364 A  
HETATM    8  C   UNL     1     -10.812  10.910  69.239  1.00  0.00    -0.286 A  
BRANCH   4   9
HETATM    9  O   UNL     1     -13.396  12.406  71.427  1.00  0.00    -0.196 OA 
BRANCH   9  10
HETATM   10  C   UNL     1     -12.870  13.556  72.089  1.00  0.00    -0.228 C  
BRANCH  10  11
HETATM   11  C   UNL     1     -12.878  14.799  71.192  1.00  0.00    -0.406 C  
BRANCH  11  12
HETATM   12  C   UNL     1     -11.637  15.699  71.334  1.00  0.00    -0.433 C  
BRANCH  12  13
HETATM   13  N   UNL     1     -10.911  15.839  70.066  1.00  0.00    -0.308 NA 
HETATM   14  C   UNL     1     -11.758  16.317  68.967  1.00  0.00    -0.165 C  
HETATM   15  C   UNL     1     -10.897  16.646  67.731  1.00  0.00    -0.292 C  
HETATM   16  C   UNL     1      -9.932  15.510  67.334  1.00  0.00    -0.234 C  
HETATM   17  C   UNL     1      -9.196  15.037  68.598  1.00  0.00    -0.198 C  
HETATM   18  C   UNL     1     -10.188  14.632  69.680  1.00  0.00     0.044 C  
BRANCH  16  19
HETATM   19  C   UNL     1     -10.597  14.358  66.626  1.00  0.00    -0.282 A  
HETATM   20  N   UNL     1     -11.888  14.421  66.269  1.00  0.00    -0.387 NA 
HETATM   21  O   UNL     1     -12.222  13.159  65.818  1.00  0.00    -0.425 OA 
HETATM   22  C   UNL     1     -11.131  12.349  65.887  1.00  0.00    -0.313 A  
HETATM   23  C   UNL     1     -10.045  13.077  66.323  1.00  0.00    -0.283 A  
HETATM   24  C   UNL     1      -8.800  12.432  66.425  1.00  0.00    -0.048 A  
HETATM   25  C   UNL     1      -8.739  11.060  66.135  1.00  0.00    -0.188 A  
HETATM   26  C   UNL     1      -9.881  10.367  65.738  1.00  0.00    -0.239 A  
HETATM   27  C   UNL     1     -11.111  10.994  65.575  1.00  0.00     0.001 A  
HETATM   28  F   UNL     1      -9.790   9.049  65.511  1.00  0.00    -0.326 F  
ENDBRANCH  16  19
ENDBRANCH  12  13
ENDBRANCH  11  12
ENDBRANCH  10  11
ENDBRANCH   9  10
ENDBRANCH   4   9
BRANCH   6  29
HETATM   29  C   UNL     1      -9.901   8.556  69.186  1.00  0.00    -0.186 C  
HETATM   30  O   UNL     1      -8.700   8.572  69.449  1.00  0.00    -0.133 OA 
HETATM   31  C   UNL     1     -10.496   7.448  68.353  1.00  0.00    -0.220 C  
ENDBRANCH   6  29
ENDBRANCH   2   3
TORSDOF 8
ENDMDL
MODEL       35
REMARK 921   NORMALIZED FREE ENERGY PREDICTED BY IDOCK:   -6.48 KCAL/MOL
REMARK 922        TOTAL FREE ENERGY PREDICTED BY IDOCK:  -10.30 KCAL/MOL
REMARK 923 INTER-LIGAND FREE ENERGY PREDICTED BY IDOCK:   -9.02 KCAL/MOL
REMARK 924 INTRA-LIGAND FREE ENERGY PREDICTED BY IDOCK:   -1.28 KCAL/MOL
REMARK 927      BINDING AFFINITY PREDICTED BY RF-SCORE:    0.00 PKD
ROOT
HETATM    1  C   UNL     1      -9.826   4.737  67.081  1.00  0.00    -0.193 C  
HETATM    2  O   UNL     1     -10.888   5.680  67.067  1.00  0.00    -0.275 OA 
ENDROOT
BRANCH   2   3
HETATM    3  C   UNL     1     -10.878   6.657  68.030  1.00  0.00    -0.271 A  
HETATM    4  C   UNL     1     -10.504   7.943  67.596  1.00  0.00    -0.234 A  
HETATM    5  C   UNL     1     -10.465   8.997  68.511  1.00  0.00    -0.232 A  
HETATM    6  C   UNL     1     -11.187   7.516  70.283  1.00  0.00    -0.253 A  
HETATM    7  C   UNL     1     -11.231   6.456  69.369  1.00  0.00    -0.459 A  
HETATM    8  C   UNL     1     -10.817   8.788  69.848  1.00  0.00    -0.211 A  
BRANCH   4   9
HETATM    9  O   UNL     1     -10.151   8.072  66.278  1.00  0.00    -0.173 OA 
BRANCH   9  10
HETATM   10  C   UNL     1      -8.763   8.205  65.968  1.00  0.00    -0.156 C  
BRANCH  10  11
HETATM   11  C   UNL     1      -8.489   9.374  65.015  1.00  0.00    -0.171 C  
BRANCH  11  12
HETATM   12  C   UNL     1      -8.043  10.674  65.709  1.00  0.00    -0.158 C  
BRANCH  12  13
HETATM   13  N   UNL     1      -9.161  11.356  66.370  1.00  0.00    -0.188 NA 
HETATM   14  C   UNL     1     -10.284  11.632  65.467  1.00  0.00    -0.260 C  
HETATM   15  C   UNL     1     -11.499  12.148  66.264  1.00  0.00    -0.433 C  
HETATM   16  C   UNL     1     -11.158  13.311  67.219  1.00  0.00    -0.301 C  
HETATM   17  C   UNL     1      -9.903  12.927  68.020  1.00  0.00    -0.223 C  
HETATM   18  C   UNL     1      -8.758  12.563  67.085  1.00  0.00    -0.200 C  
BRANCH  16  19
HETATM   19  C   UNL     1     -10.982  14.639  66.531  1.00  0.00    -0.318 A  
HETATM   20  N   UNL     1     -10.937  14.723  65.193  1.00  0.00    -0.367 NA 
HETATM   21  O   UNL     1     -10.590  16.027  64.903  1.00  0.00    -0.587 OA 
HETATM   22  C   UNL     1     -10.448  16.727  66.060  1.00  0.00    -0.293 A  
HETATM   23  C   UNL     1     -10.759  15.915  67.129  1.00  0.00    -0.301 A  
HETATM   24  C   UNL     1     -10.715  16.462  68.424  1.00  0.00    -0.327 A  
HETATM   25  C   UNL     1     -10.295  17.794  68.567  1.00  0.00    -0.366 A  
HETATM   26  C   UNL     1      -9.953  18.554  67.450  1.00  0.00    -0.330 A  
HETATM   27  C   UNL     1     -10.043  18.054  66.155  1.00  0.00    -0.334 A  
HETATM   28  F   UNL     1      -9.516  19.808  67.632  1.00  0.00    -0.370 F  
ENDBRANCH  16  19
ENDBRANCH  12  13
ENDBRANCH  11  12
ENDBRANCH  10  11
ENDBRANCH   9  10
ENDBRANCH   4   9
BRANCH   6  29
HETATM   29  C   UNL     1     -11.544   7.237  71.702  1.00  0.00    -0.274 C  
HETATM   30  O   UNL     1     -12.344   6.339  71.957  1.00  0.00    -0.328 OA 
HETATM   31  C   UNL     1     -10.874   8.015  72.808  1.00  0.00    -0.438 C  
ENDBRANCH   6  29
ENDBRANCH   2   3
TORSDOF 8
ENDMDL
MODEL       36
REMARK 921   NORMALIZED FREE ENERGY PREDICTED BY IDOCK:   -6.47 KCAL/MOL
REMARK 922        TOTAL FREE ENERGY PREDICTED BY IDOCK:  -10.28 KCAL/MOL
REMARK 923 INTER-LIGAND FREE ENERGY PREDICTED BY IDOCK:   -9.52 KCAL/MOL
REMARK 924 INTRA-LIGAND FREE ENERGY PREDICTED BY IDOCK:   -0.76 KCAL/MOL
REMARK 927      BINDING AFFINITY PREDICTED BY RF-SCORE:    0.00 PKD
ROOT
HETATM    1  C   UNL     1     -12.613   8.813  71.933  1.00  0.00    -0.371 C  
HETATM    2  O   UNL     1     -12.094   8.205  70.759  1.00  0.00    -0.209 OA 
ENDROOT
BRANCH   2   3
HETATM    3  C   UNL     1     -11.465   6.994  70.902  1.00  0.00    -0.308 A  
HETATM    4  C   UNL     1     -10.763   6.530  69.774  1.00  0.00    -0.269 A  
HETATM    5  C   UNL     1     -10.095   5.305  69.831  1.00  0.00    -0.333 A  
HETATM    6  C   UNL     1     -10.794   5.004  72.128  1.00  0.00    -0.179 A  
HETATM    7  C   UNL     1     -11.463   6.234  72.077  1.00  0.00    -0.359 A  
HETATM    8  C   UNL     1     -10.099   4.550  71.007  1.00  0.00    -0.222 A  
BRANCH   4   9
HETATM    9  O   UNL     1     -10.819   7.310  68.647  1.00  0.00    -0.170 OA 
BRANCH   9  10
HETATM   10  C   UNL     1      -9.640   7.414  67.849  1.00  0.00    -0.141 C  
BRANCH  10  11
HETATM   11  C   UNL     1      -9.668   8.638  66.926  1.00  0.00    -0.278 C  
BRANCH  11  12
HETATM   12  C   UNL     1      -8.840   9.836  67.427  1.00  0.00    -0.132 C  
BRANCH  12  13
HETATM   13  N   UNL     1      -9.630  11.071  67.470  1.00  0.00    -0.163 NA 
HETATM   14  C   UNL     1      -9.060  12.090  68.359  1.00  0.00    -0.158 C  
HETATM   15  C   UNL     1      -9.811  13.427  68.194  1.00  0.00    -0.234 C  
HETATM   16  C   UNL     1     -11.344  13.287  68.297  1.00  0.00    -0.335 C  
HETATM   17  C   UNL     1     -11.785  12.118  67.401  1.00  0.00    -0.374 C  
HETATM   18  C   UNL     1     -11.039  10.843  67.774  1.00  0.00    -0.309 C  
BRANCH  16  19
HETATM   19  C   UNL     1     -11.853  13.119  69.705  1.00  0.00    -0.324 A  
HETATM   20  N   UNL     1     -12.398  11.961  70.108  1.00  0.00    -0.215 NA 
HETATM   21  O   UNL     1     -12.915  12.199  71.365  1.00  0.00    -0.368 OA 
HETATM   22  C   UNL     1     -12.663  13.488  71.723  1.00  0.00    -0.244 A  
HETATM   23  C   UNL     1     -11.923  14.102  70.737  1.00  0.00    -0.377 A  
HETATM   24  C   UNL     1     -11.518  15.435  70.931  1.00  0.00    -0.396 A  
HETATM   25  C   UNL     1     -11.943  16.093  72.095  1.00  0.00    -0.623 A  
HETATM   26  C   UNL     1     -12.727  15.432  73.039  1.00  0.00    -0.451 A  
HETATM   27  C   UNL     1     -13.092  14.097  72.897  1.00  0.00    -0.544 A  
HETATM   28  F   UNL     1     -13.147  16.108  74.117  1.00  0.00    -0.537 F  
ENDBRANCH  16  19
ENDBRANCH  12  13
ENDBRANCH  11  12
ENDBRANCH  10  11
ENDBRANCH   9  10
ENDBRANCH   4   9
BRANCH   6  29
HETATM   29  C   UNL     1     -10.852   4.223  73.394  1.00  0.00    -0.253 C  
HETATM   30  O   UNL     1     -10.870   4.819  74.470  1.00  0.00    -0.347 OA 
HETATM   31  C   UNL     1     -10.951   2.719  73.342  1.00  0.00    -0.297 C  
ENDBRANCH   6  29
ENDBRANCH   2   3
TORSDOF 8
ENDMDL
MODEL       37
REMARK 921   NORMALIZED FREE ENERGY PREDICTED BY IDOCK:   -6.43 KCAL/MOL
REMARK 922        TOTAL FREE ENERGY PREDICTED BY IDOCK:  -10.23 KCAL/MOL
REMARK 923 INTER-LIGAND FREE ENERGY PREDICTED BY IDOCK:   -8.40 KCAL/MOL
REMARK 924 INTRA-LIGAND FREE ENERGY PREDICTED BY IDOCK:   -1.83 KCAL/MOL
REMARK 927      BINDING AFFINITY PREDICTED BY RF-SCORE:    0.00 PKD
ROOT
HETATM    1  C   UNL     1     -10.186   5.145  71.733  1.00  0.00    -0.209 C  
HETATM    2  O   UNL     1     -10.877   5.770  70.662  1.00  0.00    -0.275 OA 
ENDROOT
BRANCH   2   3
HETATM    3  C   UNL     1     -10.975   7.139  70.687  1.00  0.00    -0.258 A  
HETATM    4  C   UNL     1      -9.928   7.842  70.063  1.00  0.00    -0.187 A  
HETATM    5  C   UNL     1      -9.947   9.238  70.044  1.00  0.00    -0.238 A  
HETATM    6  C   UNL     1     -12.050   9.249  71.242  1.00  0.00    -0.412 A  
HETATM    7  C   UNL     1     -12.037   7.848  71.260  1.00  0.00    -0.317 A  
HETATM    8  C   UNL     1     -11.010   9.939  70.620  1.00  0.00    -0.405 A  
BRANCH   4   9
HETATM    9  O   UNL     1      -8.908   7.092  69.537  1.00  0.00    -0.134 OA 
BRANCH   9  10
HETATM   10  C   UNL     1      -7.568   7.483  69.838  1.00  0.00    -0.093 C  
BRANCH  10  11
HETATM   11  C   UNL     1      -6.808   7.961  68.595  1.00  0.00    -0.063 C  
BRANCH  11  12
HETATM   12  C   UNL     1      -7.516   7.666  67.260  1.00  0.00    -0.100 C  
BRANCH  12  13
HETATM   13  N   UNL     1      -7.991   8.891  66.608  1.00  0.00    -0.103 NA 
HETATM   14  C   UNL     1      -7.582  10.114  67.308  1.00  0.00    -0.095 C  
HETATM   15  C   UNL     1      -7.927  11.357  66.463  1.00  0.00    -0.128 C  
HETATM   16  C   UNL     1      -9.386  11.376  65.963  1.00  0.00    -0.235 C  
HETATM   17  C   UNL     1      -9.706  10.000  65.355  1.00  0.00    -0.368 C  
HETATM   18  C   UNL     1      -9.430   8.889  66.359  1.00  0.00    -0.220 C  
BRANCH  16  19
HETATM   19  C   UNL     1     -10.392  11.754  67.019  1.00  0.00    -0.214 A  
HETATM   20  N   UNL     1     -11.495  11.017  67.217  1.00  0.00    -0.481 NA 
HETATM   21  O   UNL     1     -12.274  11.727  68.108  1.00  0.00    -0.507 OA 
HETATM   22  C   UNL     1     -11.632  12.874  68.458  1.00  0.00    -0.323 A  
HETATM   23  C   UNL     1     -10.394  12.911  67.855  1.00  0.00    -0.233 A  
HETATM   24  C   UNL     1      -9.548  14.002  68.122  1.00  0.00    -0.220 A  
HETATM   25  C   UNL     1     -10.033  15.031  68.943  1.00  0.00    -0.236 A  
HETATM   26  C   UNL     1     -11.311  14.958  69.493  1.00  0.00    -0.281 A  
HETATM   27  C   UNL     1     -12.145  13.863  69.290  1.00  0.00    -0.383 A  
HETATM   28  F   UNL     1     -11.753  15.981  70.237  1.00  0.00    -0.309 F  
ENDBRANCH  16  19
ENDBRANCH  12  13
ENDBRANCH  11  12
ENDBRANCH  10  11
ENDBRANCH   9  10
ENDBRANCH   4   9
BRANCH   6  29
HETATM   29  C   UNL     1     -13.189   9.951  71.894  1.00  0.00    -0.458 C  
HETATM   30  O   UNL     1     -14.080   9.290  72.426  1.00  0.00    -0.436 OA 
HETATM   31  C   UNL     1     -13.206  11.458  71.949  1.00  0.00    -0.485 C  
ENDBRANCH   6  29
ENDBRANCH   2   3
TORSDOF 8
ENDMDL
MODEL       38
REMARK 921   NORMALIZED FREE ENERGY PREDICTED BY IDOCK:   -6.42 KCAL/MOL
REMARK 922        TOTAL FREE ENERGY PREDICTED BY IDOCK:  -10.22 KCAL/MOL
REMARK 923 INTER-LIGAND FREE ENERGY PREDICTED BY IDOCK:   -8.75 KCAL/MOL
REMARK 924 INTRA-LIGAND FREE ENERGY PREDICTED BY IDOCK:   -1.48 KCAL/MOL
REMARK 927      BINDING AFFINITY PREDICTED BY RF-SCORE:    0.00 PKD
ROOT
HETATM    1  C   UNL     1      -7.854  14.448  67.393  1.00  0.00    -0.190 C  
HETATM    2  O   UNL     1      -7.973  13.043  67.558  1.00  0.00    -0.155 OA 
ENDROOT
BRANCH   2   3
HETATM    3  C   UNL     1      -8.870  12.386  66.754  1.00  0.00    -0.189 A  
HETATM    4  C   UNL     1      -8.598  11.027  66.512  1.00  0.00    -0.165 A  
HETATM    5  C   UNL     1      -9.460  10.283  65.702  1.00  0.00    -0.274 A  
HETATM    6  C   UNL     1     -10.873  12.221  65.385  1.00  0.00    -0.324 A  
HETATM    7  C   UNL     1     -10.014  12.971  66.200  1.00  0.00    -0.278 A  
HETATM    8  C   UNL     1     -10.600  10.874  65.151  1.00  0.00    -0.268 A  
BRANCH   4   9
HETATM    9  O   UNL     1      -7.453  10.517  67.066  1.00  0.00    -0.094 OA 
BRANCH   9  10
HETATM   10  C   UNL     1      -7.581   9.442  67.996  1.00  0.00    -0.083 C  
BRANCH  10  11
HETATM   11  C   UNL     1      -8.145   9.902  69.346  1.00  0.00    -0.139 C  
BRANCH  11  12
HETATM   12  C   UNL     1      -9.091   8.892  70.022  1.00  0.00    -0.166 C  
BRANCH  12  13
HETATM   13  N   UNL     1     -10.490   9.330  69.971  1.00  0.00    -0.213 NA 
HETATM   14  C   UNL     1     -10.704  10.475  69.077  1.00  0.00    -0.225 C  
HETATM   15  C   UNL     1     -12.212  10.745  68.905  1.00  0.00     0.035 C  
HETATM   16  C   UNL     1     -12.978  10.837  70.241  1.00  0.00    -0.132 C  
HETATM   17  C   UNL     1     -12.574   9.638  71.113  1.00  0.00    -0.411 C  
HETATM   18  C   UNL     1     -11.062   9.584  71.289  1.00  0.00    -0.379 C  
BRANCH  16  19
HETATM   19  C   UNL     1     -12.778  12.138  70.974  1.00  0.00    -0.228 A  
HETATM   20  N   UNL     1     -13.331  12.343  72.179  1.00  0.00    -0.498 NA 
HETATM   21  O   UNL     1     -13.110  13.672  72.480  1.00  0.00    -0.426 OA 
HETATM   22  C   UNL     1     -12.412  14.256  71.469  1.00  0.00    -0.356 A  
HETATM   23  C   UNL     1     -12.106  13.310  70.515  1.00  0.00    -0.391 A  
HETATM   24  C   UNL     1     -11.346  13.703  69.399  1.00  0.00    -0.303 A  
HETATM   25  C   UNL     1     -10.990  15.055  69.282  1.00  0.00    -0.269 A  
HETATM   26  C   UNL     1     -11.364  15.975  70.259  1.00  0.00    -0.382 A  
HETATM   27  C   UNL     1     -12.066  15.601  71.401  1.00  0.00    -0.476 A  
HETATM   28  F   UNL     1     -11.041  17.264  70.090  1.00  0.00    -0.071 F  
ENDBRANCH  16  19
ENDBRANCH  12  13
ENDBRANCH  11  12
ENDBRANCH  10  11
ENDBRANCH   9  10
ENDBRANCH   4   9
BRANCH   6  29
HETATM   29  C   UNL     1     -12.059  12.903  64.798  1.00  0.00    -0.422 C  
HETATM   30  O   UNL     1     -13.071  12.249  64.552  1.00  0.00    -0.791 OA 
HETATM   31  C   UNL     1     -12.028  14.395  64.572  1.00  0.00    -0.487 C  
ENDBRANCH   6  29
ENDBRANCH   2   3
TORSDOF 8
ENDMDL
MODEL       39
REMARK 921   NORMALIZED FREE ENERGY PREDICTED BY IDOCK:   -6.39 KCAL/MOL
REMARK 922        TOTAL FREE ENERGY PREDICTED BY IDOCK:  -10.17 KCAL/MOL
REMARK 923 INTER-LIGAND FREE ENERGY PREDICTED BY IDOCK:   -9.05 KCAL/MOL
REMARK 924 INTRA-LIGAND FREE ENERGY PREDICTED BY IDOCK:   -1.12 KCAL/MOL
REMARK 927      BINDING AFFINITY PREDICTED BY RF-SCORE:    0.00 PKD
ROOT
HETATM    1  C   UNL     1     -10.815   6.434  67.204  1.00  0.00    -0.393 C  
HETATM    2  O   UNL     1     -10.239   7.732  67.179  1.00  0.00    -0.234 OA 
ENDROOT
BRANCH   2   3
HETATM    3  C   UNL     1     -10.572   8.591  68.196  1.00  0.00    -0.124 A  
HETATM    4  C   UNL     1     -10.758   9.936  67.828  1.00  0.00    -0.277 A  
HETATM    5  C   UNL     1     -11.098  10.878  68.802  1.00  0.00    -0.310 A  
HETATM    6  C   UNL     1     -11.092   9.158  70.503  1.00  0.00    -0.308 A  
HETATM    7  C   UNL     1     -10.754   8.208  69.530  1.00  0.00    -0.180 A  
HETATM    8  C   UNL     1     -11.276  10.489  70.132  1.00  0.00    -0.389 A  
BRANCH   4   9
HETATM    9  O   UNL     1     -10.546  10.252  66.511  1.00  0.00    -0.207 OA 
BRANCH   9  10
HETATM   10  C   UNL     1      -9.549  11.228  66.210  1.00  0.00    -0.209 C  
BRANCH  10  11
HETATM   11  C   UNL     1      -9.978  12.169  65.078  1.00  0.00    -0.242 C  
BRANCH  11  12
HETATM   12  C   UNL     1     -10.889  13.329  65.521  1.00  0.00    -0.284 C  
BRANCH  12  13
HETATM   13  N   UNL     1     -10.458  13.910  66.797  1.00  0.00    -0.269 NA 
HETATM   14  C   UNL     1     -11.537  14.606  67.508  1.00  0.00    -0.375 C  
HETATM   15  C   UNL     1     -11.077  15.003  68.925  1.00  0.00    -0.274 C  
HETATM   16  C   UNL     1      -9.726  15.748  68.947  1.00  0.00    -0.225 C  
HETATM   17  C   UNL     1      -8.728  14.966  68.076  1.00  0.00    -0.165 C  
HETATM   18  C   UNL     1      -9.281  14.765  66.672  1.00  0.00    -0.275 C  
BRANCH  16  19
HETATM   19  C   UNL     1      -9.813  17.189  68.517  1.00  0.00    -0.297 A  
HETATM   20  N   UNL     1     -10.976  17.721  68.114  1.00  0.00    -0.179 NA 
HETATM   21  O   UNL     1     -10.675  18.977  67.628  1.00  0.00    -0.443 OA 
HETATM   22  C   UNL     1      -9.340  19.205  67.756  1.00  0.00    -0.305 A  
HETATM   23  C   UNL     1      -8.749  18.132  68.386  1.00  0.00    -0.302 A  
HETATM   24  C   UNL     1      -7.369  18.186  68.654  1.00  0.00    -0.295 A  
HETATM   25  C   UNL     1      -6.651  19.307  68.210  1.00  0.00    -0.278 A  
HETATM   26  C   UNL     1      -7.298  20.344  67.540  1.00  0.00    -0.318 A  
HETATM   27  C   UNL     1      -8.670  20.341  67.314  1.00  0.00    -0.441 A  
HETATM   28  F   UNL     1      -6.570  21.377  67.095  1.00  0.00    -0.378 F  
ENDBRANCH  16  19
ENDBRANCH  12  13
ENDBRANCH  11  12
ENDBRANCH  10  11
ENDBRANCH   9  10
ENDBRANCH   4   9
BRANCH   6  29
HETATM   29  C   UNL     1     -11.243   8.699  71.911  1.00  0.00    -0.343 C  
HETATM   30  O   UNL     1     -12.364   8.657  72.415  1.00  0.00    -0.379 OA 
HETATM   31  C   UNL     1     -10.031   8.232  72.680  1.00  0.00    -0.357 C  
ENDBRANCH   6  29
ENDBRANCH   2   3
TORSDOF 8
ENDMDL
MODEL       40
REMARK 921   NORMALIZED FREE ENERGY PREDICTED BY IDOCK:   -6.39 KCAL/MOL
REMARK 922        TOTAL FREE ENERGY PREDICTED BY IDOCK:  -10.17 KCAL/MOL
REMARK 923 INTER-LIGAND FREE ENERGY PREDICTED BY IDOCK:   -9.93 KCAL/MOL
REMARK 924 INTRA-LIGAND FREE ENERGY PREDICTED BY IDOCK:   -0.23 KCAL/MOL
REMARK 927      BINDING AFFINITY PREDICTED BY RF-SCORE:    0.00 PKD
ROOT
HETATM    1  C   UNL     1     -12.381  12.713  63.585  1.00  0.00    -0.492 C  
HETATM    2  O   UNL     1     -12.794  12.457  64.919  1.00  0.00    -0.711 OA 
ENDROOT
BRANCH   2   3
HETATM    3  C   UNL     1     -11.948  12.844  65.928  1.00  0.00    -0.448 A  
HETATM    4  C   UNL     1     -10.853  11.994  66.170  1.00  0.00    -0.286 A  
HETATM    5  C   UNL     1      -9.942  12.311  67.180  1.00  0.00    -0.213 A  
HETATM    6  C   UNL     1     -11.182  14.323  67.699  1.00  0.00    -0.321 A  
HETATM    7  C   UNL     1     -12.097  14.011  66.685  1.00  0.00    -0.487 A  
HETATM    8  C   UNL     1     -10.098  13.477  67.934  1.00  0.00    -0.248 A  
BRANCH   4   9
HETATM    9  O   UNL     1     -10.773  10.856  65.409  1.00  0.00    -0.219 OA 
BRANCH   9  10
HETATM   10  C   UNL     1      -9.496  10.495  64.881  1.00  0.00    -0.252 C  
BRANCH  10  11
HETATM   11  C   UNL     1      -9.065   9.088  65.311  1.00  0.00    -0.226 C  
BRANCH  11  12
HETATM   12  C   UNL     1      -8.558   8.990  66.762  1.00  0.00    -0.123 C  
BRANCH  12  13
HETATM   13  N   UNL     1      -9.149   7.853  67.476  1.00  0.00    -0.133 NA 
HETATM   14  C   UNL     1     -10.610   7.785  67.343  1.00  0.00    -0.275 C  
HETATM   15  C   UNL     1     -11.140   6.461  67.930  1.00  0.00    -0.370 C  
HETATM   16  C   UNL     1     -10.623   6.168  69.353  1.00  0.00    -0.349 C  
HETATM   17  C   UNL     1      -9.100   6.384  69.368  1.00  0.00    -0.140 C  
HETATM   18  C   UNL     1      -8.750   7.783  68.878  1.00  0.00    -0.135 C  
BRANCH  16  19
HETATM   19  C   UNL     1     -11.300   6.974  70.431  1.00  0.00    -0.310 A  
HETATM   20  N   UNL     1     -11.887   6.373  71.476  1.00  0.00    -0.318 NA 
HETATM   21  O   UNL     1     -12.555   7.366  72.163  1.00  0.00    -0.247 OA 
HETATM   22  C   UNL     1     -12.354   8.561  71.543  1.00  0.00    -0.314 A  
HETATM   23  C   UNL     1     -11.500   8.386  70.476  1.00  0.00    -0.189 A  
HETATM   24  C   UNL     1     -11.127   9.513  69.722  1.00  0.00    -0.216 A  
HETATM   25  C   UNL     1     -11.694  10.752  70.058  1.00  0.00    -0.417 A  
HETATM   26  C   UNL     1     -12.586  10.860  71.123  1.00  0.00    -0.428 A  
HETATM   27  C   UNL     1     -12.926   9.771  71.919  1.00  0.00    -0.535 A  
HETATM   28  F   UNL     1     -13.138  12.052  71.385  1.00  0.00    -0.453 F  
ENDBRANCH  16  19
ENDBRANCH  12  13
ENDBRANCH  11  12
ENDBRANCH  10  11
ENDBRANCH   9  10
ENDBRANCH   4   9
BRANCH   6  29
HETATM   29  C   UNL     1     -11.407  15.562  68.494  1.00  0.00    -0.351 C  
HETATM   30  O   UNL     1     -11.159  16.655  67.989  1.00  0.00    -0.343 OA 
HETATM   31  C   UNL     1     -11.995  15.465  69.879  1.00  0.00    -0.384 C  
ENDBRANCH   6  29
ENDBRANCH   2   3
TORSDOF 8
ENDMDL
MODEL       41
REMARK 921   NORMALIZED FREE ENERGY PREDICTED BY IDOCK:   -6.38 KCAL/MOL
REMARK 922        TOTAL FREE ENERGY PREDICTED BY IDOCK:  -10.16 KCAL/MOL
REMARK 923 INTER-LIGAND FREE ENERGY PREDICTED BY IDOCK:   -8.74 KCAL/MOL
REMARK 924 INTRA-LIGAND FREE ENERGY PREDICTED BY IDOCK:   -1.42 KCAL/MOL
REMARK 927      BINDING AFFINITY PREDICTED BY RF-SCORE:    0.00 PKD
ROOT
HETATM    1  C   UNL     1     -12.190  10.885  69.368  1.00  0.00    -0.222 C  
HETATM    2  O   UNL     1     -12.039  11.298  68.017  1.00  0.00    -0.638 OA 
ENDROOT
BRANCH   2   3
HETATM    3  C   UNL     1     -11.865  12.638  67.783  1.00  0.00    -0.323 A  
HETATM    4  C   UNL     1     -11.989  13.049  66.443  1.00  0.00    -0.402 A  
HETATM    5  C   UNL     1     -11.824  14.397  66.115  1.00  0.00    -0.391 A  
HETATM    6  C   UNL     1     -11.436  14.940  68.440  1.00  0.00    -0.338 A  
HETATM    7  C   UNL     1     -11.603  13.590  68.775  1.00  0.00    -0.362 A  
HETATM    8  C   UNL     1     -11.561  15.341  67.111  1.00  0.00    -0.130 A  
BRANCH   4   9
HETATM    9  O   UNL     1     -12.226  12.068  65.515  1.00  0.00    -0.483 OA 
BRANCH   9  10
HETATM   10  C   UNL     1     -11.543  12.152  64.264  1.00  0.00    -0.370 C  
BRANCH  10  11
HETATM   11  C   UNL     1     -10.050  11.824  64.392  1.00  0.00    -0.319 C  
BRANCH  11  12
HETATM   12  C   UNL     1      -9.702  10.340  64.174  1.00  0.00    -0.291 C  
BRANCH  12  13
HETATM   13  N   UNL     1      -8.910   9.793  65.281  1.00  0.00    -0.162 NA 
HETATM   14  C   UNL     1      -8.771   8.332  65.224  1.00  0.00    -0.086 C  
HETATM   15  C   UNL     1      -7.759   7.849  66.283  1.00  0.00    -0.092 C  
HETATM   16  C   UNL     1      -8.036   8.401  67.696  1.00  0.00    -0.118 C  
HETATM   17  C   UNL     1      -8.269   9.917  67.586  1.00  0.00    -0.114 C  
HETATM   18  C   UNL     1      -9.383  10.221  66.594  1.00  0.00    -0.161 C  
BRANCH  16  19
HETATM   19  C   UNL     1      -9.179   7.723  68.407  1.00  0.00    -0.137 A  
HETATM   20  N   UNL     1      -9.944   6.818  67.778  1.00  0.00    -0.132 NA 
HETATM   21  O   UNL     1     -10.987   6.536  68.637  1.00  0.00    -0.278 OA 
HETATM   22  C   UNL     1     -10.837   7.253  69.783  1.00  0.00    -0.235 A  
HETATM   23  C   UNL     1      -9.663   7.971  69.726  1.00  0.00    -0.176 A  
HETATM   24  C   UNL     1      -9.298   8.753  70.838  1.00  0.00    -0.266 A  
HETATM   25  C   UNL     1     -10.181   8.810  71.926  1.00  0.00    -0.415 A  
HETATM   26  C   UNL     1     -11.377   8.094  71.909  1.00  0.00    -0.296 A  
HETATM   27  C   UNL     1     -11.733   7.269  70.847  1.00  0.00    -0.348 A  
HETATM   28  F   UNL     1     -12.213   8.208  72.950  1.00  0.00    -0.383 F  
ENDBRANCH  16  19
ENDBRANCH  12  13
ENDBRANCH  11  12
ENDBRANCH  10  11
ENDBRANCH   9  10
ENDBRANCH   4   9
BRANCH   6  29
HETATM   29  C   UNL     1     -11.128  15.903  69.533  1.00  0.00    -0.315 C  
HETATM   30  O   UNL     1     -10.288  16.781  69.345  1.00  0.00    -0.302 OA 
HETATM   31  C   UNL     1     -11.894  15.831  70.831  1.00  0.00    -0.451 C  
ENDBRANCH   6  29
ENDBRANCH   2   3
TORSDOF 8
ENDMDL
MODEL       42
REMARK 921   NORMALIZED FREE ENERGY PREDICTED BY IDOCK:   -6.36 KCAL/MOL
REMARK 922        TOTAL FREE ENERGY PREDICTED BY IDOCK:  -10.12 KCAL/MOL
REMARK 923 INTER-LIGAND FREE ENERGY PREDICTED BY IDOCK:   -9.18 KCAL/MOL
REMARK 924 INTRA-LIGAND FREE ENERGY PREDICTED BY IDOCK:   -0.94 KCAL/MOL
REMARK 927      BINDING AFFINITY PREDICTED BY RF-SCORE:    0.00 PKD
ROOT
HETATM    1  C   UNL     1     -12.892  10.357  71.300  1.00  0.00    -0.433 C  
HETATM    2  O   UNL     1     -11.562  10.074  70.889  1.00  0.00    -0.320 OA 
ENDROOT
BRANCH   2   3
HETATM    3  C   UNL     1     -11.139   8.772  70.974  1.00  0.00    -0.270 A  
HETATM    4  C   UNL     1     -10.666   8.200  69.778  1.00  0.00    -0.229 A  
HETATM    5  C   UNL     1     -10.217   6.878  69.774  1.00  0.00    -0.210 A  
HETATM    6  C   UNL     1     -10.681   6.689  72.141  1.00  0.00    -0.246 A  
HETATM    7  C   UNL     1     -11.129   8.016  72.151  1.00  0.00    -0.372 A  
HETATM    8  C   UNL     1     -10.212   6.128  70.953  1.00  0.00    -0.250 A  
BRANCH   4   9
HETATM    9  O   UNL     1     -10.719   8.985  68.655  1.00  0.00    -0.188 OA 
BRANCH   9  10
HETATM   10  C   UNL     1      -9.548   9.069  67.843  1.00  0.00    -0.147 C  
BRANCH  10  11
HETATM   11  C   UNL     1      -8.742  10.345  68.113  1.00  0.00    -0.125 C  
BRANCH  11  12
HETATM   12  C   UNL     1      -8.779  11.378  66.972  1.00  0.00    -0.160 C  
BRANCH  12  13
HETATM   13  N   UNL     1      -9.995  12.198  67.012  1.00  0.00    -0.201 NA 
HETATM   14  C   UNL     1      -9.930  13.369  66.129  1.00  0.00    -0.294 C  
HETATM   15  C   UNL     1     -11.306  14.061  66.055  1.00  0.00    -0.328 C  
HETATM   16  C   UNL     1     -11.926  14.348  67.438  1.00  0.00    -0.407 C  
HETATM   17  C   UNL     1     -11.826  13.070  68.287  1.00  0.00    -0.381 C  
HETATM   18  C   UNL     1     -10.385  12.585  68.364  1.00  0.00    -0.230 C  
BRANCH  16  19
HETATM   19  C   UNL     1     -11.316  15.527  68.151  1.00  0.00    -0.345 A  
HETATM   20  N   UNL     1     -11.386  15.637  69.486  1.00  0.00    -0.301 NA 
HETATM   21  O   UNL     1     -10.903  16.893  69.792  1.00  0.00    -0.281 OA 
HETATM   22  C   UNL     1     -10.527  17.526  68.647  1.00  0.00    -0.338 A  
HETATM   23  C   UNL     1     -10.696  16.676  67.576  1.00  0.00    -0.278 A  
HETATM   24  C   UNL     1     -10.324  17.126  66.296  1.00  0.00    -0.315 A  
HETATM   25  C   UNL     1      -9.856  18.442  66.166  1.00  0.00    -0.279 A  
HETATM   26  C   UNL     1      -9.746  19.270  67.282  1.00  0.00    -0.328 A  
HETATM   27  C   UNL     1     -10.053  18.831  68.566  1.00  0.00    -0.444 A  
HETATM   28  F   UNL     1      -9.335  20.534  67.110  1.00  0.00    -0.468 F  
ENDBRANCH  16  19
ENDBRANCH  12  13
ENDBRANCH  11  12
ENDBRANCH  10  11
ENDBRANCH   9  10
ENDBRANCH   4   9
BRANCH   6  29
HETATM   29  C   UNL     1     -10.722   5.923  73.417  1.00  0.00    -0.267 C  
HETATM   30  O   UNL     1     -10.385   6.474  74.463  1.00  0.00    -0.341 OA 
HETATM   31  C   UNL     1     -11.236   4.504  73.421  1.00  0.00    -0.404 C  
ENDBRANCH   6  29
ENDBRANCH   2   3
TORSDOF 8
ENDMDL
MODEL       43
REMARK 921   NORMALIZED FREE ENERGY PREDICTED BY IDOCK:   -6.35 KCAL/MOL
REMARK 922        TOTAL FREE ENERGY PREDICTED BY IDOCK:  -10.12 KCAL/MOL
REMARK 923 INTER-LIGAND FREE ENERGY PREDICTED BY IDOCK:   -9.60 KCAL/MOL
REMARK 924 INTRA-LIGAND FREE ENERGY PREDICTED BY IDOCK:   -0.52 KCAL/MOL
REMARK 927      BINDING AFFINITY PREDICTED BY RF-SCORE:    0.00 PKD
ROOT
HETATM    1  C   UNL     1     -12.534  12.061  63.458  1.00  0.00    -0.540 C  
HETATM    2  O   UNL     1     -13.004  12.511  64.721  1.00  0.00    -0.827 OA 
ENDROOT
BRANCH   2   3
HETATM    3  C   UNL     1     -12.195  13.366  65.427  1.00  0.00    -0.452 A  
HETATM    4  C   UNL     1     -11.715  12.882  66.657  1.00  0.00    -0.390 A  
HETATM    5  C   UNL     1     -10.887  13.688  67.442  1.00  0.00    -0.282 A  
HETATM    6  C   UNL     1     -10.989  15.447  65.784  1.00  0.00    -0.311 A  
HETATM    7  C   UNL     1     -11.817  14.641  64.992  1.00  0.00    -0.377 A  
HETATM    8  C   UNL     1     -10.515  14.961  67.002  1.00  0.00    -0.272 A  
BRANCH   4   9
HETATM    9  O   UNL     1     -12.136  11.634  67.038  1.00  0.00    -0.547 OA 
BRANCH   9  10
HETATM   10  C   UNL     1     -11.359  10.934  68.010  1.00  0.00    -0.312 C  
BRANCH  10  11
HETATM   11  C   UNL     1     -11.912  11.105  69.430  1.00  0.00    -0.420 C  
BRANCH  11  12
HETATM   12  C   UNL     1     -11.132  10.339  70.515  1.00  0.00    -0.306 C  
BRANCH  12  13
HETATM   13  N   UNL     1     -11.515   8.925  70.573  1.00  0.00    -0.238 NA 
HETATM   14  C   UNL     1     -12.350   8.599  71.735  1.00  0.00    -0.346 C  
HETATM   15  C   UNL     1     -12.890   7.160  71.621  1.00  0.00    -0.420 C  
HETATM   16  C   UNL     1     -11.797   6.114  71.320  1.00  0.00    -0.141 C  
HETATM   17  C   UNL     1     -10.936   6.637  70.157  1.00  0.00    -0.358 C  
HETATM   18  C   UNL     1     -10.376   8.016  70.479  1.00  0.00    -0.202 C  
BRANCH  16  19
HETATM   19  C   UNL     1     -10.947   5.754  72.510  1.00  0.00    -0.263 A  
HETATM   20  N   UNL     1     -10.901   6.547  73.591  1.00  0.00    -0.209 NA 
HETATM   21  O   UNL     1      -9.910   6.032  74.402  1.00  0.00    -0.202 OA 
HETATM   22  C   UNL     1      -9.377   4.924  73.819  1.00  0.00    -0.128 A  
HETATM   23  C   UNL     1     -10.049   4.653  72.647  1.00  0.00    -0.224 A  
HETATM   24  C   UNL     1      -9.678   3.516  71.906  1.00  0.00    -0.234 A  
HETATM   25  C   UNL     1      -8.598   2.748  72.369  1.00  0.00    -0.085 A  
HETATM   26  C   UNL     1      -7.930   3.096  73.541  1.00  0.00    -0.069 A  
HETATM   27  C   UNL     1      -8.314   4.182  74.321  1.00  0.00    -0.091 A  
HETATM   28  F   UNL     1      -6.878   2.361  73.926  1.00  0.00    -0.023 F  
ENDBRANCH  16  19
ENDBRANCH  12  13
ENDBRANCH  11  12
ENDBRANCH  10  11
ENDBRANCH   9  10
ENDBRANCH   4   9
BRANCH   6  29
HETATM   29  C   UNL     1     -10.644  16.807  65.284  1.00  0.00    -0.168 C  
HETATM   30  O   UNL     1     -11.184  17.230  64.264  1.00  0.00    -1.013 OA 
HETATM   31  C   UNL     1      -9.688  17.671  66.069  1.00  0.00    -0.155 C  
ENDBRANCH   6  29
ENDBRANCH   2   3
TORSDOF 8
ENDMDL
MODEL       44
REMARK 921   NORMALIZED FREE ENERGY PREDICTED BY IDOCK:   -6.32 KCAL/MOL
REMARK 922        TOTAL FREE ENERGY PREDICTED BY IDOCK:  -10.07 KCAL/MOL
REMARK 923 INTER-LIGAND FREE ENERGY PREDICTED BY IDOCK:   -9.36 KCAL/MOL
REMARK 924 INTRA-LIGAND FREE ENERGY PREDICTED BY IDOCK:   -0.72 KCAL/MOL
REMARK 927      BINDING AFFINITY PREDICTED BY RF-SCORE:    0.00 PKD
ROOT
HETATM    1  C   UNL     1      -9.830   4.629  66.889  1.00  0.00    -0.213 C  
HETATM    2  O   UNL     1     -10.836   5.630  66.955  1.00  0.00    -0.275 OA 
ENDROOT
BRANCH   2   3
HETATM    3  C   UNL     1     -10.793   6.499  68.016  1.00  0.00    -0.295 A  
HETATM    4  C   UNL     1     -10.463   7.831  67.706  1.00  0.00    -0.211 A  
HETATM    5  C   UNL     1     -10.395   8.782  68.726  1.00  0.00    -0.234 A  
HETATM    6  C   UNL     1     -11.001   7.105  70.362  1.00  0.00    -0.290 A  
HETATM    7  C   UNL     1     -11.074   6.148  69.341  1.00  0.00    -0.479 A  
HETATM    8  C   UNL     1     -10.674   8.424  70.048  1.00  0.00    -0.236 A  
BRANCH   4   9
HETATM    9  O   UNL     1     -10.180   8.108  66.393  1.00  0.00    -0.239 OA 
BRANCH   9  10
HETATM   10  C   UNL     1      -9.105   9.007  66.117  1.00  0.00    -0.199 C  
BRANCH  10  11
HETATM   11  C   UNL     1      -9.577  10.274  65.394  1.00  0.00    -0.310 C  
BRANCH  11  12
HETATM   12  C   UNL     1      -9.062  11.590  66.007  1.00  0.00    -0.198 C  
BRANCH  12  13
HETATM   13  N   UNL     1     -10.148  12.541  66.261  1.00  0.00    -0.245 NA 
HETATM   14  C   UNL     1     -10.039  13.768  65.463  1.00  0.00    -0.284 C  
HETATM   15  C   UNL     1     -11.313  14.623  65.615  1.00  0.00    -0.338 C  
HETATM   16  C   UNL     1     -11.722  14.861  67.083  1.00  0.00    -0.292 C  
HETATM   17  C   UNL     1     -11.688  13.512  67.820  1.00  0.00    -0.394 C  
HETATM   18  C   UNL     1     -10.322  12.854  67.676  1.00  0.00    -0.218 C  
BRANCH  16  19
HETATM   19  C   UNL     1     -10.886  15.893  67.794  1.00  0.00    -0.324 A  
HETATM   20  N   UNL     1     -10.440  15.680  69.041  1.00  0.00    -0.217 NA 
HETATM   21  O   UNL     1      -9.876  16.870  69.454  1.00  0.00    -0.185 OA 
HETATM   22  C   UNL     1      -9.966  17.787  68.452  1.00  0.00    -0.362 A  
HETATM   23  C   UNL     1     -10.532  17.199  67.342  1.00  0.00    -0.334 A  
HETATM   24  C   UNL     1     -10.677  17.970  66.174  1.00  0.00    -0.142 A  
HETATM   25  C   UNL     1     -10.294  19.319  66.219  1.00  0.00    -0.566 A  
HETATM   26  C   UNL     1      -9.765  19.869  67.385  1.00  0.00    -0.389 A  
HETATM   27  C   UNL     1      -9.558  19.114  68.535  1.00  0.00    -0.454 A  
HETATM   28  F   UNL     1      -9.450  21.171  67.400  1.00  0.00    -0.565 F  
ENDBRANCH  16  19
ENDBRANCH  12  13
ENDBRANCH  11  12
ENDBRANCH  10  11
ENDBRANCH   9  10
ENDBRANCH   4   9
BRANCH   6  29
HETATM   29  C   UNL     1     -11.279   6.668  71.757  1.00  0.00    -0.260 C  
HETATM   30  O   UNL     1     -11.491   5.479  71.987  1.00  0.00    -0.186 OA 
HETATM   31  C   UNL     1     -11.236   7.676  72.879  1.00  0.00    -0.426 C  
ENDBRANCH   6  29
ENDBRANCH   2   3
TORSDOF 8
ENDMDL
MODEL       45
REMARK 921   NORMALIZED FREE ENERGY PREDICTED BY IDOCK:   -6.31 KCAL/MOL
REMARK 922        TOTAL FREE ENERGY PREDICTED BY IDOCK:  -10.06 KCAL/MOL
REMARK 923 INTER-LIGAND FREE ENERGY PREDICTED BY IDOCK:   -8.58 KCAL/MOL
REMARK 924 INTRA-LIGAND FREE ENERGY PREDICTED BY IDOCK:   -1.49 KCAL/MOL
REMARK 927      BINDING AFFINITY PREDICTED BY RF-SCORE:    0.00 PKD
ROOT
HETATM    1  C   UNL     1     -11.936  11.036  69.288  1.00  0.00    -0.339 C  
HETATM    2  O   UNL     1     -12.260  12.111  68.419  1.00  0.00    -0.324 OA 
ENDROOT
BRANCH   2   3
HETATM    3  C   UNL     1     -12.095  13.385  68.903  1.00  0.00    -0.252 A  
HETATM    4  C   UNL     1     -11.801  14.373  67.945  1.00  0.00    -0.349 A  
HETATM    5  C   UNL     1     -11.616  15.696  68.351  1.00  0.00    -0.358 A  
HETATM    6  C   UNL     1     -12.035  15.074  70.652  1.00  0.00    -0.370 A  
HETATM    7  C   UNL     1     -12.224  13.745  70.249  1.00  0.00    -0.429 A  
HETATM    8  C   UNL     1     -11.744  16.048  69.698  1.00  0.00    -0.278 A  
BRANCH   4   9
HETATM    9  O   UNL     1     -11.668  13.954  66.647  1.00  0.00    -0.354 OA 
BRANCH   9  10
HETATM   10  C   UNL     1     -10.492  14.343  65.936  1.00  0.00    -0.308 C  
BRANCH  10  11
HETATM   11  C   UNL     1      -9.737  13.140  65.357  1.00  0.00    -0.028 C  
BRANCH  11  12
HETATM   12  C   UNL     1     -10.477  11.796  65.491  1.00  0.00    -0.267 C  
BRANCH  12  13
HETATM   13  N   UNL     1      -9.618  10.750  66.055  1.00  0.00    -0.192 NA 
HETATM   14  C   UNL     1     -10.332   9.493  66.310  1.00  0.00    -0.156 C  
HETATM   15  C   UNL     1      -9.337   8.380  66.696  1.00  0.00    -0.245 C  
HETATM   16  C   UNL     1      -8.360   8.789  67.818  1.00  0.00    -0.118 C  
HETATM   17  C   UNL     1      -7.774  10.167  67.470  1.00  0.00    -0.091 C  
HETATM   18  C   UNL     1      -8.885  11.183  67.241  1.00  0.00    -0.144 C  
BRANCH  16  19
HETATM   19  C   UNL     1      -8.972   8.787  69.194  1.00  0.00    -0.137 A  
HETATM   20  N   UNL     1      -8.506   9.596  70.158  1.00  0.00    -0.197 NA 
HETATM   21  O   UNL     1      -9.151   9.219  71.318  1.00  0.00    -0.264 OA 
HETATM   22  C   UNL     1     -10.013   8.202  71.049  1.00  0.00    -0.187 A  
HETATM   23  C   UNL     1      -9.999   7.933  69.698  1.00  0.00    -0.191 A  
HETATM   24  C   UNL     1     -10.857   6.935  69.201  1.00  0.00    -0.262 A  
HETATM   25  C   UNL     1     -11.642   6.220  70.119  1.00  0.00    -0.385 A  
HETATM   26  C   UNL     1     -11.583   6.509  71.481  1.00  0.00    -0.315 A  
HETATM   27  C   UNL     1     -10.786   7.529  71.989  1.00  0.00    -0.264 A  
HETATM   28  F   UNL     1     -12.316   5.775  72.328  1.00  0.00    -0.339 F  
ENDBRANCH  16  19
ENDBRANCH  12  13
ENDBRANCH  11  12
ENDBRANCH  10  11
ENDBRANCH   9  10
ENDBRANCH   4   9
BRANCH   6  29
HETATM   29  C   UNL     1     -12.154  15.394  72.101  1.00  0.00    -0.407 C  
HETATM   30  O   UNL     1     -11.648  16.428  72.534  1.00  0.00    -0.429 OA 
HETATM   31  C   UNL     1     -12.945  14.482  73.005  1.00  0.00    -0.596 C  
ENDBRANCH   6  29
ENDBRANCH   2   3
TORSDOF 8
ENDMDL
MODEL       46
REMARK 921   NORMALIZED FREE ENERGY PREDICTED BY IDOCK:   -6.29 KCAL/MOL
REMARK 922        TOTAL FREE ENERGY PREDICTED BY IDOCK:  -10.03 KCAL/MOL
REMARK 923 INTER-LIGAND FREE ENERGY PREDICTED BY IDOCK:   -8.89 KCAL/MOL
REMARK 924 INTRA-LIGAND FREE ENERGY PREDICTED BY IDOCK:   -1.13 KCAL/MOL
REMARK 927      BINDING AFFINITY PREDICTED BY RF-SCORE:    0.00 PKD
ROOT
HETATM    1  C   UNL     1     -10.428   9.348  67.680  1.00  0.00    -0.268 C  
HETATM    2  O   UNL     1     -10.796  10.383  66.780  1.00  0.00    -0.207 OA 
ENDROOT
BRANCH   2   3
HETATM    3  C   UNL     1     -10.208  10.380  65.540  1.00  0.00    -0.246 A  
HETATM    4  C   UNL     1     -10.765  11.260  64.593  1.00  0.00    -0.303 A  
HETATM    5  C   UNL     1     -10.229  11.319  63.305  1.00  0.00    -0.417 A  
HETATM    6  C   UNL     1      -8.575   9.653  63.891  1.00  0.00    -0.217 A  
HETATM    7  C   UNL     1      -9.107   9.592  65.186  1.00  0.00    -0.279 A  
HETATM    8  C   UNL     1      -9.130  10.528  62.958  1.00  0.00    -0.281 A  
BRANCH   4   9
HETATM    9  O   UNL     1     -11.854  11.990  64.994  1.00  0.00    -0.318 OA 
BRANCH   9  10
HETATM   10  C   UNL     1     -12.221  13.126  64.212  1.00  0.00    -0.396 C  
BRANCH  10  11
HETATM   11  C   UNL     1     -12.239  14.419  65.036  1.00  0.00    -0.418 C  
BRANCH  11  12
HETATM   12  C   UNL     1     -10.916  15.207  65.018  1.00  0.00    -0.430 C  
BRANCH  12  13
HETATM   13  N   UNL     1     -10.321  15.313  66.354  1.00  0.00    -0.279 NA 
HETATM   14  C   UNL     1     -10.166  14.015  67.022  1.00  0.00    -0.261 C  
HETATM   15  C   UNL     1      -9.347  14.173  68.318  1.00  0.00    -0.203 C  
HETATM   16  C   UNL     1      -9.863  15.297  69.240  1.00  0.00    -0.255 C  
HETATM   17  C   UNL     1     -10.082  16.559  68.388  1.00  0.00    -0.255 C  
HETATM   18  C   UNL     1     -11.013  16.264  67.219  1.00  0.00    -0.144 C  
BRANCH  16  19
HETATM   19  C   UNL     1     -11.106  14.936  70.011  1.00  0.00    -0.232 A  
HETATM   20  N   UNL     1     -11.834  15.879  70.628  1.00  0.00    -0.374 NA 
HETATM   21  O   UNL     1     -12.777  15.204  71.376  1.00  0.00    -0.316 OA 
HETATM   22  C   UNL     1     -12.629  13.864  71.194  1.00  0.00    -0.370 A  
HETATM   23  C   UNL     1     -11.628  13.634  70.275  1.00  0.00    -0.162 A  
HETATM   24  C   UNL     1     -11.342  12.306  69.911  1.00  0.00    -0.084 A  
HETATM   25  C   UNL     1     -12.050  11.277  70.550  1.00  0.00    -0.481 A  
HETATM   26  C   UNL     1     -13.023  11.570  71.504  1.00  0.00    -0.380 A  
HETATM   27  C   UNL     1     -13.364  12.876  71.839  1.00  0.00    -0.530 A  
HETATM   28  F   UNL     1     -13.647  10.558  72.122  1.00  0.00    -0.478 F  
ENDBRANCH  16  19
ENDBRANCH  12  13
ENDBRANCH  11  12
ENDBRANCH  10  11
ENDBRANCH   9  10
ENDBRANCH   4   9
BRANCH   6  29
HETATM   29  C   UNL     1      -7.422   8.770  63.562  1.00  0.00    -0.108 C  
HETATM   30  O   UNL     1      -7.552   7.550  63.650  1.00  0.00    -0.104 OA 
HETATM   31  C   UNL     1      -6.134   9.377  63.063  1.00  0.00    -0.094 C  
ENDBRANCH   6  29
ENDBRANCH   2   3
TORSDOF 8
ENDMDL
MODEL       47
REMARK 921   NORMALIZED FREE ENERGY PREDICTED BY IDOCK:   -6.28 KCAL/MOL
REMARK 922        TOTAL FREE ENERGY PREDICTED BY IDOCK:  -10.02 KCAL/MOL
REMARK 923 INTER-LIGAND FREE ENERGY PREDICTED BY IDOCK:   -9.24 KCAL/MOL
REMARK 924 INTRA-LIGAND FREE ENERGY PREDICTED BY IDOCK:   -0.77 KCAL/MOL
REMARK 927      BINDING AFFINITY PREDICTED BY RF-SCORE:    0.00 PKD
ROOT
HETATM    1  C   UNL     1     -11.572  12.154  65.732  1.00  0.00    -0.355 C  
HETATM    2  O   UNL     1     -12.072  12.682  66.951  1.00  0.00    -0.490 OA 
ENDROOT
BRANCH   2   3
HETATM    3  C   UNL     1     -11.687  13.954  67.293  1.00  0.00    -0.386 A  
HETATM    4  C   UNL     1     -11.695  14.250  68.669  1.00  0.00    -0.345 A  
HETATM    5  C   UNL     1     -11.319  15.522  69.105  1.00  0.00    -0.333 A  
HETATM    6  C   UNL     1     -10.906  16.208  66.822  1.00  0.00    -0.162 A  
HETATM    7  C   UNL     1     -11.278  14.932  66.379  1.00  0.00    -0.331 A  
HETATM    8  C   UNL     1     -10.914  16.495  68.186  1.00  0.00    -0.336 A  
BRANCH   4   9
HETATM    9  O   UNL     1     -12.124  13.257  69.512  1.00  0.00    -0.303 OA 
BRANCH   9  10
HETATM   10  C   UNL     1     -12.444  13.615  70.856  1.00  0.00    -0.371 C  
BRANCH  10  11
HETATM   11  C   UNL     1     -12.927  12.414  71.679  1.00  0.00    -0.409 C  
BRANCH  11  12
HETATM   12  C   UNL     1     -12.941  11.078  70.913  1.00  0.00    -0.224 C  
BRANCH  12  13
HETATM   13  N   UNL     1     -11.683  10.341  71.072  1.00  0.00    -0.369 NA 
HETATM   14  C   UNL     1     -10.916  10.234  69.825  1.00  0.00    -0.289 C  
HETATM   15  C   UNL     1      -9.520   9.641  70.103  1.00  0.00    -0.298 C  
HETATM   16  C   UNL     1      -9.557   8.342  70.933  1.00  0.00    -0.196 C  
HETATM   17  C   UNL     1     -10.480   8.567  72.143  1.00  0.00    -0.412 C  
HETATM   18  C   UNL     1     -11.858   9.030  71.690  1.00  0.00    -0.360 C  
BRANCH  16  19
HETATM   19  C   UNL     1      -9.972   7.124  70.149  1.00  0.00    -0.186 A  
HETATM   20  N   UNL     1     -10.448   6.034  70.768  1.00  0.00    -0.226 NA 
HETATM   21  O   UNL     1     -10.556   5.059  69.797  1.00  0.00    -0.222 OA 
HETATM   22  C   UNL     1     -10.164   5.568  68.597  1.00  0.00    -0.193 A  
HETATM   23  C   UNL     1      -9.852   6.902  68.744  1.00  0.00    -0.149 A  
HETATM   24  C   UNL     1      -9.461   7.631  67.607  1.00  0.00    -0.165 A  
HETATM   25  C   UNL     1      -9.348   6.945  66.387  1.00  0.00    -0.183 A  
HETATM   26  C   UNL     1      -9.637   5.584  66.309  1.00  0.00    -0.156 A  
HETATM   27  C   UNL     1     -10.081   4.854  67.407  1.00  0.00    -0.196 A  
HETATM   28  F   UNL     1      -9.476   4.957  65.136  1.00  0.00    -0.158 F  
ENDBRANCH  16  19
ENDBRANCH  12  13
ENDBRANCH  11  12
ENDBRANCH  10  11
ENDBRANCH   9  10
ENDBRANCH   4   9
BRANCH   6  29
HETATM   29  C   UNL     1     -10.509  17.218  65.802  1.00  0.00    -0.229 C  
HETATM   30  O   UNL     1     -10.821  17.043  64.626  1.00  0.00    -0.855 OA 
HETATM   31  C   UNL     1      -9.789  18.472  66.233  1.00  0.00    -0.352 C  
ENDBRANCH   6  29
ENDBRANCH   2   3
TORSDOF 8
ENDMDL
MODEL       48
REMARK 921   NORMALIZED FREE ENERGY PREDICTED BY IDOCK:   -6.28 KCAL/MOL
REMARK 922        TOTAL FREE ENERGY PREDICTED BY IDOCK:  -10.01 KCAL/MOL
REMARK 923 INTER-LIGAND FREE ENERGY PREDICTED BY IDOCK:   -8.73 KCAL/MOL
REMARK 924 INTRA-LIGAND FREE ENERGY PREDICTED BY IDOCK:   -1.28 KCAL/MOL
REMARK 927      BINDING AFFINITY PREDICTED BY RF-SCORE:    0.00 PKD
ROOT
HETATM    1  C   UNL     1     -11.596  12.023  67.851  1.00  0.00    -0.337 C  
HETATM    2  O   UNL     1     -11.424  11.430  69.130  1.00  0.00    -0.242 OA 
ENDROOT
BRANCH   2   3
HETATM    3  C   UNL     1     -12.091  12.000  70.185  1.00  0.00    -0.298 A  
HETATM    4  C   UNL     1     -12.585  11.107  71.154  1.00  0.00    -0.409 A  
HETATM    5  C   UNL     1     -13.279  11.602  72.260  1.00  0.00    -0.120 A  
HETATM    6  C   UNL     1     -12.979  13.867  71.464  1.00  0.00    -0.436 A  
HETATM    7  C   UNL     1     -12.280  13.376  70.354  1.00  0.00    -0.415 A  
HETATM    8  C   UNL     1     -13.465  12.977  72.422  1.00  0.00    -0.615 A  
BRANCH   4   9
HETATM    9  O   UNL     1     -12.386   9.770  70.921  1.00  0.00    -0.300 OA 
BRANCH   9  10
HETATM   10  C   UNL     1     -12.788   8.849  71.935  1.00  0.00    -0.380 C  
BRANCH  10  11
HETATM   11  C   UNL     1     -11.610   8.036  72.484  1.00  0.00    -0.464 C  
BRANCH  11  12
HETATM   12  C   UNL     1     -11.638   6.541  72.115  1.00  0.00    -0.308 C  
BRANCH  12  13
HETATM   13  N   UNL     1     -10.729   6.231  71.006  1.00  0.00    -0.247 NA 
HETATM   14  C   UNL     1      -9.484   7.007  71.046  1.00  0.00    -0.159 C  
HETATM   15  C   UNL     1      -8.492   6.484  69.988  1.00  0.00    -0.135 C  
HETATM   16  C   UNL     1      -9.107   6.353  68.580  1.00  0.00    -0.126 C  
HETATM   17  C   UNL     1     -10.452   5.620  68.706  1.00  0.00    -0.289 C  
HETATM   18  C   UNL     1     -11.364   6.332  69.695  1.00  0.00    -0.422 C  
BRANCH  16  19
HETATM   19  C   UNL     1      -9.266   7.665  67.855  1.00  0.00    -0.136 A  
HETATM   20  N   UNL     1     -10.242   7.841  66.952  1.00  0.00    -0.287 NA 
HETATM   21  O   UNL     1      -9.996   9.061  66.356  1.00  0.00    -0.273 OA 
HETATM   22  C   UNL     1      -8.889   9.623  66.913  1.00  0.00    -0.131 A  
HETATM   23  C   UNL     1      -8.423   8.815  67.926  1.00  0.00    -0.126 A  
HETATM   24  C   UNL     1      -7.302   9.238  68.663  1.00  0.00    -0.076 A  
HETATM   25  C   UNL     1      -6.676  10.436  68.287  1.00  0.00    -0.061 A  
HETATM   26  C   UNL     1      -7.169  11.192  67.225  1.00  0.00    -0.113 A  
HETATM   27  C   UNL     1      -8.309  10.824  66.518  1.00  0.00    -0.146 A  
HETATM   28  F   UNL     1      -6.518  12.307  66.870  1.00  0.00    -0.150 F  
ENDBRANCH  16  19
ENDBRANCH  12  13
ENDBRANCH  11  12
ENDBRANCH  10  11
ENDBRANCH   9  10
ENDBRANCH   4   9
BRANCH   6  29
HETATM   29  C   UNL     1     -13.176  15.339  71.577  1.00  0.00    -0.459 C  
HETATM   30  O   UNL     1     -14.268  15.825  71.291  1.00  0.00    -0.476 OA 
HETATM   31  C   UNL     1     -12.057  16.204  72.102  1.00  0.00    -0.593 C  
ENDBRANCH   6  29
ENDBRANCH   2   3
TORSDOF 8
ENDMDL
MODEL       49
REMARK 921   NORMALIZED FREE ENERGY PREDICTED BY IDOCK:   -6.28 KCAL/MOL
REMARK 922        TOTAL FREE ENERGY PREDICTED BY IDOCK:  -10.01 KCAL/MOL
REMARK 923 INTER-LIGAND FREE ENERGY PREDICTED BY IDOCK:   -8.06 KCAL/MOL
REMARK 924 INTRA-LIGAND FREE ENERGY PREDICTED BY IDOCK:   -1.95 KCAL/MOL
REMARK 927      BINDING AFFINITY PREDICTED BY RF-SCORE:    0.00 PKD
ROOT
HETATM    1  C   UNL     1      -8.452   8.369  71.449  1.00  0.00    -0.155 C  
HETATM    2  O   UNL     1      -8.762   8.872  70.158  1.00  0.00    -0.138 OA 
ENDROOT
BRANCH   2   3
HETATM    3  C   UNL     1      -9.819   9.742  70.056  1.00  0.00    -0.251 A  
HETATM    4  C   UNL     1      -9.789  10.619  68.956  1.00  0.00    -0.205 A  
HETATM    5  C   UNL     1     -10.824  11.539  68.778  1.00  0.00    -0.258 A  
HETATM    6  C   UNL     1     -11.934  10.712  70.762  1.00  0.00    -0.477 A  
HETATM    7  C   UNL     1     -10.899   9.785  70.944  1.00  0.00    -0.399 A  
HETATM    8  C   UNL     1     -11.899  11.578  69.670  1.00  0.00    -0.421 A  
BRANCH   4   9
HETATM    9  O   UNL     1      -8.694  10.542  68.134  1.00  0.00    -0.125 OA 
BRANCH   9  10
HETATM   10  C   UNL     1      -8.812  11.074  66.814  1.00  0.00    -0.156 C  
BRANCH  10  11
HETATM   11  C   UNL     1      -9.353  10.042  65.817  1.00  0.00    -0.241 C  
BRANCH  11  12
HETATM   12  C   UNL     1      -8.444   8.817  65.609  1.00  0.00    -0.160 C  
BRANCH  12  13
HETATM   13  N   UNL     1      -9.152   7.558  65.864  1.00  0.00    -0.096 NA 
HETATM   14  C   UNL     1     -10.240   7.695  66.841  1.00  0.00    -0.294 C  
HETATM   15  C   UNL     1     -11.073   6.399  66.902  1.00  0.00    -0.346 C  
HETATM   16  C   UNL     1     -10.219   5.127  67.085  1.00  0.00    -0.254 C  
HETATM   17  C   UNL     1      -9.061   5.172  66.074  1.00  0.00    -0.149 C  
HETATM   18  C   UNL     1      -8.262   6.459  66.227  1.00  0.00    -0.118 C  
BRANCH  16  19
HETATM   19  C   UNL     1      -9.711   4.926  68.489  1.00  0.00    -0.155 A  
HETATM   20  N   UNL     1      -8.635   4.163  68.731  1.00  0.00    -0.086 NA 
HETATM   21  O   UNL     1      -8.552   4.043  70.104  1.00  0.00    -0.063 OA 
HETATM   22  C   UNL     1      -9.562   4.746  70.683  1.00  0.00    -0.185 A  
HETATM   23  C   UNL     1     -10.290   5.393  69.707  1.00  0.00    -0.375 A  
HETATM   24  C   UNL     1     -11.362   6.213  70.101  1.00  0.00    -0.433 A  
HETATM   25  C   UNL     1     -11.676   6.283  71.467  1.00  0.00    -0.329 A  
HETATM   26  C   UNL     1     -10.929   5.573  72.405  1.00  0.00    -0.255 A  
HETATM   27  C   UNL     1      -9.829   4.800  72.046  1.00  0.00    -0.234 A  
HETATM   28  F   UNL     1     -11.286   5.632  73.695  1.00  0.00    -0.255 F  
ENDBRANCH  16  19
ENDBRANCH  12  13
ENDBRANCH  11  12
ENDBRANCH  10  11
ENDBRANCH   9  10
ENDBRANCH   4   9
BRANCH   6  29
HETATM   29  C   UNL     1     -13.043  10.733  71.755  1.00  0.00    -0.468 C  
HETATM   30  O   UNL     1     -13.481  11.813  72.147  1.00  0.00    -0.446 OA 
HETATM   31  C   UNL     1     -13.656   9.436  72.219  1.00  0.00    -0.532 C  
ENDBRANCH   6  29
ENDBRANCH   2   3
TORSDOF 8
ENDMDL
MODEL       50
REMARK 921   NORMALIZED FREE ENERGY PREDICTED BY IDOCK:   -6.23 KCAL/MOL
REMARK 922        TOTAL FREE ENERGY PREDICTED BY IDOCK:   -9.94 KCAL/MOL
REMARK 923 INTER-LIGAND FREE ENERGY PREDICTED BY IDOCK:   -8.20 KCAL/MOL
REMARK 924 INTRA-LIGAND FREE ENERGY PREDICTED BY IDOCK:   -1.74 KCAL/MOL
REMARK 927      BINDING AFFINITY PREDICTED BY RF-SCORE:    0.00 PKD
ROOT
HETATM    1  C   UNL     1     -11.888  11.104  67.708  1.00  0.00    -0.015 C  
HETATM    2  O   UNL     1     -11.299  11.079  69.000  1.00  0.00    -0.228 OA 
ENDROOT
BRANCH   2   3
HETATM    3  C   UNL     1     -11.986  11.688  70.020  1.00  0.00    -0.351 A  
HETATM    4  C   UNL     1     -12.562  10.827  70.972  1.00  0.00    -0.420 A  
HETATM    5  C   UNL     1     -13.282  11.363  72.043  1.00  0.00    -0.432 A  
HETATM    6  C   UNL     1     -12.845  13.605  71.244  1.00  0.00    -0.424 A  
HETATM    7  C   UNL     1     -12.119  13.073  70.171  1.00  0.00    -0.377 A  
HETATM    8  C   UNL     1     -13.412  12.747  72.186  1.00  0.00    -0.591 A  
BRANCH   4   9
HETATM    9  O   UNL     1     -12.414   9.481  70.759  1.00  0.00    -0.237 OA 
BRANCH   9  10
HETATM   10  C   UNL     1     -11.712   8.722  71.744  1.00  0.00    -0.346 C  
BRANCH  10  11
HETATM   11  C   UNL     1     -10.210   8.637  71.453  1.00  0.00    -0.324 C  
BRANCH  11  12
HETATM   12  C   UNL     1      -9.851   7.888  70.156  1.00  0.00    -0.184 C  
BRANCH  12  13
HETATM   13  N   UNL     1      -8.835   8.599  69.373  1.00  0.00    -0.142 NA 
HETATM   14  C   UNL     1      -8.584   9.962  69.856  1.00  0.00    -0.194 C  
HETATM   15  C   UNL     1      -7.365  10.571  69.134  1.00  0.00    -0.109 C  
HETATM   16  C   UNL     1      -7.437  10.451  67.597  1.00  0.00    -0.089 C  
HETATM   17  C   UNL     1      -7.813   9.002  67.243  1.00  0.00    -0.099 C  
HETATM   18  C   UNL     1      -9.105   8.596  67.939  1.00  0.00    -0.140 C  
BRANCH  16  19
HETATM   19  C   UNL     1      -8.376  11.433  66.948  1.00  0.00    -0.159 A  
HETATM   20  N   UNL     1      -8.946  11.164  65.764  1.00  0.00    -0.201 NA 
HETATM   21  O   UNL     1      -9.587  12.323  65.376  1.00  0.00    -0.186 OA 
HETATM   22  C   UNL     1      -9.419  13.277  66.331  1.00  0.00    -0.217 A  
HETATM   23  C   UNL     1      -8.720  12.745  67.393  1.00  0.00    -0.196 A  
HETATM   24  C   UNL     1      -8.474  13.560  68.512  1.00  0.00    -0.092 A  
HETATM   25  C   UNL     1      -8.901  14.896  68.466  1.00  0.00    -0.174 A  
HETATM   26  C   UNL     1      -9.568  15.390  67.346  1.00  0.00    -0.210 A  
HETATM   27  C   UNL     1      -9.873  14.589  66.250  1.00  0.00    -0.322 A  
HETATM   28  F   UNL     1      -9.922  16.682  67.323  1.00  0.00    -0.248 F  
ENDBRANCH  16  19
ENDBRANCH  12  13
ENDBRANCH  11  12
ENDBRANCH  10  11
ENDBRANCH   9  10
ENDBRANCH   4   9
BRANCH   6  29
HETATM   29  C   UNL     1     -12.979  15.085  71.338  1.00  0.00    -0.371 C  
HETATM   30  O   UNL     1     -14.093  15.597  71.237  1.00  0.00    -0.560 OA 
HETATM   31  C   UNL     1     -11.762  15.931  71.618  1.00  0.00    -0.563 C  
ENDBRANCH   6  29
ENDBRANCH   2   3
TORSDOF 8
ENDMDL
MODEL       51
REMARK 921   NORMALIZED FREE ENERGY PREDICTED BY IDOCK:   -6.22 KCAL/MOL
REMARK 922        TOTAL FREE ENERGY PREDICTED BY IDOCK:   -9.93 KCAL/MOL
REMARK 923 INTER-LIGAND FREE ENERGY PREDICTED BY IDOCK:   -9.47 KCAL/MOL
REMARK 924 INTRA-LIGAND FREE ENERGY PREDICTED BY IDOCK:   -0.46 KCAL/MOL
REMARK 927      BINDING AFFINITY PREDICTED BY RF-SCORE:    0.00 PKD
ROOT
HETATM    1  C   UNL     1     -12.313  13.350  65.992  1.00  0.00    -0.413 C  
HETATM    2  O   UNL     1     -11.672  12.883  67.170  1.00  0.00    -0.344 OA 
ENDROOT
BRANCH   2   3
HETATM    3  C   UNL     1     -11.364  13.811  68.132  1.00  0.00    -0.284 A  
HETATM    4  C   UNL     1     -10.084  14.389  68.042  1.00  0.00    -0.232 A  
HETATM    5  C   UNL     1      -9.689  15.342  68.983  1.00  0.00    -0.239 A  
HETATM    6  C   UNL     1     -11.832  15.172  70.092  1.00  0.00    -0.351 A  
HETATM    7  C   UNL     1     -12.235  14.218  69.149  1.00  0.00    -0.272 A  
HETATM    8  C   UNL     1     -10.563  15.742  69.997  1.00  0.00    -0.333 A  
BRANCH   4   9
HETATM    9  O   UNL     1      -9.271  13.935  67.036  1.00  0.00    -0.231 OA 
BRANCH   9  10
HETATM   10  C   UNL     1      -8.110  13.189  67.402  1.00  0.00    -0.179 C  
BRANCH  10  11
HETATM   11  C   UNL     1      -8.261  11.693  67.103  1.00  0.00    -0.165 C  
BRANCH  11  12
HETATM   12  C   UNL     1      -7.643  10.763  68.165  1.00  0.00    -0.093 C  
BRANCH  12  13
HETATM   13  N   UNL     1      -8.318   9.462  68.216  1.00  0.00    -0.118 NA 
HETATM   14  C   UNL     1      -9.717   9.519  67.775  1.00  0.00    -0.147 C  
HETATM   15  C   UNL     1     -10.298   8.097  67.648  1.00  0.00    -0.313 C  
HETATM   16  C   UNL     1     -10.067   7.224  68.899  1.00  0.00    -0.180 C  
HETATM   17  C   UNL     1      -8.590   7.347  69.309  1.00  0.00    -0.137 C  
HETATM   18  C   UNL     1      -8.208   8.806  69.515  1.00  0.00    -0.111 C  
BRANCH  16  19
HETATM   19  C   UNL     1     -10.982   7.549  70.051  1.00  0.00    -0.240 A  
HETATM   20  N   UNL     1     -11.575   6.575  70.758  1.00  0.00    -0.364 NA 
HETATM   21  O   UNL     1     -12.468   7.204  71.601  1.00  0.00    -0.334 OA 
HETATM   22  C   UNL     1     -12.399   8.550  71.415  1.00  0.00    -0.297 A  
HETATM   23  C   UNL     1     -11.415   8.835  70.493  1.00  0.00    -0.222 A  
HETATM   24  C   UNL     1     -11.151  10.182  70.187  1.00  0.00    -0.378 A  
HETATM   25  C   UNL     1     -11.948  11.167  70.791  1.00  0.00    -0.415 A  
HETATM   26  C   UNL     1     -12.957  10.815  71.685  1.00  0.00    -0.476 A  
HETATM   27  C   UNL     1     -13.199   9.494  72.047  1.00  0.00    -0.539 A  
HETATM   28  F   UNL     1     -13.723  11.782  72.207  1.00  0.00    -0.487 F  
ENDBRANCH  16  19
ENDBRANCH  12  13
ENDBRANCH  11  12
ENDBRANCH  10  11
ENDBRANCH   9  10
ENDBRANCH   4   9
BRANCH   6  29
HETATM   29  C   UNL     1     -12.789  15.544  71.170  1.00  0.00    -0.489 C  
HETATM   30  O   UNL     1     -13.996  15.547  70.932  1.00  0.00    -0.489 OA 
HETATM   31  C   UNL     1     -12.274  15.849  72.555  1.00  0.00    -0.597 C  
ENDBRANCH   6  29
ENDBRANCH   2   3
TORSDOF 8
ENDMDL
MODEL       52
REMARK 921   NORMALIZED FREE ENERGY PREDICTED BY IDOCK:   -6.22 KCAL/MOL
REMARK 922        TOTAL FREE ENERGY PREDICTED BY IDOCK:   -9.92 KCAL/MOL
REMARK 923 INTER-LIGAND FREE ENERGY PREDICTED BY IDOCK:   -8.21 KCAL/MOL
REMARK 924 INTRA-LIGAND FREE ENERGY PREDICTED BY IDOCK:   -1.72 KCAL/MOL
REMARK 927      BINDING AFFINITY PREDICTED BY RF-SCORE:    0.00 PKD
ROOT
HETATM    1  C   UNL     1      -8.332  16.629  66.233  1.00  0.00    -0.325 C  
HETATM    2  O   UNL     1      -9.181  15.679  65.606  1.00  0.00    -0.276 OA 
ENDROOT
BRANCH   2   3
HETATM    3  C   UNL     1     -10.221  15.176  66.347  1.00  0.00    -0.281 A  
HETATM    4  C   UNL     1     -11.139  14.371  65.648  1.00  0.00    -0.321 A  
HETATM    5  C   UNL     1     -12.229  13.819  66.325  1.00  0.00    -0.489 A  
HETATM    6  C   UNL     1     -11.493  14.841  68.392  1.00  0.00    -0.336 A  
HETATM    7  C   UNL     1     -10.396  15.394  67.718  1.00  0.00    -0.253 A  
HETATM    8  C   UNL     1     -12.400  14.043  67.694  1.00  0.00    -0.079 A  
BRANCH   4   9
HETATM    9  O   UNL     1     -10.924  14.211  64.304  1.00  0.00    -0.285 OA 
BRANCH   9  10
HETATM   10  C   UNL     1     -11.152  12.919  63.740  1.00  0.00    -0.379 C  
BRANCH  10  11
HETATM   11  C   UNL     1      -9.952  11.983  63.921  1.00  0.00    -0.343 C  
BRANCH  11  12
HETATM   12  C   UNL     1     -10.225  10.759  64.814  1.00  0.00    -0.334 C  
BRANCH  12  13
HETATM   13  N   UNL     1     -10.353  11.127  66.228  1.00  0.00    -0.242 NA 
HETATM   14  C   UNL     1      -9.061  11.381  66.877  1.00  0.00    -0.175 C  
HETATM   15  C   UNL     1      -9.275  11.967  68.287  1.00  0.00    -0.187 C  
HETATM   16  C   UNL     1     -10.263  11.152  69.148  1.00  0.00    -0.163 C  
HETATM   17  C   UNL     1     -11.518  10.869  68.306  1.00  0.00    -0.376 C  
HETATM   18  C   UNL     1     -11.146  10.177  67.001  1.00  0.00     0.009 C  
BRANCH  16  19
HETATM   19  C   UNL     1      -9.683   9.881  69.710  1.00  0.00    -0.236 A  
HETATM   20  N   UNL     1      -8.593   9.319  69.166  1.00  0.00    -0.131 NA 
HETATM   21  O   UNL     1      -8.439   8.098  69.791  1.00  0.00    -0.122 OA 
HETATM   22  C   UNL     1      -9.421   7.936  70.719  1.00  0.00    -0.158 A  
HETATM   23  C   UNL     1     -10.200   9.072  70.767  1.00  0.00    -0.305 A  
HETATM   24  C   UNL     1     -11.253   9.127  71.697  1.00  0.00    -0.447 A  
HETATM   25  C   UNL     1     -11.496   7.995  72.490  1.00  0.00    -0.471 A  
HETATM   26  C   UNL     1     -10.700   6.858  72.367  1.00  0.00    -0.226 A  
HETATM   27  C   UNL     1      -9.617   6.800  71.495  1.00  0.00    -0.165 A  
HETATM   28  F   UNL     1     -10.991   5.782  73.111  1.00  0.00    -0.250 F  
ENDBRANCH  16  19
ENDBRANCH  12  13
ENDBRANCH  11  12
ENDBRANCH  10  11
ENDBRANCH   9  10
ENDBRANCH   4   9
BRANCH   6  29
HETATM   29  C   UNL     1     -11.647  15.132  69.844  1.00  0.00    -0.300 C  
HETATM   30  O   UNL     1     -12.121  14.272  70.584  1.00  0.00    -0.305 OA 
HETATM   31  C   UNL     1     -11.162  16.448  70.398  1.00  0.00    -0.253 C  
ENDBRANCH   6  29
ENDBRANCH   2   3
TORSDOF 8
ENDMDL
MODEL       53
REMARK 921   NORMALIZED FREE ENERGY PREDICTED BY IDOCK:   -6.20 KCAL/MOL
REMARK 922        TOTAL FREE ENERGY PREDICTED BY IDOCK:   -9.90 KCAL/MOL
REMARK 923 INTER-LIGAND FREE ENERGY PREDICTED BY IDOCK:   -8.72 KCAL/MOL
REMARK 924 INTRA-LIGAND FREE ENERGY PREDICTED BY IDOCK:   -1.18 KCAL/MOL
REMARK 927      BINDING AFFINITY PREDICTED BY RF-SCORE:    0.00 PKD
ROOT
HETATM    1  C   UNL     1     -11.834   9.801  71.336  1.00  0.00    -0.408 C  
HETATM    2  O   UNL     1     -12.370  10.369  70.150  1.00  0.00    -0.273 OA 
ENDROOT
BRANCH   2   3
HETATM    3  C   UNL     1     -12.333  11.736  70.032  1.00  0.00    -0.160 A  
HETATM    4  C   UNL     1     -12.026  12.235  68.753  1.00  0.00    -0.231 A  
HETATM    5  C   UNL     1     -11.966  13.614  68.545  1.00  0.00    -0.396 A  
HETATM    6  C   UNL     1     -12.534  14.012  70.863  1.00  0.00    -0.439 A  
HETATM    7  C   UNL     1     -12.599  12.629  71.076  1.00  0.00    -0.354 A  
HETATM    8  C   UNL     1     -12.231  14.501  69.592  1.00  0.00    -0.336 A  
BRANCH   4   9
HETATM    9  O   UNL     1     -11.757  11.310  67.777  1.00  0.00    -0.549 OA 
BRANCH   9  10
HETATM   10  C   UNL     1     -11.123  11.766  66.582  1.00  0.00    -0.310 C  
BRANCH  10  11
HETATM   11  C   UNL     1      -9.995  10.832  66.128  1.00  0.00    -0.283 C  
BRANCH  11  12
HETATM   12  C   UNL     1     -10.184   9.358  66.531  1.00  0.00    -0.238 C  
BRANCH  12  13
HETATM   13  N   UNL     1      -9.086   8.873  67.373  1.00  0.00    -0.132 NA 
HETATM   14  C   UNL     1      -9.321   7.526  67.909  1.00  0.00    -0.138 C  
HETATM   15  C   UNL     1      -8.049   6.995  68.601  1.00  0.00    -0.121 C  
HETATM   16  C   UNL     1      -7.445   7.982  69.621  1.00  0.00    -0.091 C  
HETATM   17  C   UNL     1      -7.360   9.368  68.960  1.00  0.00    -0.072 C  
HETATM   18  C   UNL     1      -8.724   9.802  68.439  1.00  0.00    -0.120 C  
BRANCH  16  19
HETATM   19  C   UNL     1      -8.190   8.045  70.929  1.00  0.00    -0.103 A  
HETATM   20  N   UNL     1      -7.978   9.046  71.796  1.00  0.00    -0.349 NA 
HETATM   21  O   UNL     1      -8.667   8.710  72.944  1.00  0.00    -0.384 OA 
HETATM   22  C   UNL     1      -9.305   7.523  72.759  1.00  0.00    -0.167 A  
HETATM   23  C   UNL     1      -9.100   7.087  71.468  1.00  0.00    -0.139 A  
HETATM   24  C   UNL     1      -9.714   5.891  71.056  1.00  0.00    -0.209 A  
HETATM   25  C   UNL     1     -10.455   5.167  72.002  1.00  0.00    -0.278 A  
HETATM   26  C   UNL     1     -10.593   5.637  73.307  1.00  0.00    -0.250 A  
HETATM   27  C   UNL     1     -10.044   6.845  73.723  1.00  0.00    -0.373 A  
HETATM   28  F   UNL     1     -11.273   4.895  74.192  1.00  0.00    -0.322 F  
ENDBRANCH  16  19
ENDBRANCH  12  13
ENDBRANCH  11  12
ENDBRANCH  10  11
ENDBRANCH   9  10
ENDBRANCH   4   9
BRANCH   6  29
HETATM   29  C   UNL     1     -12.797  14.915  72.017  1.00  0.00    -0.325 C  
HETATM   30  O   UNL     1     -13.619  14.582  72.869  1.00  0.00    -0.548 OA 
HETATM   31  C   UNL     1     -12.007  16.193  72.162  1.00  0.00    -0.623 C  
ENDBRANCH   6  29
ENDBRANCH   2   3
TORSDOF 8
ENDMDL
MODEL       54
REMARK 921   NORMALIZED FREE ENERGY PREDICTED BY IDOCK:   -6.20 KCAL/MOL
REMARK 922        TOTAL FREE ENERGY PREDICTED BY IDOCK:   -9.89 KCAL/MOL
REMARK 923 INTER-LIGAND FREE ENERGY PREDICTED BY IDOCK:   -8.62 KCAL/MOL
REMARK 924 INTRA-LIGAND FREE ENERGY PREDICTED BY IDOCK:   -1.27 KCAL/MOL
REMARK 927      BINDING AFFINITY PREDICTED BY RF-SCORE:    0.00 PKD
ROOT
HETATM    1  C   UNL     1     -12.158  11.087  70.080  1.00  0.00    -0.364 C  
HETATM    2  O   UNL     1     -10.852  11.087  69.522  1.00  0.00    -0.242 OA 
ENDROOT
BRANCH   2   3
HETATM    3  C   UNL     1     -10.746  11.235  68.161  1.00  0.00    -0.204 A  
HETATM    4  C   UNL     1      -9.650  10.593  67.557  1.00  0.00    -0.161 A  
HETATM    5  C   UNL     1      -9.466  10.693  66.176  1.00  0.00    -0.218 A  
HETATM    6  C   UNL     1     -11.463  12.046  65.984  1.00  0.00    -0.399 A  
HETATM    7  C   UNL     1     -11.654  11.945  67.368  1.00  0.00    -0.367 A  
HETATM    8  C   UNL     1     -10.375  11.406  65.390  1.00  0.00    -0.331 A  
BRANCH   4   9
HETATM    9  O   UNL     1      -8.786   9.930  68.389  1.00  0.00    -0.117 OA 
BRANCH   9  10
HETATM   10  C   UNL     1      -7.929  10.711  69.222  1.00  0.00    -0.135 C  
BRANCH  10  11
HETATM   11  C   UNL     1      -7.051  11.674  68.415  1.00  0.00    -0.083 C  
BRANCH  11  12
HETATM   12  C   UNL     1      -7.096  13.136  68.895  1.00  0.00    -0.075 C  
BRANCH  12  13
HETATM   13  N   UNL     1      -8.221  13.873  68.310  1.00  0.00    -0.152 NA 
HETATM   14  C   UNL     1      -7.855  14.616  67.098  1.00  0.00    -0.124 C  
HETATM   15  C   UNL     1      -9.116  15.187  66.418  1.00  0.00    -0.331 C  
HETATM   16  C   UNL     1     -10.035  15.966  67.381  1.00  0.00    -0.239 C  
HETATM   17  C   UNL     1     -10.242  15.116  68.646  1.00  0.00    -0.227 C  
HETATM   18  C   UNL     1      -8.904  14.739  69.266  1.00  0.00    -0.029 C  
BRANCH  16  19
HETATM   19  C   UNL     1      -9.536  17.345  67.725  1.00  0.00    -0.264 A  
HETATM   20  N   UNL     1     -10.136  18.079  68.675  1.00  0.00    -0.384 NA 
HETATM   21  O   UNL     1      -9.558  19.331  68.612  1.00  0.00    -0.371 OA 
HETATM   22  C   UNL     1      -8.604  19.343  67.642  1.00  0.00    -0.305 A  
HETATM   23  C   UNL     1      -8.492  18.084  67.093  1.00  0.00    -0.241 A  
HETATM   24  C   UNL     1      -7.525  17.870  66.094  1.00  0.00    -0.315 A  
HETATM   25  C   UNL     1      -6.764  18.967  65.663  1.00  0.00    -0.316 A  
HETATM   26  C   UNL     1      -6.952  20.227  66.227  1.00  0.00    -0.257 A  
HETATM   27  C   UNL     1      -7.861  20.452  67.256  1.00  0.00    -0.373 A  
HETATM   28  F   UNL     1      -6.235  21.258  65.758  1.00  0.00    -0.288 F  
ENDBRANCH  16  19
ENDBRANCH  12  13
ENDBRANCH  11  12
ENDBRANCH  10  11
ENDBRANCH   9  10
ENDBRANCH   4   9
BRANCH   6  29
HETATM   29  C   UNL     1     -12.443  12.840  65.194  1.00  0.00    -0.501 C  
HETATM   30  O   UNL     1     -13.117  12.281  64.331  1.00  0.00    -0.780 OA 
HETATM   31  C   UNL     1     -12.643  14.303  65.503  1.00  0.00    -0.429 C  
ENDBRANCH   6  29
ENDBRANCH   2   3
TORSDOF 8
ENDMDL
MODEL       55
REMARK 921   NORMALIZED FREE ENERGY PREDICTED BY IDOCK:   -6.18 KCAL/MOL
REMARK 922        TOTAL FREE ENERGY PREDICTED BY IDOCK:   -9.87 KCAL/MOL
REMARK 923 INTER-LIGAND FREE ENERGY PREDICTED BY IDOCK:   -8.94 KCAL/MOL
REMARK 924 INTRA-LIGAND FREE ENERGY PREDICTED BY IDOCK:   -0.93 KCAL/MOL
REMARK 927      BINDING AFFINITY PREDICTED BY RF-SCORE:    0.00 PKD
ROOT
HETATM    1  C   UNL     1      -9.366  15.185  68.214  1.00  0.00    -0.193 C  
HETATM    2  O   UNL     1      -9.130  13.791  68.347  1.00  0.00    -0.192 OA 
ENDROOT
BRANCH   2   3
HETATM    3  C   UNL     1      -9.660  12.967  67.386  1.00  0.00    -0.203 A  
HETATM    4  C   UNL     1      -9.076  11.691  67.281  1.00  0.00    -0.167 A  
HETATM    5  C   UNL     1      -9.553  10.788  66.328  1.00  0.00    -0.234 A  
HETATM    6  C   UNL     1     -11.202  12.400  65.593  1.00  0.00    -0.360 A  
HETATM    7  C   UNL     1     -10.729  13.307  66.550  1.00  0.00    -0.290 A  
HETATM    8  C   UNL     1     -10.620  11.136  65.495  1.00  0.00    -0.289 A  
BRANCH   4   9
HETATM    9  O   UNL     1      -8.020  11.424  68.114  1.00  0.00    -0.119 OA 
BRANCH   9  10
HETATM   10  C   UNL     1      -7.201  10.293  67.813  1.00  0.00    -0.086 C  
BRANCH  10  11
HETATM   11  C   UNL     1      -7.301   9.201  68.885  1.00  0.00    -0.074 C  
BRANCH  11  12
HETATM   12  C   UNL     1      -7.222   7.763  68.340  1.00  0.00    -0.093 C  
BRANCH  12  13
HETATM   13  N   UNL     1      -8.431   6.992  68.647  1.00  0.00    -0.121 NA 
HETATM   14  C   UNL     1      -9.644   7.554  68.041  1.00  0.00    -0.143 C  
HETATM   15  C   UNL     1     -10.831   6.588  68.221  1.00  0.00    -0.359 C  
HETATM   16  C   UNL     1     -11.019   6.108  69.675  1.00  0.00    -0.459 C  
HETATM   17  C   UNL     1      -9.653   5.652  70.214  1.00  0.00    -0.216 C  
HETATM   18  C   UNL     1      -8.621   6.763  70.077  1.00  0.00    -0.141 C  
BRANCH  16  19
HETATM   19  C   UNL     1     -11.650   7.131  70.582  1.00  0.00    -0.314 A  
HETATM   20  N   UNL     1     -12.430   6.757  71.608  1.00  0.00    -0.361 NA 
HETATM   21  O   UNL     1     -12.982   7.918  72.111  1.00  0.00    -0.267 OA 
HETATM   22  C   UNL     1     -12.522   8.984  71.404  1.00  0.00    -0.317 A  
HETATM   23  C   UNL     1     -11.610   8.553  70.464  1.00  0.00    -0.145 A  
HETATM   24  C   UNL     1     -10.980   9.511  69.650  1.00  0.00    -0.233 A  
HETATM   25  C   UNL     1     -11.358  10.855  69.794  1.00  0.00    -0.374 A  
HETATM   26  C   UNL     1     -12.317  11.226  70.734  1.00  0.00    -0.398 A  
HETATM   27  C   UNL     1     -12.913  10.305  71.590  1.00  0.00    -0.570 A  
HETATM   28  F   UNL     1     -12.681  12.513  70.811  1.00  0.00    -0.369 F  
ENDBRANCH  16  19
ENDBRANCH  12  13
ENDBRANCH  11  12
ENDBRANCH  10  11
ENDBRANCH   9  10
ENDBRANCH   4   9
BRANCH   6  29
HETATM   29  C   UNL     1     -12.321  12.827  64.710  1.00  0.00    -0.478 C  
HETATM   30  O   UNL     1     -13.037  13.766  65.055  1.00  0.00    -0.751 OA 
HETATM   31  C   UNL     1     -12.524  12.149  63.378  1.00  0.00    -0.625 C  
ENDBRANCH   6  29
ENDBRANCH   2   3
TORSDOF 8
ENDMDL
MODEL       56
REMARK 921   NORMALIZED FREE ENERGY PREDICTED BY IDOCK:   -6.18 KCAL/MOL
REMARK 922        TOTAL FREE ENERGY PREDICTED BY IDOCK:   -9.87 KCAL/MOL
REMARK 923 INTER-LIGAND FREE ENERGY PREDICTED BY IDOCK:   -9.32 KCAL/MOL
REMARK 924 INTRA-LIGAND FREE ENERGY PREDICTED BY IDOCK:   -0.55 KCAL/MOL
REMARK 927      BINDING AFFINITY PREDICTED BY RF-SCORE:    0.00 PKD
ROOT
HETATM    1  C   UNL     1     -12.497  12.101  63.595  1.00  0.00    -0.549 C  
HETATM    2  O   UNL     1     -12.955  12.479  64.885  1.00  0.00    -0.821 OA 
ENDROOT
BRANCH   2   3
HETATM    3  C   UNL     1     -12.164  13.336  65.609  1.00  0.00    -0.462 A  
HETATM    4  C   UNL     1     -11.676  12.836  66.831  1.00  0.00    -0.380 A  
HETATM    5  C   UNL     1     -10.865  13.643  67.632  1.00  0.00    -0.268 A  
HETATM    6  C   UNL     1     -10.999  15.432  66.009  1.00  0.00    -0.286 A  
HETATM    7  C   UNL     1     -11.810  14.626  65.200  1.00  0.00    -0.351 A  
HETATM    8  C   UNL     1     -10.517  14.931  67.218  1.00  0.00    -0.263 A  
BRANCH   4   9
HETATM    9  O   UNL     1     -12.073  11.573  67.185  1.00  0.00    -0.494 OA 
BRANCH   9  10
HETATM   10  C   UNL     1     -11.098  10.531  67.148  1.00  0.00    -0.160 C  
BRANCH  10  11
HETATM   11  C   UNL     1     -10.581  10.166  68.544  1.00  0.00    -0.245 C  
BRANCH  11  12
HETATM   12  C   UNL     1     -11.611  10.349  69.675  1.00  0.00    -0.239 C  
BRANCH  12  13
HETATM   13  N   UNL     1     -11.207   9.656  70.903  1.00  0.00    -0.322 NA 
HETATM   14  C   UNL     1      -9.801   9.235  70.893  1.00  0.00    -0.293 C  
HETATM   15  C   UNL     1      -9.388   8.711  72.283  1.00  0.00    -0.322 C  
HETATM   16  C   UNL     1     -10.357   7.657  72.856  1.00  0.00    -0.380 C  
HETATM   17  C   UNL     1     -11.793   8.186  72.702  1.00  0.00    -0.389 C  
HETATM   18  C   UNL     1     -12.083   8.541  71.250  1.00  0.00    -0.286 C  
BRANCH  16  19
HETATM   19  C   UNL     1     -10.210   6.289  72.243  1.00  0.00    -0.187 A  
HETATM   20  N   UNL     1     -11.069   5.303  72.541  1.00  0.00    -0.245 NA 
HETATM   21  O   UNL     1     -10.552   4.159  71.966  1.00  0.00    -0.064 OA 
HETATM   22  C   UNL     1      -9.399   4.462  71.310  1.00  0.00    -0.146 A  
HETATM   23  C   UNL     1      -9.169   5.818  71.387  1.00  0.00    -0.157 A  
HETATM   24  C   UNL     1      -8.041   6.347  70.734  1.00  0.00    -0.120 A  
HETATM   25  C   UNL     1      -7.172   5.456  70.087  1.00  0.00    -0.067 A  
HETATM   26  C   UNL     1      -7.435   4.088  70.078  1.00  0.00    -0.045 A  
HETATM   27  C   UNL     1      -8.573   3.547  70.667  1.00  0.00    -0.113 A  
HETATM   28  F   UNL     1      -6.558   3.266  69.486  1.00  0.00    -0.031 F  
ENDBRANCH  16  19
ENDBRANCH  12  13
ENDBRANCH  11  12
ENDBRANCH  10  11
ENDBRANCH   9  10
ENDBRANCH   4   9
BRANCH   6  29
HETATM   29  C   UNL     1     -10.680  16.808  65.538  1.00  0.00    -0.196 C  
HETATM   30  O   UNL     1     -11.072  17.172  64.431  1.00  0.00    -1.100 OA 
HETATM   31  C   UNL     1      -9.939  17.757  66.447  1.00  0.00    -0.345 C  
ENDBRANCH   6  29
ENDBRANCH   2   3
TORSDOF 8
ENDMDL
MODEL       57
REMARK 921   NORMALIZED FREE ENERGY PREDICTED BY IDOCK:   -6.17 KCAL/MOL
REMARK 922        TOTAL FREE ENERGY PREDICTED BY IDOCK:   -9.85 KCAL/MOL
REMARK 923 INTER-LIGAND FREE ENERGY PREDICTED BY IDOCK:   -8.94 KCAL/MOL
REMARK 924 INTRA-LIGAND FREE ENERGY PREDICTED BY IDOCK:   -0.91 KCAL/MOL
REMARK 927      BINDING AFFINITY PREDICTED BY RF-SCORE:    0.00 PKD
ROOT
HETATM    1  C   UNL     1     -14.197   9.655  71.623  1.00  0.00     0.172 C  
HETATM    2  O   UNL     1     -13.361  10.309  70.680  1.00  0.00    -0.311 OA 
ENDROOT
BRANCH   2   3
HETATM    3  C   UNL     1     -12.026   9.990  70.691  1.00  0.00    -0.313 A  
HETATM    4  C   UNL     1     -11.286  10.405  69.569  1.00  0.00    -0.269 A  
HETATM    5  C   UNL     1      -9.921  10.120  69.498  1.00  0.00    -0.257 A  
HETATM    6  C   UNL     1     -10.011   9.032  71.657  1.00  0.00    -0.383 A  
HETATM    7  C   UNL     1     -11.380   9.318  71.735  1.00  0.00    -0.437 A  
HETATM    8  C   UNL     1      -9.282   9.447  70.543  1.00  0.00    -0.314 A  
BRANCH   4   9
HETATM    9  O   UNL     1     -11.979  11.040  68.572  1.00  0.00    -0.535 OA 
BRANCH   9  10
HETATM   10  C   UNL     1     -11.311  11.262  67.330  1.00  0.00    -0.255 C  
BRANCH  10  11
HETATM   11  C   UNL     1     -11.892  12.453  66.559  1.00  0.00    -0.407 C  
BRANCH  11  12
HETATM   12  C   UNL     1     -12.206  13.685  67.429  1.00  0.00    -0.244 C  
BRANCH  12  13
HETATM   13  N   UNL     1     -11.011  14.200  68.104  1.00  0.00    -0.243 NA 
HETATM   14  C   UNL     1     -11.322  15.093  69.227  1.00  0.00    -0.300 C  
HETATM   15  C   UNL     1     -10.042  15.425  70.020  1.00  0.00    -0.224 C  
HETATM   16  C   UNL     1      -8.878  15.911  69.133  1.00  0.00    -0.253 C  
HETATM   17  C   UNL     1      -8.739  14.945  67.944  1.00  0.00    -0.164 C  
HETATM   18  C   UNL     1     -10.057  14.824  67.192  1.00  0.00    -0.240 C  
BRANCH  16  19
HETATM   19  C   UNL     1      -9.016  17.336  68.665  1.00  0.00    -0.265 A  
HETATM   20  N   UNL     1     -10.077  18.079  69.018  1.00  0.00    -0.356 NA 
HETATM   21  O   UNL     1      -9.986  19.246  68.287  1.00  0.00    -0.360 OA 
HETATM   22  C   UNL     1      -8.867  19.213  67.514  1.00  0.00    -0.295 A  
HETATM   23  C   UNL     1      -8.168  18.053  67.769  1.00  0.00    -0.238 A  
HETATM   24  C   UNL     1      -6.950  17.841  67.098  1.00  0.00    -0.196 A  
HETATM   25  C   UNL     1      -6.538  18.796  66.156  1.00  0.00    -0.256 A  
HETATM   26  C   UNL     1      -7.309  19.931  65.911  1.00  0.00    -0.320 A  
HETATM   27  C   UNL     1      -8.488  20.191  66.602  1.00  0.00    -0.343 A  
HETATM   28  F   UNL     1      -6.902  20.797  64.973  1.00  0.00    -0.290 F  
ENDBRANCH  16  19
ENDBRANCH  12  13
ENDBRANCH  11  12
ENDBRANCH  10  11
ENDBRANCH   9  10
ENDBRANCH   4   9
BRANCH   6  29
HETATM   29  C   UNL     1      -9.382   8.288  72.783  1.00  0.00    -0.268 C  
HETATM   30  O   UNL     1      -8.245   8.587  73.144  1.00  0.00    -0.368 OA 
HETATM   31  C   UNL     1     -10.169   7.223  73.507  1.00  0.00    -0.404 C  
ENDBRANCH   6  29
ENDBRANCH   2   3
TORSDOF 8
ENDMDL
MODEL       58
REMARK 921   NORMALIZED FREE ENERGY PREDICTED BY IDOCK:   -6.16 KCAL/MOL
REMARK 922        TOTAL FREE ENERGY PREDICTED BY IDOCK:   -9.84 KCAL/MOL
REMARK 923 INTER-LIGAND FREE ENERGY PREDICTED BY IDOCK:   -8.53 KCAL/MOL
REMARK 924 INTRA-LIGAND FREE ENERGY PREDICTED BY IDOCK:   -1.31 KCAL/MOL
REMARK 927      BINDING AFFINITY PREDICTED BY RF-SCORE:    0.00 PKD
ROOT
HETATM    1  C   UNL     1     -10.580  19.281  66.370  1.00  0.00    -0.450 C  
HETATM    2  O   UNL     1     -10.331  18.144  65.557  1.00  0.00    -0.589 OA 
ENDROOT
BRANCH   2   3
HETATM    3  C   UNL     1      -9.610  17.116  66.112  1.00  0.00    -0.218 A  
HETATM    4  C   UNL     1      -9.981  15.819  65.712  1.00  0.00    -0.358 A  
HETATM    5  C   UNL     1      -9.301  14.715  66.230  1.00  0.00    -0.293 A  
HETATM    6  C   UNL     1      -7.871  16.174  67.526  1.00  0.00    -0.169 A  
HETATM    7  C   UNL     1      -8.547  17.285  67.006  1.00  0.00    -0.246 A  
HETATM    8  C   UNL     1      -8.242  14.891  67.124  1.00  0.00    -0.244 A  
BRANCH   4   9
HETATM    9  O   UNL     1     -11.042  15.718  64.850  1.00  0.00    -0.422 OA 
BRANCH   9  10
HETATM   10  C   UNL     1     -12.030  14.723  65.120  1.00  0.00    -0.278 C  
BRANCH  10  11
HETATM   11  C   UNL     1     -12.119  13.672  64.007  1.00  0.00    -0.474 C  
BRANCH  11  12
HETATM   12  C   UNL     1     -12.217  12.219  64.507  1.00  0.00    -0.388 C  
BRANCH  12  13
HETATM   13  N   UNL     1     -11.088  11.856  65.369  1.00  0.00    -0.313 NA 
HETATM   14  C   UNL     1     -10.218  10.831  64.780  1.00  0.00    -0.334 C  
HETATM   15  C   UNL     1      -8.945  10.653  65.632  1.00  0.00    -0.203 C  
HETATM   16  C   UNL     1      -9.234  10.447  67.134  1.00  0.00    -0.159 C  
HETATM   17  C   UNL     1     -10.238  11.521  67.585  1.00  0.00    -0.205 C  
HETATM   18  C   UNL     1     -11.492  11.482  66.721  1.00  0.00    -0.157 C  
BRANCH  16  19
HETATM   19  C   UNL     1      -9.719   9.064  67.481  1.00  0.00    -0.161 A  
HETATM   20  N   UNL     1      -9.838   8.117  66.539  1.00  0.00    -0.249 NA 
HETATM   21  O   UNL     1     -10.467   7.050  67.146  1.00  0.00    -0.243 OA 
HETATM   22  C   UNL     1     -10.708   7.348  68.452  1.00  0.00    -0.096 A  
HETATM   23  C   UNL     1     -10.186   8.589  68.743  1.00  0.00    -0.217 A  
HETATM   24  C   UNL     1     -10.292   9.070  70.061  1.00  0.00    -0.226 A  
HETATM   25  C   UNL     1     -10.981   8.287  70.999  1.00  0.00    -0.280 A  
HETATM   26  C   UNL     1     -11.525   7.057  70.634  1.00  0.00    -0.324 A  
HETATM   27  C   UNL     1     -11.384   6.533  69.353  1.00  0.00    -0.395 A  
HETATM   28  F   UNL     1     -12.212   6.358  71.548  1.00  0.00    -0.367 F  
ENDBRANCH  16  19
ENDBRANCH  12  13
ENDBRANCH  11  12
ENDBRANCH  10  11
ENDBRANCH   9  10
ENDBRANCH   4   9
BRANCH   6  29
HETATM   29  C   UNL     1      -6.768  16.413  68.497  1.00  0.00    -0.142 C  
HETATM   30  O   UNL     1      -6.189  17.498  68.499  1.00  0.00    -0.167 OA 
HETATM   31  C   UNL     1      -6.416  15.348  69.506  1.00  0.00    -0.158 C  
ENDBRANCH   6  29
ENDBRANCH   2   3
TORSDOF 8
ENDMDL
MODEL       59
REMARK 921   NORMALIZED FREE ENERGY PREDICTED BY IDOCK:   -6.16 KCAL/MOL
REMARK 922        TOTAL FREE ENERGY PREDICTED BY IDOCK:   -9.84 KCAL/MOL
REMARK 923 INTER-LIGAND FREE ENERGY PREDICTED BY IDOCK:   -8.98 KCAL/MOL
REMARK 924 INTRA-LIGAND FREE ENERGY PREDICTED BY IDOCK:   -0.86 KCAL/MOL
REMARK 927      BINDING AFFINITY PREDICTED BY RF-SCORE:    0.00 PKD
ROOT
HETATM    1  C   UNL     1     -10.603  17.030  68.674  1.00  0.00    -0.362 C  
HETATM    2  O   UNL     1     -11.262  15.918  68.086  1.00  0.00    -0.338 OA 
ENDROOT
BRANCH   2   3
HETATM    3  C   UNL     1     -11.623  14.886  68.917  1.00  0.00    -0.315 A  
HETATM    4  C   UNL     1     -11.073  13.628  68.609  1.00  0.00    -0.272 A  
HETATM    5  C   UNL     1     -11.389  12.523  69.402  1.00  0.00    -0.275 A  
HETATM    6  C   UNL     1     -12.776  13.908  70.821  1.00  0.00    -0.383 A  
HETATM    7  C   UNL     1     -12.459  15.021  70.031  1.00  0.00    -0.317 A  
HETATM    8  C   UNL     1     -12.228  12.664  70.511  1.00  0.00    -0.383 A  
BRANCH   4   9
HETATM    9  O   UNL     1     -10.277  13.558  67.495  1.00  0.00    -0.230 OA 
BRANCH   9  10
HETATM   10  C   UNL     1      -8.862  13.607  67.681  1.00  0.00    -0.194 C  
BRANCH  10  11
HETATM   11  C   UNL     1      -8.223  12.214  67.661  1.00  0.00    -0.163 C  
BRANCH  11  12
HETATM   12  C   UNL     1      -8.580  11.364  66.427  1.00  0.00    -0.174 C  
BRANCH  12  13
HETATM   13  N   UNL     1      -8.917   9.984  66.790  1.00  0.00    -0.135 NA 
HETATM   14  C   UNL     1     -10.361   9.754  66.910  1.00  0.00    -0.234 C  
HETATM   15  C   UNL     1     -10.654   8.250  67.079  1.00  0.00    -0.328 C  
HETATM   16  C   UNL     1      -9.815   7.581  68.188  1.00  0.00    -0.179 C  
HETATM   17  C   UNL     1      -8.346   7.995  68.000  1.00  0.00    -0.126 C  
HETATM   18  C   UNL     1      -8.213   9.512  67.979  1.00  0.00    -0.114 C  
BRANCH  16  19
HETATM   19  C   UNL     1     -10.293   7.880  69.584  1.00  0.00    -0.216 A  
HETATM   20  N   UNL     1     -10.509   9.142  69.984  1.00  0.00    -0.210 NA 
HETATM   21  O   UNL     1     -10.756   9.077  71.341  1.00  0.00    -0.275 OA 
HETATM   22  C   UNL     1     -10.709   7.780  71.748  1.00  0.00    -0.223 A  
HETATM   23  C   UNL     1     -10.493   6.964  70.660  1.00  0.00    -0.233 A  
HETATM   24  C   UNL     1     -10.451   5.572  70.860  1.00  0.00    -0.319 A  
HETATM   25  C   UNL     1     -10.571   5.088  72.172  1.00  0.00    -0.259 A  
HETATM   26  C   UNL     1     -10.747   5.966  73.240  1.00  0.00    -0.265 A  
HETATM   27  C   UNL     1     -10.849   7.342  73.061  1.00  0.00    -0.399 A  
HETATM   28  F   UNL     1     -10.815   5.467  74.481  1.00  0.00    -0.260 F  
ENDBRANCH  16  19
ENDBRANCH  12  13
ENDBRANCH  11  12
ENDBRANCH  10  11
ENDBRANCH   9  10
ENDBRANCH   4   9
BRANCH   6  29
HETATM   29  C   UNL     1     -13.696  14.103  71.975  1.00  0.00    -0.463 C  
HETATM   30  O   UNL     1     -14.031  13.132  72.651  1.00  0.00    -0.708 OA 
HETATM   31  C   UNL     1     -14.153  15.494  72.340  1.00  0.00    -0.627 C  
ENDBRANCH   6  29
ENDBRANCH   2   3
TORSDOF 8
ENDMDL
MODEL       60
REMARK 921   NORMALIZED FREE ENERGY PREDICTED BY IDOCK:   -6.16 KCAL/MOL
REMARK 922        TOTAL FREE ENERGY PREDICTED BY IDOCK:   -9.83 KCAL/MOL
REMARK 923 INTER-LIGAND FREE ENERGY PREDICTED BY IDOCK:   -8.45 KCAL/MOL
REMARK 924 INTRA-LIGAND FREE ENERGY PREDICTED BY IDOCK:   -1.38 KCAL/MOL
REMARK 927      BINDING AFFINITY PREDICTED BY RF-SCORE:    0.00 PKD
ROOT
HETATM    1  C   UNL     1     -11.618  11.111  67.992  1.00  0.00    -0.263 C  
HETATM    2  O   UNL     1     -11.633  10.726  69.359  1.00  0.00    -0.265 OA 
ENDROOT
BRANCH   2   3
HETATM    3  C   UNL     1     -12.155  11.620  70.261  1.00  0.00    -0.358 A  
HETATM    4  C   UNL     1     -13.027  11.082  71.225  1.00  0.00    -0.372 A  
HETATM    5  C   UNL     1     -13.605  11.922  72.180  1.00  0.00    -0.188 A  
HETATM    6  C   UNL     1     -12.440  13.826  71.244  1.00  0.00    -0.428 A  
HETATM    7  C   UNL     1     -11.856  12.987  70.286  1.00  0.00    -0.294 A  
HETATM    8  C   UNL     1     -13.303  13.287  72.198  1.00  0.00    -0.618 A  
BRANCH   4   9
HETATM    9  O   UNL     1     -13.296   9.741  71.135  1.00  0.00    -0.373 OA 
BRANCH   9  10
HETATM   10  C   UNL     1     -13.366   8.991  72.348  1.00  0.00    -0.460 C  
BRANCH  10  11
HETATM   11  C   UNL     1     -12.194   8.014  72.498  1.00  0.00    -0.294 C  
BRANCH  11  12
HETATM   12  C   UNL     1     -12.472   6.597  71.962  1.00  0.00    -0.244 C  
BRANCH  12  13
HETATM   13  N   UNL     1     -11.405   6.125  71.074  1.00  0.00    -0.303 NA 
HETATM   14  C   UNL     1     -10.063   6.289  71.646  1.00  0.00    -0.188 C  
HETATM   15  C   UNL     1      -9.013   5.584  70.764  1.00  0.00    -0.157 C  
HETATM   16  C   UNL     1      -9.111   5.962  69.271  1.00  0.00    -0.128 C  
HETATM   17  C   UNL     1     -10.583   5.850  68.839  1.00  0.00    -0.357 C  
HETATM   18  C   UNL     1     -11.473   6.702  69.735  1.00  0.00    -0.328 C  
BRANCH  16  19
HETATM   19  C   UNL     1      -8.548   7.320  68.944  1.00  0.00    -0.129 A  
HETATM   20  N   UNL     1      -7.881   8.031  69.865  1.00  0.00    -0.100 NA 
HETATM   21  O   UNL     1      -7.666   9.275  69.306  1.00  0.00    -0.077 OA 
HETATM   22  C   UNL     1      -8.184   9.303  68.048  1.00  0.00    -0.115 A  
HETATM   23  C   UNL     1      -8.692   8.062  67.733  1.00  0.00    -0.127 A  
HETATM   24  C   UNL     1      -9.241   7.866  66.453  1.00  0.00    -0.241 A  
HETATM   25  C   UNL     1      -9.299   8.964  65.581  1.00  0.00    -0.259 A  
HETATM   26  C   UNL     1      -8.806  10.208  65.972  1.00  0.00    -0.143 A  
HETATM   27  C   UNL     1      -8.207  10.413  67.211  1.00  0.00    -0.121 A  
HETATM   28  F   UNL     1      -8.918  11.241  65.127  1.00  0.00    -0.197 F  
ENDBRANCH  16  19
ENDBRANCH  12  13
ENDBRANCH  11  12
ENDBRANCH  10  11
ENDBRANCH   9  10
ENDBRANCH   4   9
BRANCH   6  29
HETATM   29  C   UNL     1     -12.109  15.277  71.205  1.00  0.00    -0.348 C  
HETATM   30  O   UNL     1     -11.875  15.813  70.123  1.00  0.00    -0.338 OA 
HETATM   31  C   UNL     1     -12.129  16.083  72.480  1.00  0.00    -0.635 C  
ENDBRANCH   6  29
ENDBRANCH   2   3
TORSDOF 8
ENDMDL
MODEL       61
REMARK 921   NORMALIZED FREE ENERGY PREDICTED BY IDOCK:   -6.15 KCAL/MOL
REMARK 922        TOTAL FREE ENERGY PREDICTED BY IDOCK:   -9.82 KCAL/MOL
REMARK 923 INTER-LIGAND FREE ENERGY PREDICTED BY IDOCK:   -8.91 KCAL/MOL
REMARK 924 INTRA-LIGAND FREE ENERGY PREDICTED BY IDOCK:   -0.91 KCAL/MOL
REMARK 927      BINDING AFFINITY PREDICTED BY RF-SCORE:    0.00 PKD
ROOT
HETATM    1  C   UNL     1      -5.131  17.958  65.592  1.00  0.00    -0.174 C  
HETATM    2  O   UNL     1      -5.451  17.656  66.942  1.00  0.00    -0.127 OA 
ENDROOT
BRANCH   2   3
HETATM    3  C   UNL     1      -6.764  17.774  67.321  1.00  0.00    -0.165 A  
HETATM    4  C   UNL     1      -7.256  16.757  68.160  1.00  0.00    -0.164 A  
HETATM    5  C   UNL     1      -8.583  16.798  68.593  1.00  0.00    -0.263 A  
HETATM    6  C   UNL     1      -8.937  18.865  67.385  1.00  0.00    -0.297 A  
HETATM    7  C   UNL     1      -7.605  18.830  66.951  1.00  0.00    -0.238 A  
HETATM    8  C   UNL     1      -9.418  17.854  68.217  1.00  0.00    -0.300 A  
BRANCH   4   9
HETATM    9  O   UNL     1      -6.390  15.740  68.472  1.00  0.00    -0.103 OA 
BRANCH   9  10
HETATM   10  C   UNL     1      -6.710  14.908  69.586  1.00  0.00    -0.172 C  
BRANCH  10  11
HETATM   11  C   UNL     1      -7.010  13.464  69.168  1.00  0.00    -0.044 C  
BRANCH  11  12
HETATM   12  C   UNL     1      -7.392  13.294  67.685  1.00  0.00    -0.161 C  
BRANCH  12  13
HETATM   13  N   UNL     1      -8.750  12.766  67.524  1.00  0.00    -0.174 NA 
HETATM   14  C   UNL     1      -9.791  13.786  67.697  1.00  0.00    -0.234 C  
HETATM   15  C   UNL     1     -11.170  13.218  67.306  1.00  0.00    -0.320 C  
HETATM   16  C   UNL     1     -11.493  11.869  67.980  1.00  0.00    -0.389 C  
HETATM   17  C   UNL     1     -10.278  10.942  67.814  1.00  0.00    -0.209 C  
HETATM   18  C   UNL     1      -9.019  11.601  68.362  1.00  0.00    -0.176 C  
BRANCH  16  19
HETATM   19  C   UNL     1     -11.897  11.987  69.427  1.00  0.00    -0.324 A  
HETATM   20  N   UNL     1     -11.994  10.901  70.208  1.00  0.00    -0.329 NA 
HETATM   21  O   UNL     1     -12.550  11.331  71.395  1.00  0.00    -0.377 OA 
HETATM   22  C   UNL     1     -12.768  12.673  71.334  1.00  0.00    -0.247 A  
HETATM   23  C   UNL     1     -12.302  13.160  70.133  1.00  0.00    -0.284 A  
HETATM   24  C   UNL     1     -12.394  14.541  69.886  1.00  0.00    -0.347 A  
HETATM   25  C   UNL     1     -13.015  15.347  70.853  1.00  0.00    -0.539 A  
HETATM   26  C   UNL     1     -13.506  14.790  72.032  1.00  0.00    -0.379 A  
HETATM   27  C   UNL     1     -13.375  13.436  72.325  1.00  0.00    -0.641 A  
HETATM   28  F   UNL     1     -14.129  15.586  72.911  1.00  0.00    -0.561 F  
ENDBRANCH  16  19
ENDBRANCH  12  13
ENDBRANCH  11  12
ENDBRANCH  10  11
ENDBRANCH   9  10
ENDBRANCH   4   9
BRANCH   6  29
HETATM   29  C   UNL     1      -9.794  19.995  66.934  1.00  0.00    -0.438 C  
HETATM   30  O   UNL     1      -9.625  21.112  67.422  1.00  0.00    -0.343 OA 
HETATM   31  C   UNL     1     -10.812  19.774  65.844  1.00  0.00    -0.389 C  
ENDBRANCH   6  29
ENDBRANCH   2   3
TORSDOF 8
ENDMDL
MODEL       62
REMARK 921   NORMALIZED FREE ENERGY PREDICTED BY IDOCK:   -6.14 KCAL/MOL
REMARK 922        TOTAL FREE ENERGY PREDICTED BY IDOCK:   -9.81 KCAL/MOL
REMARK 923 INTER-LIGAND FREE ENERGY PREDICTED BY IDOCK:   -8.30 KCAL/MOL
REMARK 924 INTRA-LIGAND FREE ENERGY PREDICTED BY IDOCK:   -1.52 KCAL/MOL
REMARK 927      BINDING AFFINITY PREDICTED BY RF-SCORE:    0.00 PKD
ROOT
HETATM    1  C   UNL     1     -12.525  13.975  66.346  1.00  0.00    -0.355 C  
HETATM    2  O   UNL     1     -11.519  13.788  67.331  1.00  0.00    -0.311 OA 
ENDROOT
BRANCH   2   3
HETATM    3  C   UNL     1     -11.715  14.383  68.552  1.00  0.00    -0.335 A  
HETATM    4  C   UNL     1     -11.117  15.645  68.724  1.00  0.00    -0.307 A  
HETATM    5  C   UNL     1     -11.264  16.320  69.938  1.00  0.00    -0.319 A  
HETATM    6  C   UNL     1     -12.612  14.509  70.809  1.00  0.00    -0.418 A  
HETATM    7  C   UNL     1     -12.471  13.829  69.592  1.00  0.00    -0.176 A  
HETATM    8  C   UNL     1     -12.019  15.761  70.973  1.00  0.00    -0.462 A  
BRANCH   4   9
HETATM    9  O   UNL     1     -10.373  16.124  67.677  1.00  0.00    -0.273 OA 
BRANCH   9  10
HETATM   10  C   UNL     1      -8.958  16.212  67.848  1.00  0.00    -0.183 C  
BRANCH  10  11
HETATM   11  C   UNL     1      -8.207  15.148  67.040  1.00  0.00    -0.262 C  
BRANCH  11  12
HETATM   12  C   UNL     1      -7.234  14.287  67.866  1.00  0.00    -0.158 C  
BRANCH  12  13
HETATM   13  N   UNL     1      -7.439  12.853  67.638  1.00  0.00    -0.135 NA 
HETATM   14  C   UNL     1      -8.632  12.562  66.834  1.00  0.00    -0.158 C  
HETATM   15  C   UNL     1      -8.670  11.068  66.453  1.00  0.00    -0.174 C  
HETATM   16  C   UNL     1      -8.475  10.121  67.655  1.00  0.00    -0.118 C  
HETATM   17  C   UNL     1      -7.261  10.610  68.463  1.00  0.00    -0.086 C  
HETATM   18  C   UNL     1      -7.436  12.068  68.869  1.00  0.00    -0.043 C  
BRANCH  16  19
HETATM   19  C   UNL     1      -9.693   9.980  68.530  1.00  0.00    -0.155 A  
HETATM   20  N   UNL     1     -10.814  10.669  68.269  1.00  0.00    -0.221 NA 
HETATM   21  O   UNL     1     -11.654  10.454  69.342  1.00  0.00    -0.245 OA 
HETATM   22  C   UNL     1     -11.047   9.625  70.234  1.00  0.00    -0.276 A  
HETATM   23  C   UNL     1      -9.825   9.229  69.736  1.00  0.00    -0.202 A  
HETATM   24  C   UNL     1      -9.051   8.330  70.491  1.00  0.00    -0.154 A  
HETATM   25  C   UNL     1      -9.535   7.929  71.746  1.00  0.00    -0.205 A  
HETATM   26  C   UNL     1     -10.761   8.397  72.216  1.00  0.00    -0.347 A  
HETATM   27  C   UNL     1     -11.572   9.241  71.464  1.00  0.00    -0.452 A  
HETATM   28  F   UNL     1     -11.169   8.024  73.436  1.00  0.00    -0.383 F  
ENDBRANCH  16  19
ENDBRANCH  12  13
ENDBRANCH  11  12
ENDBRANCH  10  11
ENDBRANCH   9  10
ENDBRANCH   4   9
BRANCH   6  29
HETATM   29  C   UNL     1     -13.402  13.859  71.890  1.00  0.00    -0.412 C  
HETATM   30  O   UNL     1     -14.033  14.559  72.681  1.00  0.00    -0.511 OA 
HETATM   31  C   UNL     1     -13.471  12.354  71.965  1.00  0.00    -0.460 C  
ENDBRANCH   6  29
ENDBRANCH   2   3
TORSDOF 8
ENDMDL
MODEL       63
REMARK 921   NORMALIZED FREE ENERGY PREDICTED BY IDOCK:   -6.14 KCAL/MOL
REMARK 922        TOTAL FREE ENERGY PREDICTED BY IDOCK:   -9.81 KCAL/MOL
REMARK 923 INTER-LIGAND FREE ENERGY PREDICTED BY IDOCK:   -8.99 KCAL/MOL
REMARK 924 INTRA-LIGAND FREE ENERGY PREDICTED BY IDOCK:   -0.82 KCAL/MOL
REMARK 927      BINDING AFFINITY PREDICTED BY RF-SCORE:    0.00 PKD
ROOT
HETATM    1  C   UNL     1     -10.739  15.421  66.956  1.00  0.00    -0.321 C  
HETATM    2  O   UNL     1     -11.615  14.307  66.862  1.00  0.00    -0.351 OA 
ENDROOT
BRANCH   2   3
HETATM    3  C   UNL     1     -11.776  13.534  67.985  1.00  0.00    -0.359 A  
HETATM    4  C   UNL     1     -11.532  12.157  67.823  1.00  0.00    -0.332 A  
HETATM    5  C   UNL     1     -11.674  11.297  68.914  1.00  0.00    -0.409 A  
HETATM    6  C   UNL     1     -12.278  13.161  70.334  1.00  0.00    -0.389 A  
HETATM    7  C   UNL     1     -12.133  14.028  69.244  1.00  0.00    -0.380 A  
HETATM    8  C   UNL     1     -12.034  11.798  70.168  1.00  0.00    -0.421 A  
BRANCH   4   9
HETATM    9  O   UNL     1     -11.205  11.732  66.561  1.00  0.00    -0.306 OA 
BRANCH   9  10
HETATM   10  C   UNL     1      -9.838  11.414  66.297  1.00  0.00    -0.218 C  
BRANCH  10  11
HETATM   11  C   UNL     1      -9.690  10.183  65.396  1.00  0.00    -0.355 C  
BRANCH  11  12
HETATM   12  C   UNL     1      -8.735   9.103  65.940  1.00  0.00    -0.158 C  
BRANCH  12  13
HETATM   13  N   UNL     1      -9.400   7.805  66.087  1.00  0.00    -0.143 NA 
HETATM   14  C   UNL     1     -10.477   7.818  67.085  1.00  0.00    -0.343 C  
HETATM   15  C   UNL     1     -11.269   6.496  67.037  1.00  0.00    -0.280 C  
HETATM   16  C   UNL     1     -10.374   5.240  67.092  1.00  0.00    -0.268 C  
HETATM   17  C   UNL     1      -9.233   5.414  66.076  1.00  0.00    -0.166 C  
HETATM   18  C   UNL     1      -8.472   6.707  66.337  1.00  0.00    -0.125 C  
BRANCH  16  19
HETATM   19  C   UNL     1      -9.840   4.927  68.465  1.00  0.00    -0.141 A  
HETATM   20  N   UNL     1      -8.796   4.100  68.628  1.00  0.00    -0.098 NA 
HETATM   21  O   UNL     1      -8.683   3.891  69.987  1.00  0.00    -0.063 OA 
HETATM   22  C   UNL     1      -9.642   4.604  70.638  1.00  0.00    -0.191 A  
HETATM   23  C   UNL     1     -10.362   5.344  69.726  1.00  0.00    -0.375 A  
HETATM   24  C   UNL     1     -11.381   6.189  70.201  1.00  0.00    -0.433 A  
HETATM   25  C   UNL     1     -11.655   6.188  71.578  1.00  0.00    -0.304 A  
HETATM   26  C   UNL     1     -10.919   5.385  72.447  1.00  0.00    -0.240 A  
HETATM   27  C   UNL     1      -9.869   4.585  72.010  1.00  0.00    -0.240 A  
HETATM   28  F   UNL     1     -11.239   5.381  73.749  1.00  0.00    -0.321 F  
ENDBRANCH  16  19
ENDBRANCH  12  13
ENDBRANCH  11  12
ENDBRANCH  10  11
ENDBRANCH   9  10
ENDBRANCH   4   9
BRANCH   6  29
HETATM   29  C   UNL     1     -12.690  13.738  71.643  1.00  0.00    -0.321 C  
HETATM   30  O   UNL     1     -12.103  14.728  72.078  1.00  0.00    -0.353 OA 
HETATM   31  C   UNL     1     -13.860  13.144  72.388  1.00  0.00    -0.583 C  
ENDBRANCH   6  29
ENDBRANCH   2   3
TORSDOF 8
ENDMDL
MODEL       64
REMARK 921   NORMALIZED FREE ENERGY PREDICTED BY IDOCK:   -6.12 KCAL/MOL
REMARK 922        TOTAL FREE ENERGY PREDICTED BY IDOCK:   -9.78 KCAL/MOL
REMARK 923 INTER-LIGAND FREE ENERGY PREDICTED BY IDOCK:  -10.18 KCAL/MOL
REMARK 924 INTRA-LIGAND FREE ENERGY PREDICTED BY IDOCK:    0.40 KCAL/MOL
REMARK 927      BINDING AFFINITY PREDICTED BY RF-SCORE:    0.00 PKD
ROOT
HETATM    1  C   UNL     1     -10.294   5.505  68.004  1.00  0.00    -0.177 C  
HETATM    2  O   UNL     1     -10.790   6.717  68.553  1.00  0.00    -0.230 OA 
ENDROOT
BRANCH   2   3
HETATM    3  C   UNL     1     -10.686   6.884  69.911  1.00  0.00    -0.246 A  
HETATM    4  C   UNL     1     -10.649   8.216  70.365  1.00  0.00    -0.224 A  
HETATM    5  C   UNL     1     -10.542   8.477  71.733  1.00  0.00    -0.371 A  
HETATM    6  C   UNL     1     -10.532   6.105  72.209  1.00  0.00    -0.229 A  
HETATM    7  C   UNL     1     -10.642   5.837  70.839  1.00  0.00    -0.329 A  
HETATM    8  C   UNL     1     -10.496   7.426  72.653  1.00  0.00    -0.303 A  
BRANCH   4   9
HETATM    9  O   UNL     1     -10.676   9.196  69.407  1.00  0.00    -0.226 OA 
BRANCH   9  10
HETATM   10  C   UNL     1     -11.010  10.522  69.818  1.00  0.00    -0.294 C  
BRANCH  10  11
HETATM   11  C   UNL     1     -11.160  11.480  68.630  1.00  0.00    -0.291 C  
BRANCH  11  12
HETATM   12  C   UNL     1     -10.568  10.956  67.308  1.00  0.00    -0.251 C  
BRANCH  12  13
HETATM   13  N   UNL     1     -11.038  11.726  66.152  1.00  0.00    -0.310 NA 
HETATM   14  C   UNL     1      -9.946  12.330  65.379  1.00  0.00    -0.244 C  
HETATM   15  C   UNL     1     -10.489  12.939  64.070  1.00  0.00    -0.395 C  
HETATM   16  C   UNL     1     -11.701  13.869  64.280  1.00  0.00    -0.406 C  
HETATM   17  C   UNL     1     -12.709  13.151  65.193  1.00  0.00    -0.468 C  
HETATM   18  C   UNL     1     -12.047  12.724  66.496  1.00  0.00    -0.268 C  
BRANCH  16  19
HETATM   19  C   UNL     1     -11.345  15.229  64.823  1.00  0.00    -0.391 A  
HETATM   20  N   UNL     1     -11.675  16.346  64.157  1.00  0.00    -0.976 NA 
HETATM   21  O   UNL     1     -11.054  17.384  64.821  1.00  0.00    -0.973 OA 
HETATM   22  C   UNL     1     -10.370  16.895  65.891  1.00  0.00    -0.315 A  
HETATM   23  C   UNL     1     -10.580  15.536  65.988  1.00  0.00    -0.333 A  
HETATM   24  C   UNL     1      -9.991  14.840  67.058  1.00  0.00    -0.238 A  
HETATM   25  C   UNL     1      -9.167  15.555  67.941  1.00  0.00    -0.187 A  
HETATM   26  C   UNL     1      -8.959  16.922  67.767  1.00  0.00    -0.225 A  
HETATM   27  C   UNL     1      -9.575  17.644  66.751  1.00  0.00    -0.297 A  
HETATM   28  F   UNL     1      -8.131  17.560  68.606  1.00  0.00    -0.247 F  
ENDBRANCH  16  19
ENDBRANCH  12  13
ENDBRANCH  11  12
ENDBRANCH  10  11
ENDBRANCH   9  10
ENDBRANCH   4   9
BRANCH   6  29
HETATM   29  C   UNL     1     -10.457   4.951  73.148  1.00  0.00    -0.202 C  
HETATM   30  O   UNL     1     -10.839   5.092  74.308  1.00  0.00    -0.309 OA 
HETATM   31  C   UNL     1      -9.977   3.611  72.649  1.00  0.00    -0.222 C  
ENDBRANCH   6  29
ENDBRANCH   2   3
TORSDOF 8
ENDMDL
MODEL       65
REMARK 921   NORMALIZED FREE ENERGY PREDICTED BY IDOCK:   -6.12 KCAL/MOL
REMARK 922        TOTAL FREE ENERGY PREDICTED BY IDOCK:   -9.78 KCAL/MOL
REMARK 923 INTER-LIGAND FREE ENERGY PREDICTED BY IDOCK:   -8.68 KCAL/MOL
REMARK 924 INTRA-LIGAND FREE ENERGY PREDICTED BY IDOCK:   -1.10 KCAL/MOL
REMARK 927      BINDING AFFINITY PREDICTED BY RF-SCORE:    0.00 PKD
ROOT
HETATM    1  C   UNL     1     -10.158  17.298  68.787  1.00  0.00    -0.337 C  
HETATM    2  O   UNL     1     -11.405  16.707  68.453  1.00  0.00    -0.321 OA 
ENDROOT
BRANCH   2   3
HETATM    3  C   UNL     1     -11.764  15.567  69.128  1.00  0.00    -0.365 A  
HETATM    4  C   UNL     1     -11.521  14.354  68.458  1.00  0.00    -0.297 A  
HETATM    5  C   UNL     1     -11.858  13.146  69.072  1.00  0.00    -0.358 A  
HETATM    6  C   UNL     1     -12.656  14.332  71.023  1.00  0.00    -0.428 A  
HETATM    7  C   UNL     1     -12.317  15.547  70.413  1.00  0.00    -0.451 A  
HETATM    8  C   UNL     1     -12.412  13.133  70.354  1.00  0.00    -0.280 A  
BRANCH   4   9
HETATM    9  O   UNL     1     -10.996  14.440  67.194  1.00  0.00    -0.291 OA 
BRANCH   9  10
HETATM   10  C   UNL     1     -11.699  13.793  66.133  1.00  0.00    -0.370 C  
BRANCH  10  11
HETATM   11  C   UNL     1     -10.824  13.598  64.889  1.00  0.00    -0.382 C  
BRANCH  11  12
HETATM   12  C   UNL     1      -9.821  12.434  64.989  1.00  0.00    -0.114 C  
BRANCH  12  13
HETATM   13  N   UNL     1      -9.921  11.731  66.272  1.00  0.00    -0.213 NA 
HETATM   14  C   UNL     1      -8.641  11.648  66.986  1.00  0.00    -0.169 C  
HETATM   15  C   UNL     1      -8.855  11.094  68.409  1.00  0.00    -0.157 C  
HETATM   16  C   UNL     1      -9.682   9.791  68.444  1.00  0.00    -0.162 C  
HETATM   17  C   UNL     1     -10.932   9.988  67.570  1.00  0.00    -0.276 C  
HETATM   18  C   UNL     1     -10.542  10.415  66.161  1.00  0.00    -0.090 C  
BRANCH  16  19
HETATM   19  C   UNL     1      -8.912   8.565  68.029  1.00  0.00    -0.141 A  
HETATM   20  N   UNL     1      -7.571   8.556  68.036  1.00  0.00    -0.097 NA 
HETATM   21  O   UNL     1      -7.193   7.370  67.439  1.00  0.00    -0.088 OA 
HETATM   22  C   UNL     1      -8.303   6.662  67.093  1.00  0.00    -0.113 A  
HETATM   23  C   UNL     1      -9.428   7.338  67.512  1.00  0.00    -0.151 A  
HETATM   24  C   UNL     1     -10.687   6.753  67.287  1.00  0.00    -0.423 A  
HETATM   25  C   UNL     1     -10.736   5.536  66.590  1.00  0.00    -0.332 A  
HETATM   26  C   UNL     1      -9.565   4.919  66.154  1.00  0.00    -0.175 A  
HETATM   27  C   UNL     1      -8.305   5.449  66.414  1.00  0.00    -0.110 A  
HETATM   28  F   UNL     1      -9.657   3.779  65.455  1.00  0.00    -0.153 F  
ENDBRANCH  16  19
ENDBRANCH  12  13
ENDBRANCH  11  12
ENDBRANCH  10  11
ENDBRANCH   9  10
ENDBRANCH   4   9
BRANCH   6  29
HETATM   29  C   UNL     1     -13.270  14.373  72.379  1.00  0.00    -0.440 C  
HETATM   30  O   UNL     1     -13.860  13.381  72.804  1.00  0.00    -0.720 OA 
HETATM   31  C   UNL     1     -13.108  15.603  73.237  1.00  0.00    -0.675 C  
ENDBRANCH   6  29
ENDBRANCH   2   3
TORSDOF 8
ENDMDL
MODEL       66
REMARK 921   NORMALIZED FREE ENERGY PREDICTED BY IDOCK:   -6.12 KCAL/MOL
REMARK 922        TOTAL FREE ENERGY PREDICTED BY IDOCK:   -9.77 KCAL/MOL
REMARK 923 INTER-LIGAND FREE ENERGY PREDICTED BY IDOCK:   -8.86 KCAL/MOL
REMARK 924 INTRA-LIGAND FREE ENERGY PREDICTED BY IDOCK:   -0.91 KCAL/MOL
REMARK 927      BINDING AFFINITY PREDICTED BY RF-SCORE:    0.00 PKD
ROOT
HETATM    1  C   UNL     1     -12.480  12.228  63.762  1.00  0.00    -0.515 C  
HETATM    2  O   UNL     1     -12.672  12.232  65.169  1.00  0.00    -0.571 OA 
ENDROOT
BRANCH   2   3
HETATM    3  C   UNL     1     -12.040  13.214  65.890  1.00  0.00    -0.444 A  
HETATM    4  C   UNL     1     -11.814  12.931  67.250  1.00  0.00    -0.356 A  
HETATM    5  C   UNL     1     -11.178  13.876  68.057  1.00  0.00    -0.295 A  
HETATM    6  C   UNL     1     -10.966  15.378  66.172  1.00  0.00    -0.279 A  
HETATM    7  C   UNL     1     -11.601  14.431  65.357  1.00  0.00    -0.347 A  
HETATM    8  C   UNL     1     -10.745  15.091  67.518  1.00  0.00    -0.284 A  
BRANCH   4   9
HETATM    9  O   UNL     1     -12.285  11.731  67.717  1.00  0.00    -0.536 OA 
BRANCH   9  10
HETATM   10  C   UNL     1     -11.344  10.820  68.285  1.00  0.00    -0.309 C  
BRANCH  10  11
HETATM   11  C   UNL     1     -10.531  10.079  67.216  1.00  0.00    -0.313 C  
BRANCH  11  12
HETATM   12  C   UNL     1      -9.069  10.544  67.089  1.00  0.00    -0.143 C  
BRANCH  12  13
HETATM   13  N   UNL     1      -8.154   9.699  67.864  1.00  0.00    -0.105 NA 
HETATM   14  C   UNL     1      -8.710   8.376  68.170  1.00  0.00    -0.143 C  
HETATM   15  C   UNL     1      -7.628   7.471  68.793  1.00  0.00    -0.106 C  
HETATM   16  C   UNL     1      -6.880   8.127  69.972  1.00  0.00    -0.040 C  
HETATM   17  C   UNL     1      -6.454   9.542  69.546  1.00  0.00    -0.044 C  
HETATM   18  C   UNL     1      -7.657  10.348  69.074  1.00  0.00    -0.108 C  
BRANCH  16  19
HETATM   19  C   UNL     1      -7.666   8.157  71.257  1.00  0.00    -0.091 A  
HETATM   20  N   UNL     1      -7.314   8.972  72.262  1.00  0.00    -0.328 NA 
HETATM   21  O   UNL     1      -8.112   8.625  73.334  1.00  0.00    -0.411 OA 
HETATM   22  C   UNL     1      -8.952   7.619  72.967  1.00  0.00    -0.176 A  
HETATM   23  C   UNL     1      -8.767   7.330  71.632  1.00  0.00    -0.122 A  
HETATM   24  C   UNL     1      -9.573   6.341  71.041  1.00  0.00    -0.191 A  
HETATM   25  C   UNL     1     -10.484   5.654  71.857  1.00  0.00    -0.279 A  
HETATM   26  C   UNL     1     -10.598   5.962  73.211  1.00  0.00    -0.255 A  
HETATM   27  C   UNL     1      -9.853   6.975  73.807  1.00  0.00    -0.341 A  
HETATM   28  F   UNL     1     -11.450   5.255  73.965  1.00  0.00    -0.118 F  
ENDBRANCH  16  19
ENDBRANCH  12  13
ENDBRANCH  11  12
ENDBRANCH  10  11
ENDBRANCH   9  10
ENDBRANCH   4   9
BRANCH   6  29
HETATM   29  C   UNL     1     -10.548  16.668  65.558  1.00  0.00    -0.258 C  
HETATM   30  O   UNL     1     -11.071  17.033  64.506  1.00  0.00    -1.098 OA 
HETATM   31  C   UNL     1      -9.539  17.540  66.263  1.00  0.00    -0.253 C  
ENDBRANCH   6  29
ENDBRANCH   2   3
TORSDOF 8
ENDMDL
MODEL       67
REMARK 921   NORMALIZED FREE ENERGY PREDICTED BY IDOCK:   -6.10 KCAL/MOL
REMARK 922        TOTAL FREE ENERGY PREDICTED BY IDOCK:   -9.74 KCAL/MOL
REMARK 923 INTER-LIGAND FREE ENERGY PREDICTED BY IDOCK:   -9.32 KCAL/MOL
REMARK 924 INTRA-LIGAND FREE ENERGY PREDICTED BY IDOCK:   -0.42 KCAL/MOL
REMARK 927      BINDING AFFINITY PREDICTED BY RF-SCORE:    0.00 PKD
ROOT
HETATM    1  C   UNL     1     -14.395   8.324  71.386  1.00  0.00    -0.361 C  
HETATM    2  O   UNL     1     -13.491   9.391  71.139  1.00  0.00    -0.314 OA 
ENDROOT
BRANCH   2   3
HETATM    3  C   UNL     1     -12.163   9.168  71.404  1.00  0.00    -0.335 A  
HETATM    4  C   UNL     1     -11.250   9.876  70.601  1.00  0.00    -0.344 A  
HETATM    5  C   UNL     1      -9.878   9.707  70.801  1.00  0.00    -0.224 A  
HETATM    6  C   UNL     1     -10.309   8.154  72.606  1.00  0.00    -0.398 A  
HETATM    7  C   UNL     1     -11.686   8.322  72.411  1.00  0.00    -0.463 A  
HETATM    8  C   UNL     1      -9.408   8.859  71.808  1.00  0.00    -0.304 A  
BRANCH   4   9
HETATM    9  O   UNL     1     -11.778  10.673  69.619  1.00  0.00    -0.267 OA 
BRANCH   9  10
HETATM   10  C   UNL     1     -11.798  12.083  69.842  1.00  0.00    -0.331 C  
BRANCH  10  11
HETATM   11  C   UNL     1     -10.851  12.835  68.899  1.00  0.00    -0.236 C  
BRANCH  11  12
HETATM   12  C   UNL     1     -11.495  14.025  68.163  1.00  0.00    -0.309 C  
BRANCH  12  13
HETATM   13  N   UNL     1     -11.488  13.841  66.708  1.00  0.00    -0.333 NA 
HETATM   14  C   UNL     1     -12.156  12.606  66.279  1.00  0.00    -0.289 C  
HETATM   15  C   UNL     1     -12.302  12.579  64.745  1.00  0.00    -0.544 C  
HETATM   16  C   UNL     1     -10.986  12.875  63.996  1.00  0.00    -0.447 C  
HETATM   17  C   UNL     1     -10.345  14.126  64.621  1.00  0.00    -0.296 C  
HETATM   18  C   UNL     1     -10.155  13.943  66.120  1.00  0.00    -0.308 C  
BRANCH  16  19
HETATM   19  C   UNL     1     -10.019  11.720  63.974  1.00  0.00    -0.293 A  
HETATM   20  N   UNL     1      -9.230  11.500  62.911  1.00  0.00    -0.291 NA 
HETATM   21  O   UNL     1      -8.615  10.286  63.136  1.00  0.00    -0.165 OA 
HETATM   22  C   UNL     1      -9.018   9.788  64.337  1.00  0.00    -0.245 A  
HETATM   23  C   UNL     1      -9.855  10.693  64.952  1.00  0.00    -0.363 A  
HETATM   24  C   UNL     1     -10.353  10.387  66.231  1.00  0.00    -0.270 A  
HETATM   25  C   UNL     1     -10.021   9.144  66.791  1.00  0.00    -0.322 A  
HETATM   26  C   UNL     1      -9.203   8.251  66.103  1.00  0.00    -0.192 A  
HETATM   27  C   UNL     1      -8.652   8.554  64.862  1.00  0.00    -0.135 A  
HETATM   28  F   UNL     1      -8.944   7.057  66.653  1.00  0.00    -0.121 F  
ENDBRANCH  16  19
ENDBRANCH  12  13
ENDBRANCH  11  12
ENDBRANCH  10  11
ENDBRANCH   9  10
ENDBRANCH   4   9
BRANCH   6  29
HETATM   29  C   UNL     1      -9.858   7.218  73.672  1.00  0.00    -0.307 C  
HETATM   30  O   UNL     1     -10.614   6.324  74.050  1.00  0.00    -0.280 OA 
HETATM   31  C   UNL     1      -8.461   7.335  74.229  1.00  0.00    -0.229 C  
ENDBRANCH   6  29
ENDBRANCH   2   3
TORSDOF 8
ENDMDL
MODEL       68
REMARK 921   NORMALIZED FREE ENERGY PREDICTED BY IDOCK:   -6.07 KCAL/MOL
REMARK 922        TOTAL FREE ENERGY PREDICTED BY IDOCK:   -9.70 KCAL/MOL
REMARK 923 INTER-LIGAND FREE ENERGY PREDICTED BY IDOCK:   -8.92 KCAL/MOL
REMARK 924 INTRA-LIGAND FREE ENERGY PREDICTED BY IDOCK:   -0.78 KCAL/MOL
REMARK 927      BINDING AFFINITY PREDICTED BY RF-SCORE:    0.00 PKD
ROOT
HETATM    1  C   UNL     1     -12.373  12.188  63.867  1.00  0.00    -0.487 C  
HETATM    2  O   UNL     1     -12.517  12.169  65.280  1.00  0.00    -0.520 OA 
ENDROOT
BRANCH   2   3
HETATM    3  C   UNL     1     -11.921  13.182  65.989  1.00  0.00    -0.433 A  
HETATM    4  C   UNL     1     -11.698  12.927  67.355  1.00  0.00    -0.372 A  
HETATM    5  C   UNL     1     -11.098  13.904  68.152  1.00  0.00    -0.278 A  
HETATM    6  C   UNL     1     -10.916  15.381  66.244  1.00  0.00    -0.278 A  
HETATM    7  C   UNL     1     -11.515  14.403  65.440  1.00  0.00    -0.344 A  
HETATM    8  C   UNL     1     -10.697  15.122  67.597  1.00  0.00    -0.285 A  
BRANCH   4   9
HETATM    9  O   UNL     1     -12.136  11.721  67.838  1.00  0.00    -0.592 OA 
BRANCH   9  10
HETATM   10  C   UNL     1     -11.165  10.829  68.386  1.00  0.00    -0.284 C  
BRANCH  10  11
HETATM   11  C   UNL     1     -11.152  10.854  69.919  1.00  0.00    -0.311 C  
BRANCH  11  12
HETATM   12  C   UNL     1     -12.227   9.972  70.582  1.00  0.00    -0.269 C  
BRANCH  12  13
HETATM   13  N   UNL     1     -11.638   8.852  71.325  1.00  0.00    -0.285 NA 
HETATM   14  C   UNL     1     -10.268   9.118  71.778  1.00  0.00    -0.235 C  
HETATM   15  C   UNL     1      -9.791   7.999  72.727  1.00  0.00    -0.351 C  
HETATM   16  C   UNL     1     -10.003   6.580  72.160  1.00  0.00    -0.173 C  
HETATM   17  C   UNL     1     -11.441   6.483  71.626  1.00  0.00    -0.345 C  
HETATM   18  C   UNL     1     -11.713   7.583  70.608  1.00  0.00    -0.215 C  
BRANCH  16  19
HETATM   19  C   UNL     1      -9.001   6.183  71.108  1.00  0.00    -0.143 A  
HETATM   20  N   UNL     1      -8.024   7.022  70.733  1.00  0.00    -0.100 NA 
HETATM   21  O   UNL     1      -7.410   6.433  69.647  1.00  0.00    -0.076 OA 
HETATM   22  C   UNL     1      -8.003   5.237  69.383  1.00  0.00    -0.088 A  
HETATM   23  C   UNL     1      -8.974   4.988  70.328  1.00  0.00    -0.151 A  
HETATM   24  C   UNL     1      -9.683   3.775  70.260  1.00  0.00    -0.222 A  
HETATM   25  C   UNL     1      -9.406   2.905  69.194  1.00  0.00    -0.211 A  
HETATM   26  C   UNL     1      -8.440   3.230  68.244  1.00  0.00    -0.085 A  
HETATM   27  C   UNL     1      -7.686   4.397  68.321  1.00  0.00    -0.075 A  
HETATM   28  F   UNL     1      -8.236   2.393  67.219  1.00  0.00    -0.068 F  
ENDBRANCH  16  19
ENDBRANCH  12  13
ENDBRANCH  11  12
ENDBRANCH  10  11
ENDBRANCH   9  10
ENDBRANCH   4   9
BRANCH   6  29
HETATM   29  C   UNL     1     -10.532  16.674  65.612  1.00  0.00    -0.297 C  
HETATM   30  O   UNL     1     -11.056  17.005  64.550  1.00  0.00    -1.098 OA 
HETATM   31  C   UNL     1      -9.558  17.588  66.312  1.00  0.00    -0.253 C  
ENDBRANCH   6  29
ENDBRANCH   2   3
TORSDOF 8
ENDMDL
MODEL       69
REMARK 921   NORMALIZED FREE ENERGY PREDICTED BY IDOCK:   -6.05 KCAL/MOL
REMARK 922        TOTAL FREE ENERGY PREDICTED BY IDOCK:   -9.67 KCAL/MOL
REMARK 923 INTER-LIGAND FREE ENERGY PREDICTED BY IDOCK:   -8.78 KCAL/MOL
REMARK 924 INTRA-LIGAND FREE ENERGY PREDICTED BY IDOCK:   -0.89 KCAL/MOL
REMARK 927      BINDING AFFINITY PREDICTED BY RF-SCORE:    0.00 PKD
ROOT
HETATM    1  C   UNL     1     -11.469   7.714  70.980  1.00  0.00    -0.276 C  
HETATM    2  O   UNL     1     -10.912   8.007  69.707  1.00  0.00    -0.227 OA 
ENDROOT
BRANCH   2   3
HETATM    3  C   UNL     1     -10.547   6.945  68.918  1.00  0.00    -0.221 A  
HETATM    4  C   UNL     1     -10.428   7.213  67.542  1.00  0.00    -0.260 A  
HETATM    5  C   UNL     1     -10.062   6.188  66.667  1.00  0.00    -0.218 A  
HETATM    6  C   UNL     1      -9.909   4.633  68.514  1.00  0.00    -0.181 A  
HETATM    7  C   UNL     1     -10.273   5.659  69.397  1.00  0.00    -0.315 A  
HETATM    8  C   UNL     1      -9.792   4.906  67.151  1.00  0.00    -0.215 A  
BRANCH   4   9
HETATM    9  O   UNL     1     -10.729   8.487  67.133  1.00  0.00    -0.280 OA 
BRANCH   9  10
HETATM   10  C   UNL     1      -9.700   9.244  66.495  1.00  0.00    -0.240 C  
BRANCH  10  11
HETATM   11  C   UNL     1      -8.894  10.086  67.492  1.00  0.00    -0.130 C  
BRANCH  11  12
HETATM   12  C   UNL     1      -8.617  11.529  67.032  1.00  0.00    -0.161 C  
BRANCH  12  13
HETATM   13  N   UNL     1      -9.841  12.337  66.989  1.00  0.00    -0.203 NA 
HETATM   14  C   UNL     1      -9.592  13.743  66.651  1.00  0.00    -0.288 C  
HETATM   15  C   UNL     1     -10.925  14.481  66.413  1.00  0.00    -0.324 C  
HETATM   16  C   UNL     1     -11.951  14.279  67.546  1.00  0.00    -0.411 C  
HETATM   17  C   UNL     1     -12.027  12.777  67.868  1.00  0.00    -0.320 C  
HETATM   18  C   UNL     1     -10.646  12.228  68.202  1.00  0.00    -0.214 C  
BRANCH  16  19
HETATM   19  C   UNL     1     -11.667  15.089  68.784  1.00  0.00    -0.334 A  
HETATM   20  N   UNL     1     -10.783  16.097  68.761  1.00  0.00    -0.275 NA 
HETATM   21  O   UNL     1     -10.627  16.500  70.072  1.00  0.00    -0.276 OA 
HETATM   22  C   UNL     1     -11.429  15.750  70.875  1.00  0.00    -0.403 A  
HETATM   23  C   UNL     1     -12.172  14.884  70.103  1.00  0.00    -0.387 A  
HETATM   24  C   UNL     1     -13.102  14.043  70.741  1.00  0.00    -0.245 A  
HETATM   25  C   UNL     1     -13.180  14.084  72.141  1.00  0.00    -0.526 A  
HETATM   26  C   UNL     1     -12.372  14.952  72.873  1.00  0.00    -0.328 A  
HETATM   27  C   UNL     1     -11.487  15.834  72.262  1.00  0.00    -0.416 A  
HETATM   28  F   UNL     1     -12.447  14.930  74.210  1.00  0.00    -0.631 F  
ENDBRANCH  16  19
ENDBRANCH  12  13
ENDBRANCH  11  12
ENDBRANCH  10  11
ENDBRANCH   9  10
ENDBRANCH   4   9
BRANCH   6  29
HETATM   29  C   UNL     1      -9.659   3.277  69.075  1.00  0.00    -0.031 C  
HETATM   30  O   UNL     1      -9.523   2.324  68.311  1.00  0.00    -0.205 OA 
HETATM   31  C   UNL     1      -9.512   3.101  70.567  1.00  0.00    -0.236 C  
ENDBRANCH   6  29
ENDBRANCH   2   3
TORSDOF 8
ENDMDL
MODEL       70
REMARK 921   NORMALIZED FREE ENERGY PREDICTED BY IDOCK:   -6.05 KCAL/MOL
REMARK 922        TOTAL FREE ENERGY PREDICTED BY IDOCK:   -9.67 KCAL/MOL
REMARK 923 INTER-LIGAND FREE ENERGY PREDICTED BY IDOCK:   -8.90 KCAL/MOL
REMARK 924 INTRA-LIGAND FREE ENERGY PREDICTED BY IDOCK:   -0.77 KCAL/MOL
REMARK 927      BINDING AFFINITY PREDICTED BY RF-SCORE:    0.00 PKD
ROOT
HETATM    1  C   UNL     1     -12.348   7.088  71.068  1.00  0.00    -0.356 C  
HETATM    2  O   UNL     1     -11.503   7.447  69.984  1.00  0.00    -0.189 OA 
ENDROOT
BRANCH   2   3
HETATM    3  C   UNL     1     -10.308   8.049  70.288  1.00  0.00    -0.212 A  
HETATM    4  C   UNL     1      -9.787   8.910  69.305  1.00  0.00    -0.176 A  
HETATM    5  C   UNL     1      -8.573   9.564  69.531  1.00  0.00    -0.171 A  
HETATM    6  C   UNL     1      -8.398   8.533  71.713  1.00  0.00    -0.221 A  
HETATM    7  C   UNL     1      -9.617   7.877  71.492  1.00  0.00    -0.189 A  
HETATM    8  C   UNL     1      -7.887   9.386  70.736  1.00  0.00    -0.151 A  
BRANCH   4   9
HETATM    9  O   UNL     1     -10.500   9.022  68.140  1.00  0.00    -0.215 OA 
BRANCH   9  10
HETATM   10  C   UNL     1      -9.783   8.946  66.907  1.00  0.00    -0.202 C  
BRANCH  10  11
HETATM   11  C   UNL     1     -10.128  10.101  65.960  1.00  0.00    -0.317 C  
BRANCH  11  12
HETATM   12  C   UNL     1      -9.228  11.342  66.112  1.00  0.00    -0.210 C  
BRANCH  12  13
HETATM   13  N   UNL     1      -9.796  12.322  67.044  1.00  0.00    -0.203 NA 
HETATM   14  C   UNL     1     -11.150  12.753  66.674  1.00  0.00    -0.276 C  
HETATM   15  C   UNL     1     -11.766  13.609  67.799  1.00  0.00    -0.397 C  
HETATM   16  C   UNL     1     -10.848  14.755  68.273  1.00  0.00    -0.251 C  
HETATM   17  C   UNL     1      -9.443  14.179  68.517  1.00  0.00    -0.202 C  
HETATM   18  C   UNL     1      -8.927  13.473  67.271  1.00  0.00    -0.222 C  
BRANCH  16  19
HETATM   19  C   UNL     1     -10.801  15.932  67.335  1.00  0.00    -0.291 A  
HETATM   20  N   UNL     1     -10.908  15.763  66.009  1.00  0.00    -0.294 NA 
HETATM   21  O   UNL     1     -10.646  16.995  65.444  1.00  0.00    -0.601 OA 
HETATM   22  C   UNL     1     -10.402  17.903  66.428  1.00  0.00    -0.365 A  
HETATM   23  C   UNL     1     -10.561  17.302  67.657  1.00  0.00    -0.350 A  
HETATM   24  C   UNL     1     -10.393  18.084  68.814  1.00  0.00    -0.294 A  
HETATM   25  C   UNL     1     -10.012  19.425  68.658  1.00  0.00    -0.527 A  
HETATM   26  C   UNL     1      -9.825  19.967  67.388  1.00  0.00    -0.422 A  
HETATM   27  C   UNL     1     -10.040  19.231  66.227  1.00  0.00    -0.519 A  
HETATM   28  F   UNL     1      -9.419  21.240  67.282  1.00  0.00    -0.533 F  
ENDBRANCH  16  19
ENDBRANCH  12  13
ENDBRANCH  11  12
ENDBRANCH  10  11
ENDBRANCH   9  10
ENDBRANCH   4   9
BRANCH   6  29
HETATM   29  C   UNL     1      -7.691   8.289  73.000  1.00  0.00    -0.125 C  
HETATM   30  O   UNL     1      -8.239   8.595  74.058  1.00  0.00    -0.359 OA 
HETATM   31  C   UNL     1      -6.342   7.612  72.996  1.00  0.00    -0.062 C  
ENDBRANCH   6  29
ENDBRANCH   2   3
TORSDOF 8
ENDMDL
MODEL       71
REMARK 921   NORMALIZED FREE ENERGY PREDICTED BY IDOCK:   -6.05 KCAL/MOL
REMARK 922        TOTAL FREE ENERGY PREDICTED BY IDOCK:   -9.67 KCAL/MOL
REMARK 923 INTER-LIGAND FREE ENERGY PREDICTED BY IDOCK:   -8.48 KCAL/MOL
REMARK 924 INTRA-LIGAND FREE ENERGY PREDICTED BY IDOCK:   -1.19 KCAL/MOL
REMARK 927      BINDING AFFINITY PREDICTED BY RF-SCORE:    0.00 PKD
ROOT
HETATM    1  C   UNL     1     -12.000  15.324  69.568  1.00  0.00    -0.330 C  
HETATM    2  O   UNL     1     -10.606  15.349  69.836  1.00  0.00    -0.270 OA 
ENDROOT
BRANCH   2   3
HETATM    3  C   UNL     1      -9.857  16.305  69.197  1.00  0.00    -0.258 A  
HETATM    4  C   UNL     1      -8.467  16.090  69.185  1.00  0.00    -0.247 A  
HETATM    5  C   UNL     1      -7.629  17.015  68.558  1.00  0.00    -0.231 A  
HETATM    6  C   UNL     1      -9.543  18.358  67.932  1.00  0.00    -0.309 A  
HETATM    7  C   UNL     1     -10.387  17.431  68.557  1.00  0.00    -0.378 A  
HETATM    8  C   UNL     1      -8.165  18.138  67.922  1.00  0.00    -0.253 A  
BRANCH   4   9
HETATM    9  O   UNL     1      -8.007  14.980  69.846  1.00  0.00    -0.094 OA 
BRANCH   9  10
HETATM   10  C   UNL     1      -6.699  14.506  69.526  1.00  0.00    -0.151 C  
BRANCH  10  11
HETATM   11  C   UNL     1      -6.730  13.147  68.816  1.00  0.00    -0.100 C  
BRANCH  11  12
HETATM   12  C   UNL     1      -7.174  13.205  67.342  1.00  0.00    -0.110 C  
BRANCH  12  13
HETATM   13  N   UNL     1      -8.119  12.134  67.010  1.00  0.00    -0.172 NA 
HETATM   14  C   UNL     1      -9.469  12.628  66.713  1.00  0.00    -0.237 C  
HETATM   15  C   UNL     1     -10.350  11.487  66.167  1.00  0.00    -0.287 C  
HETATM   16  C   UNL     1     -10.323  10.217  67.042  1.00  0.00    -0.303 C  
HETATM   17  C   UNL     1      -8.857   9.882  67.363  1.00  0.00    -0.137 C  
HETATM   18  C   UNL     1      -8.162  11.072  68.010  1.00  0.00    -0.123 C  
BRANCH  16  19
HETATM   19  C   UNL     1     -11.147  10.318  68.299  1.00  0.00    -0.254 A  
HETATM   20  N   UNL     1     -11.942  11.377  68.519  1.00  0.00    -0.555 NA 
HETATM   21  O   UNL     1     -12.402  11.246  69.814  1.00  0.00    -0.276 OA 
HETATM   22  C   UNL     1     -11.902  10.105  70.361  1.00  0.00    -0.288 A  
HETATM   23  C   UNL     1     -11.156   9.433  69.418  1.00  0.00    -0.098 A  
HETATM   24  C   UNL     1     -10.581   8.198  69.770  1.00  0.00    -0.231 A  
HETATM   25  C   UNL     1     -10.745   7.743  71.088  1.00  0.00    -0.245 A  
HETATM   26  C   UNL     1     -11.477   8.489  72.010  1.00  0.00    -0.361 A  
HETATM   27  C   UNL     1     -12.103   9.683  71.670  1.00  0.00    -0.481 A  
HETATM   28  F   UNL     1     -11.575   8.041  73.269  1.00  0.00    -0.411 F  
ENDBRANCH  16  19
ENDBRANCH  12  13
ENDBRANCH  11  12
ENDBRANCH  10  11
ENDBRANCH   9  10
ENDBRANCH   4   9
BRANCH   6  29
HETATM   29  C   UNL     1     -10.159  19.553  67.293  1.00  0.00    -0.405 C  
HETATM   30  O   UNL     1     -10.280  20.589  67.944  1.00  0.00    -0.310 OA 
HETATM   31  C   UNL     1     -10.568  19.498  65.842  1.00  0.00    -0.572 C  
ENDBRANCH   6  29
ENDBRANCH   2   3
TORSDOF 8
ENDMDL
MODEL       72
REMARK 921   NORMALIZED FREE ENERGY PREDICTED BY IDOCK:   -6.03 KCAL/MOL
REMARK 922        TOTAL FREE ENERGY PREDICTED BY IDOCK:   -9.65 KCAL/MOL
REMARK 923 INTER-LIGAND FREE ENERGY PREDICTED BY IDOCK:   -8.08 KCAL/MOL
REMARK 924 INTRA-LIGAND FREE ENERGY PREDICTED BY IDOCK:   -1.56 KCAL/MOL
REMARK 927      BINDING AFFINITY PREDICTED BY RF-SCORE:    0.00 PKD
ROOT
HETATM    1  C   UNL     1     -10.664  14.466  64.894  1.00  0.00    -0.426 C  
HETATM    2  O   UNL     1     -10.972  15.577  65.724  1.00  0.00    -0.327 OA 
ENDROOT
BRANCH   2   3
HETATM    3  C   UNL     1     -10.998  15.363  67.080  1.00  0.00    -0.306 A  
HETATM    4  C   UNL     1     -10.564  16.437  67.879  1.00  0.00    -0.320 A  
HETATM    5  C   UNL     1     -10.557  16.304  69.270  1.00  0.00    -0.293 A  
HETATM    6  C   UNL     1     -11.430  14.055  69.084  1.00  0.00    -0.340 A  
HETATM    7  C   UNL     1     -11.442  14.184  67.689  1.00  0.00    -0.364 A  
HETATM    8  C   UNL     1     -11.000  15.123  69.871  1.00  0.00    -0.291 A  
BRANCH   4   9
HETATM    9  O   UNL     1     -10.123  17.557  67.224  1.00  0.00    -0.305 OA 
BRANCH   9  10
HETATM   10  C   UNL     1     -10.837  18.776  67.430  1.00  0.00    -0.348 C  
BRANCH  10  11
HETATM   11  C   UNL     1      -9.911  19.936  67.812  1.00  0.00    -0.552 C  
BRANCH  11  12
HETATM   12  C   UNL     1      -8.906  20.339  66.717  1.00  0.00    -0.270 C  
BRANCH  12  13
HETATM   13  N   UNL     1      -7.546  19.882  67.024  1.00  0.00    -0.258 NA 
HETATM   14  C   UNL     1      -7.213  18.599  66.393  1.00  0.00    -0.241 C  
HETATM   15  C   UNL     1      -5.715  18.284  66.577  1.00  0.00    -0.183 C  
HETATM   16  C   UNL     1      -5.234  18.412  68.037  1.00  0.00    -0.166 C  
HETATM   17  C   UNL     1      -5.746  19.748  68.600  1.00  0.00    -0.249 C  
HETATM   18  C   UNL     1      -7.259  19.849  68.455  1.00  0.00    -0.296 C  
BRANCH  16  19
HETATM   19  C   UNL     1      -5.635  17.258  68.918  1.00  0.00    -0.155 A  
HETATM   20  N   UNL     1      -5.234  17.194  70.197  1.00  0.00    -0.191 NA 
HETATM   21  O   UNL     1      -5.614  15.949  70.655  1.00  0.00    -0.147 OA 
HETATM   22  C   UNL     1      -6.256  15.276  69.662  1.00  0.00    -0.147 A  
HETATM   23  C   UNL     1      -6.367  16.088  68.555  1.00  0.00    -0.115 A  
HETATM   24  C   UNL     1      -7.041  15.594  67.423  1.00  0.00    -0.241 A  
HETATM   25  C   UNL     1      -7.513  14.273  67.458  1.00  0.00    -0.201 A  
HETATM   26  C   UNL     1      -7.335  13.484  68.593  1.00  0.00    -0.112 A  
HETATM   27  C   UNL     1      -6.722  13.968  69.745  1.00  0.00    -0.038 A  
HETATM   28  F   UNL     1      -7.762  12.215  68.571  1.00  0.00    -0.109 F  
ENDBRANCH  16  19
ENDBRANCH  12  13
ENDBRANCH  11  12
ENDBRANCH  10  11
ENDBRANCH   9  10
ENDBRANCH   4   9
BRANCH   6  29
HETATM   29  C   UNL     1     -11.884  12.767  69.675  1.00  0.00    -0.317 C  
HETATM   30  O   UNL     1     -12.303  12.748  70.831  1.00  0.00    -0.372 OA 
HETATM   31  C   UNL     1     -11.886  11.516  68.832  1.00  0.00    -0.406 C  
ENDBRANCH   6  29
ENDBRANCH   2   3
TORSDOF 8
ENDMDL
MODEL       73
REMARK 921   NORMALIZED FREE ENERGY PREDICTED BY IDOCK:   -6.02 KCAL/MOL
REMARK 922        TOTAL FREE ENERGY PREDICTED BY IDOCK:   -9.63 KCAL/MOL
REMARK 923 INTER-LIGAND FREE ENERGY PREDICTED BY IDOCK:   -8.70 KCAL/MOL
REMARK 924 INTRA-LIGAND FREE ENERGY PREDICTED BY IDOCK:   -0.94 KCAL/MOL
REMARK 927      BINDING AFFINITY PREDICTED BY RF-SCORE:    0.00 PKD
ROOT
HETATM    1  C   UNL     1      -7.167   4.571  67.938  1.00  0.00    -0.065 C  
HETATM    2  O   UNL     1      -8.376   5.183  67.514  1.00  0.00    -0.106 OA 
ENDROOT
BRANCH   2   3
HETATM    3  C   UNL     1      -9.309   5.472  68.478  1.00  0.00    -0.121 A  
HETATM    4  C   UNL     1     -10.241   6.474  68.150  1.00  0.00    -0.168 A  
HETATM    5  C   UNL     1     -11.225   6.832  69.074  1.00  0.00    -0.214 A  
HETATM    6  C   UNL     1     -10.381   5.194  70.643  1.00  0.00    -0.305 A  
HETATM    7  C   UNL     1      -9.394   4.829  69.717  1.00  0.00    -0.208 A  
HETATM    8  C   UNL     1     -11.303   6.187  70.311  1.00  0.00    -0.414 A  
BRANCH   4   9
HETATM    9  O   UNL     1     -10.093   7.080  66.929  1.00  0.00    -0.197 OA 
BRANCH   9  10
HETATM   10  C   UNL     1      -9.971   8.502  66.900  1.00  0.00    -0.265 C  
BRANCH  10  11
HETATM   11  C   UNL     1      -8.646   8.986  67.500  1.00  0.00    -0.120 C  
BRANCH  11  12
HETATM   12  C   UNL     1      -8.546  10.512  67.681  1.00  0.00    -0.118 C  
BRANCH  12  13
HETATM   13  N   UNL     1      -9.866  11.151  67.706  1.00  0.00    -0.169 NA 
HETATM   14  C   UNL     1      -9.880  12.472  67.067  1.00  0.00    -0.217 C  
HETATM   15  C   UNL     1     -11.326  12.990  66.937  1.00  0.00    -0.352 C  
HETATM   16  C   UNL     1     -12.126  12.919  68.254  1.00  0.00    -0.173 C  
HETATM   17  C   UNL     1     -11.931  11.521  68.864  1.00  0.00    -0.364 C  
HETATM   18  C   UNL     1     -10.451  11.212  69.042  1.00  0.00    -0.206 C  
BRANCH  16  19
HETATM   19  C   UNL     1     -11.776  14.000  69.244  1.00  0.00    -0.326 A  
HETATM   20  N   UNL     1     -10.787  14.871  68.993  1.00  0.00    -0.236 NA 
HETATM   21  O   UNL     1     -10.611  15.594  70.156  1.00  0.00    -0.309 OA 
HETATM   22  C   UNL     1     -11.502  15.171  71.093  1.00  0.00    -0.343 A  
HETATM   23  C   UNL     1     -12.322  14.208  70.546  1.00  0.00    -0.434 A  
HETATM   24  C   UNL     1     -13.347  13.666  71.342  1.00  0.00    -0.321 A  
HETATM   25  C   UNL     1     -13.444  14.090  72.676  1.00  0.00    -0.650 A  
HETATM   26  C   UNL     1     -12.558  15.038  73.186  1.00  0.00    -0.469 A  
HETATM   27  C   UNL     1     -11.573  15.631  72.403  1.00  0.00    -0.523 A  
HETATM   28  F   UNL     1     -12.657  15.385  74.476  1.00  0.00    -0.634 F  
ENDBRANCH  16  19
ENDBRANCH  12  13
ENDBRANCH  11  12
ENDBRANCH  10  11
ENDBRANCH   9  10
ENDBRANCH   4   9
BRANCH   6  29
HETATM   29  C   UNL     1     -10.405   4.498  71.958  1.00  0.00    -0.146 C  
HETATM   30  O   UNL     1      -9.902   3.380  72.058  1.00  0.00    -0.154 OA 
HETATM   31  C   UNL     1     -10.987   5.194  73.163  1.00  0.00    -0.368 C  
ENDBRANCH   6  29
ENDBRANCH   2   3
TORSDOF 8
ENDMDL
MODEL       74
REMARK 921   NORMALIZED FREE ENERGY PREDICTED BY IDOCK:   -6.01 KCAL/MOL
REMARK 922        TOTAL FREE ENERGY PREDICTED BY IDOCK:   -9.61 KCAL/MOL
REMARK 923 INTER-LIGAND FREE ENERGY PREDICTED BY IDOCK:   -8.85 KCAL/MOL
REMARK 924 INTRA-LIGAND FREE ENERGY PREDICTED BY IDOCK:   -0.76 KCAL/MOL
REMARK 927      BINDING AFFINITY PREDICTED BY RF-SCORE:    0.00 PKD
ROOT
HETATM    1  C   UNL     1      -7.451   4.953  68.262  1.00  0.00    -0.074 C  
HETATM    2  O   UNL     1      -8.804   5.265  67.968  1.00  0.00    -0.106 OA 
ENDROOT
BRANCH   2   3
HETATM    3  C   UNL     1      -9.642   5.505  69.028  1.00  0.00    -0.136 A  
HETATM    4  C   UNL     1     -10.723   6.369  68.774  1.00  0.00    -0.287 A  
HETATM    5  C   UNL     1     -11.624   6.668  69.799  1.00  0.00    -0.354 A  
HETATM    6  C   UNL     1     -10.401   5.242  71.324  1.00  0.00    -0.292 A  
HETATM    7  C   UNL     1      -9.496   4.936  70.298  1.00  0.00    -0.238 A  
HETATM    8  C   UNL     1     -11.471   6.098  71.065  1.00  0.00    -0.316 A  
BRANCH   4   9
HETATM    9  O   UNL     1     -10.800   6.909  67.517  1.00  0.00    -0.266 OA 
BRANCH   9  10
HETATM   10  C   UNL     1     -10.645   8.322  67.386  1.00  0.00    -0.253 C  
BRANCH  10  11
HETATM   11  C   UNL     1      -9.790   8.705  66.173  1.00  0.00    -0.269 C  
BRANCH  11  12
HETATM   12  C   UNL     1      -9.361  10.184  66.134  1.00  0.00    -0.172 C  
BRANCH  12  13
HETATM   13  N   UNL     1     -10.503  11.092  66.287  1.00  0.00    -0.255 NA 
HETATM   14  C   UNL     1     -10.915  11.718  65.025  1.00  0.00    -0.300 C  
HETATM   15  C   UNL     1     -12.240  12.484  65.215  1.00  0.00    -0.493 C  
HETATM   16  C   UNL     1     -12.228  13.446  66.421  1.00  0.00    -0.435 C  
HETATM   17  C   UNL     1     -11.674  12.687  67.639  1.00  0.00    -0.420 C  
HETATM   18  C   UNL     1     -10.305  12.096  67.328  1.00  0.00    -0.212 C  
BRANCH  16  19
HETATM   19  C   UNL     1     -11.466  14.723  66.180  1.00  0.00    -0.311 A  
HETATM   20  N   UNL     1     -11.017  15.039  64.957  1.00  0.00    -0.399 NA 
HETATM   21  O   UNL     1     -10.222  16.155  65.118  1.00  0.00    -0.542 OA 
HETATM   22  C   UNL     1     -10.210  16.519  66.429  1.00  0.00    -0.316 A  
HETATM   23  C   UNL     1     -11.046  15.689  67.143  1.00  0.00    -0.218 A  
HETATM   24  C   UNL     1     -11.210  15.924  68.520  1.00  0.00    -0.362 A  
HETATM   25  C   UNL     1     -10.464  16.956  69.110  1.00  0.00    -0.335 A  
HETATM   26  C   UNL     1      -9.602  17.737  68.343  1.00  0.00    -0.323 A  
HETATM   27  C   UNL     1      -9.465  17.562  66.969  1.00  0.00    -0.268 A  
HETATM   28  F   UNL     1      -8.875  18.684  68.951  1.00  0.00    -0.338 F  
ENDBRANCH  16  19
ENDBRANCH  12  13
ENDBRANCH  11  12
ENDBRANCH  10  11
ENDBRANCH   9  10
ENDBRANCH   4   9
BRANCH   6  29
HETATM   29  C   UNL     1     -10.179   4.632  72.663  1.00  0.00    -0.184 C  
HETATM   30  O   UNL     1     -10.994   4.836  73.561  1.00  0.00    -0.271 OA 
HETATM   31  C   UNL     1      -8.996   3.723  72.885  1.00  0.00    -0.109 C  
ENDBRANCH   6  29
ENDBRANCH   2   3
TORSDOF 8
ENDMDL
MODEL       75
REMARK 921   NORMALIZED FREE ENERGY PREDICTED BY IDOCK:   -6.00 KCAL/MOL
REMARK 922        TOTAL FREE ENERGY PREDICTED BY IDOCK:   -9.61 KCAL/MOL
REMARK 923 INTER-LIGAND FREE ENERGY PREDICTED BY IDOCK:   -8.68 KCAL/MOL
REMARK 924 INTRA-LIGAND FREE ENERGY PREDICTED BY IDOCK:   -0.92 KCAL/MOL
REMARK 927      BINDING AFFINITY PREDICTED BY RF-SCORE:    0.00 PKD
ROOT
HETATM    1  C   UNL     1      -9.605   4.574  69.585  1.00  0.00    -0.199 C  
HETATM    2  O   UNL     1     -10.270   5.635  68.914  1.00  0.00    -0.174 OA 
ENDROOT
BRANCH   2   3
HETATM    3  C   UNL     1     -10.565   6.758  69.645  1.00  0.00    -0.233 A  
HETATM    4  C   UNL     1      -9.580   7.763  69.652  1.00  0.00    -0.163 A  
HETATM    5  C   UNL     1      -9.799   8.939  70.373  1.00  0.00    -0.224 A  
HETATM    6  C   UNL     1     -11.975   8.140  71.065  1.00  0.00    -0.257 A  
HETATM    7  C   UNL     1     -11.763   6.959  70.341  1.00  0.00    -0.377 A  
HETATM    8  C   UNL     1     -10.996   9.133  71.067  1.00  0.00    -0.375 A  
BRANCH   4   9
HETATM    9  O   UNL     1      -8.422   7.498  68.969  1.00  0.00    -0.131 OA 
BRANCH   9  10
HETATM   10  C   UNL     1      -7.895   8.522  68.124  1.00  0.00    -0.103 C  
BRANCH  10  11
HETATM   11  C   UNL     1      -8.856   8.891  66.987  1.00  0.00    -0.138 C  
BRANCH  11  12
HETATM   12  C   UNL     1      -8.647  10.302  66.407  1.00  0.00    -0.133 C  
BRANCH  12  13
HETATM   13  N   UNL     1      -9.875  11.102  66.452  1.00  0.00    -0.205 NA 
HETATM   14  C   UNL     1      -9.825  12.286  65.586  1.00  0.00    -0.231 C  
HETATM   15  C   UNL     1     -11.211  12.958  65.515  1.00  0.00    -0.319 C  
HETATM   16  C   UNL     1     -11.841  13.217  66.899  1.00  0.00    -0.444 C  
HETATM   17  C   UNL     1     -11.725  11.929  67.731  1.00  0.00    -0.362 C  
HETATM   18  C   UNL     1     -10.277  11.465  67.808  1.00  0.00    -0.181 C  
BRANCH  16  19
HETATM   19  C   UNL     1     -11.252  14.395  67.631  1.00  0.00    -0.313 A  
HETATM   20  N   UNL     1     -11.187  14.413  68.971  1.00  0.00    -0.251 NA 
HETATM   21  O   UNL     1     -10.774  15.683  69.316  1.00  0.00    -0.210 OA 
HETATM   22  C   UNL     1     -10.573  16.418  68.189  1.00  0.00    -0.318 A  
HETATM   23  C   UNL     1     -10.789  15.628  67.081  1.00  0.00    -0.297 A  
HETATM   24  C   UNL     1     -10.592  16.188  65.806  1.00  0.00    -0.347 A  
HETATM   25  C   UNL     1     -10.245  17.546  65.726  1.00  0.00    -0.184 A  
HETATM   26  C   UNL     1     -10.081  18.306  66.882  1.00  0.00    -0.366 A  
HETATM   27  C   UNL     1     -10.214  17.761  68.155  1.00  0.00    -0.383 A  
HETATM   28  F   UNL     1      -9.791  19.609  66.762  1.00  0.00    -0.370 F  
ENDBRANCH  16  19
ENDBRANCH  12  13
ENDBRANCH  11  12
ENDBRANCH  10  11
ENDBRANCH   9  10
ENDBRANCH   4   9
BRANCH   6  29
HETATM   29  C   UNL     1     -13.255   8.287  71.811  1.00  0.00    -0.347 C  
HETATM   30  O   UNL     1     -13.379   9.205  72.620  1.00  0.00    -0.454 OA 
HETATM   31  C   UNL     1     -14.402   7.352  71.520  1.00  0.00    -0.594 C  
ENDBRANCH   6  29
ENDBRANCH   2   3
TORSDOF 8
ENDMDL
MODEL       76
REMARK 921   NORMALIZED FREE ENERGY PREDICTED BY IDOCK:   -6.00 KCAL/MOL
REMARK 922        TOTAL FREE ENERGY PREDICTED BY IDOCK:   -9.60 KCAL/MOL
REMARK 923 INTER-LIGAND FREE ENERGY PREDICTED BY IDOCK:   -8.35 KCAL/MOL
REMARK 924 INTRA-LIGAND FREE ENERGY PREDICTED BY IDOCK:   -1.25 KCAL/MOL
REMARK 927      BINDING AFFINITY PREDICTED BY RF-SCORE:    0.00 PKD
ROOT
HETATM    1  C   UNL     1     -10.551  19.969  66.028  1.00  0.00    -0.367 C  
HETATM    2  O   UNL     1     -10.853  18.700  66.589  1.00  0.00    -0.312 OA 
ENDROOT
BRANCH   2   3
HETATM    3  C   UNL     1      -9.805  17.843  66.814  1.00  0.00    -0.333 A  
HETATM    4  C   UNL     1      -9.730  16.727  65.961  1.00  0.00    -0.259 A  
HETATM    5  C   UNL     1      -8.696  15.802  66.122  1.00  0.00    -0.293 A  
HETATM    6  C   UNL     1      -7.794  17.095  67.957  1.00  0.00    -0.195 A  
HETATM    7  C   UNL     1      -8.827  18.027  67.798  1.00  0.00    -0.255 A  
HETATM    8  C   UNL     1      -7.724  15.991  67.108  1.00  0.00    -0.242 A  
BRANCH   4   9
HETATM    9  O   UNL     1     -10.728  16.591  65.031  1.00  0.00    -0.662 OA 
BRANCH   9  10
HETATM   10  C   UNL     1     -10.925  15.304  64.445  1.00  0.00    -0.028 C  
BRANCH  10  11
HETATM   11  C   UNL     1     -12.356  14.788  64.641  1.00  0.00    -0.346 C  
BRANCH  11  12
HETATM   12  C   UNL     1     -12.534  13.837  65.838  1.00  0.00    -0.468 C  
BRANCH  12  13
HETATM   13  N   UNL     1     -11.284  13.156  66.190  1.00  0.00    -0.290 NA 
HETATM   14  C   UNL     1     -11.194  11.796  65.644  1.00  0.00    -0.267 C  
HETATM   15  C   UNL     1      -9.781  11.221  65.865  1.00  0.00    -0.258 C  
HETATM   16  C   UNL     1      -9.286  11.348  67.321  1.00  0.00    -0.173 C  
HETATM   17  C   UNL     1      -9.541  12.789  67.794  1.00  0.00    -0.204 C  
HETATM   18  C   UNL     1     -11.008  13.160  67.624  1.00  0.00    -0.262 C  
BRANCH  16  19
HETATM   19  C   UNL     1      -9.896  10.347  68.266  1.00  0.00    -0.154 A  
HETATM   20  N   UNL     1     -10.144  10.667  69.545  1.00  0.00    -0.180 NA 
HETATM   21  O   UNL     1     -10.522   9.494  70.166  1.00  0.00    -0.217 OA 
HETATM   22  C   UNL     1     -10.519   8.479  69.261  1.00  0.00    -0.215 A  
HETATM   23  C   UNL     1     -10.201   8.975  68.015  1.00  0.00    -0.260 A  
HETATM   24  C   UNL     1     -10.184   8.090  66.922  1.00  0.00    -0.385 A  
HETATM   25  C   UNL     1     -10.432   6.731  67.167  1.00  0.00    -0.364 A  
HETATM   26  C   UNL     1     -10.707   6.280  68.457  1.00  0.00    -0.292 A  
HETATM   27  C   UNL     1     -10.785   7.144  69.544  1.00  0.00    -0.255 A  
HETATM   28  F   UNL     1     -10.896   4.968  68.656  1.00  0.00    -0.125 F  
ENDBRANCH  16  19
ENDBRANCH  12  13
ENDBRANCH  11  12
ENDBRANCH  10  11
ENDBRANCH   9  10
ENDBRANCH   4   9
BRANCH   6  29
HETATM   29  C   UNL     1      -6.798  17.326  69.040  1.00  0.00    -0.245 C  
HETATM   30  O   UNL     1      -6.575  18.474  69.420  1.00  0.00    -0.262 OA 
HETATM   31  C   UNL     1      -6.125  16.148  69.700  1.00  0.00    -0.181 C  
ENDBRANCH   6  29
ENDBRANCH   2   3
TORSDOF 8
ENDMDL
MODEL       77
REMARK 921   NORMALIZED FREE ENERGY PREDICTED BY IDOCK:   -5.99 KCAL/MOL
REMARK 922        TOTAL FREE ENERGY PREDICTED BY IDOCK:   -9.59 KCAL/MOL
REMARK 923 INTER-LIGAND FREE ENERGY PREDICTED BY IDOCK:   -8.87 KCAL/MOL
REMARK 924 INTRA-LIGAND FREE ENERGY PREDICTED BY IDOCK:   -0.72 KCAL/MOL
REMARK 927      BINDING AFFINITY PREDICTED BY RF-SCORE:    0.00 PKD
ROOT
HETATM    1  C   UNL     1      -9.140   9.885  62.411  1.00  0.00    -0.290 C  
HETATM    2  O   UNL     1      -9.074   9.515  63.781  1.00  0.00    -0.224 OA 
ENDROOT
BRANCH   2   3
HETATM    3  C   UNL     1      -9.421  10.464  64.709  1.00  0.00    -0.273 A  
HETATM    4  C   UNL     1      -8.501  10.665  65.755  1.00  0.00    -0.178 A  
HETATM    5  C   UNL     1      -8.776  11.612  66.744  1.00  0.00    -0.189 A  
HETATM    6  C   UNL     1     -10.861  12.179  65.656  1.00  0.00    -0.323 A  
HETATM    7  C   UNL     1     -10.589  11.233  64.659  1.00  0.00    -0.392 A  
HETATM    8  C   UNL     1      -9.945  12.375  66.689  1.00  0.00    -0.236 A  
BRANCH   4   9
HETATM    9  O   UNL     1      -7.386   9.868  65.759  1.00  0.00    -0.100 OA 
BRANCH   9  10
HETATM   10  C   UNL     1      -7.034   9.219  66.981  1.00  0.00    -0.085 C  
BRANCH  10  11
HETATM   11  C   UNL     1      -7.792   7.901  67.180  1.00  0.00    -0.109 C  
BRANCH  11  12
HETATM   12  C   UNL     1      -7.543   7.219  68.538  1.00  0.00    -0.118 C  
BRANCH  12  13
HETATM   13  N   UNL     1      -8.778   6.678  69.116  1.00  0.00    -0.130 NA 
HETATM   14  C   UNL     1      -9.990   7.166  68.446  1.00  0.00    -0.158 C  
HETATM   15  C   UNL     1     -11.229   6.401  68.955  1.00  0.00    -0.402 C  
HETATM   16  C   UNL     1     -11.334   6.355  70.493  1.00  0.00    -0.438 C  
HETATM   17  C   UNL     1      -9.968   5.937  71.060  1.00  0.00    -0.239 C  
HETATM   18  C   UNL     1      -8.870   6.867  70.560  1.00  0.00    -0.155 C  
BRANCH  16  19
HETATM   19  C   UNL     1     -11.812   7.642  71.115  1.00  0.00    -0.293 A  
HETATM   20  N   UNL     1     -12.582   7.634  72.213  1.00  0.00    -0.177 NA 
HETATM   21  O   UNL     1     -12.985   8.939  72.408  1.00  0.00    -0.405 OA 
HETATM   22  C   UNL     1     -12.444   9.730  71.442  1.00  0.00    -0.387 A  
HETATM   23  C   UNL     1     -11.626   8.972  70.633  1.00  0.00    -0.265 A  
HETATM   24  C   UNL     1     -10.932   9.612  69.589  1.00  0.00    -0.253 A  
HETATM   25  C   UNL     1     -11.157  10.982  69.387  1.00  0.00    -0.320 A  
HETATM   26  C   UNL     1     -12.029  11.688  70.213  1.00  0.00    -0.358 A  
HETATM   27  C   UNL     1     -12.683  11.091  71.286  1.00  0.00    -0.537 A  
HETATM   28  F   UNL     1     -12.250  12.985  69.960  1.00  0.00    -0.355 F  
ENDBRANCH  16  19
ENDBRANCH  12  13
ENDBRANCH  11  12
ENDBRANCH  10  11
ENDBRANCH   9  10
ENDBRANCH   4   9
BRANCH   6  29
HETATM   29  C   UNL     1     -12.134  12.946  65.569  1.00  0.00    -0.458 C  
HETATM   30  O   UNL     1     -12.882  12.767  64.609  1.00  0.00    -0.705 OA 
HETATM   31  C   UNL     1     -12.519  13.884  66.686  1.00  0.00    -0.313 C  
ENDBRANCH   6  29
ENDBRANCH   2   3
TORSDOF 8
ENDMDL
MODEL       78
REMARK 921   NORMALIZED FREE ENERGY PREDICTED BY IDOCK:   -5.98 KCAL/MOL
REMARK 922        TOTAL FREE ENERGY PREDICTED BY IDOCK:   -9.57 KCAL/MOL
REMARK 923 INTER-LIGAND FREE ENERGY PREDICTED BY IDOCK:   -8.88 KCAL/MOL
REMARK 924 INTRA-LIGAND FREE ENERGY PREDICTED BY IDOCK:   -0.69 KCAL/MOL
REMARK 927      BINDING AFFINITY PREDICTED BY RF-SCORE:    0.00 PKD
ROOT
HETATM    1  C   UNL     1      -7.339   9.067  71.132  1.00  0.00    -0.096 C  
HETATM    2  O   UNL     1      -8.692   9.496  71.079  1.00  0.00    -0.260 OA 
ENDROOT
BRANCH   2   3
HETATM    3  C   UNL     1      -9.651   8.613  71.505  1.00  0.00    -0.257 A  
HETATM    4  C   UNL     1     -10.979   9.077  71.456  1.00  0.00    -0.348 A  
HETATM    5  C   UNL     1     -12.019   8.244  71.873  1.00  0.00    -0.383 A  
HETATM    6  C   UNL     1     -10.437   6.481  72.371  1.00  0.00    -0.229 A  
HETATM    7  C   UNL     1      -9.391   7.312  71.950  1.00  0.00    -0.152 A  
HETATM    8  C   UNL     1     -11.751   6.946  72.318  1.00  0.00    -0.296 A  
BRANCH   4   9
HETATM    9  O   UNL     1     -11.167  10.367  71.030  1.00  0.00    -0.266 OA 
BRANCH   9  10
HETATM   10  C   UNL     1     -12.323  10.647  70.239  1.00  0.00    -0.325 C  
BRANCH  10  11
HETATM   11  C   UNL     1     -12.045  11.691  69.151  1.00  0.00    -0.315 C  
BRANCH  11  12
HETATM   12  C   UNL     1     -11.548  11.106  67.816  1.00  0.00    -0.223 C  
BRANCH  12  13
HETATM   13  N   UNL     1     -11.493  12.120  66.758  1.00  0.00    -0.378 NA 
HETATM   14  C   UNL     1     -10.218  12.127  66.031  1.00  0.00    -0.237 C  
HETATM   15  C   UNL     1     -10.304  13.058  64.805  1.00  0.00    -0.356 C  
HETATM   16  C   UNL     1     -10.847  14.463  65.137  1.00  0.00    -0.397 C  
HETATM   17  C   UNL     1     -12.118  14.302  65.989  1.00  0.00    -0.423 C  
HETATM   18  C   UNL     1     -11.834  13.460  67.226  1.00  0.00    -0.376 C  
BRANCH  16  19
HETATM   19  C   UNL     1      -9.847  15.364  65.813  1.00  0.00    -0.364 A  
HETATM   20  N   UNL     1      -8.761  14.860  66.417  1.00  0.00    -0.174 NA 
HETATM   21  O   UNL     1      -8.166  15.915  67.078  1.00  0.00    -0.179 OA 
HETATM   22  C   UNL     1      -8.881  17.051  66.856  1.00  0.00    -0.230 A  
HETATM   23  C   UNL     1      -9.922  16.778  65.995  1.00  0.00    -0.334 A  
HETATM   24  C   UNL     1     -10.764  17.833  65.602  1.00  0.00    -0.064 A  
HETATM   25  C   UNL     1     -10.538  19.103  66.156  1.00  0.00    -0.524 A  
HETATM   26  C   UNL     1      -9.494  19.310  67.055  1.00  0.00    -0.322 A  
HETATM   27  C   UNL     1      -8.613  18.295  67.416  1.00  0.00    -0.250 A  
HETATM   28  F   UNL     1      -9.337  20.526  67.594  1.00  0.00    -0.455 F  
ENDBRANCH  16  19
ENDBRANCH  12  13
ENDBRANCH  11  12
ENDBRANCH  10  11
ENDBRANCH   9  10
ENDBRANCH   4   9
BRANCH   6  29
HETATM   29  C   UNL     1     -10.099   5.117  72.862  1.00  0.00    -0.170 C  
HETATM   30  O   UNL     1      -8.946   4.705  72.750  1.00  0.00    -0.118 OA 
HETATM   31  C   UNL     1     -11.154   4.286  73.548  1.00  0.00    -0.377 C  
ENDBRANCH   6  29
ENDBRANCH   2   3
TORSDOF 8
ENDMDL
MODEL       79
REMARK 921   NORMALIZED FREE ENERGY PREDICTED BY IDOCK:   -5.97 KCAL/MOL
REMARK 922        TOTAL FREE ENERGY PREDICTED BY IDOCK:   -9.56 KCAL/MOL
REMARK 923 INTER-LIGAND FREE ENERGY PREDICTED BY IDOCK:   -8.37 KCAL/MOL
REMARK 924 INTRA-LIGAND FREE ENERGY PREDICTED BY IDOCK:   -1.19 KCAL/MOL
REMARK 927      BINDING AFFINITY PREDICTED BY RF-SCORE:    0.00 PKD
ROOT
HETATM    1  C   UNL     1     -11.036   8.617  70.147  1.00  0.00    -0.192 C  
HETATM    2  O   UNL     1     -10.357   9.282  69.092  1.00  0.00    -0.200 OA 
ENDROOT
BRANCH   2   3
HETATM    3  C   UNL     1      -9.431   8.559  68.382  1.00  0.00    -0.135 A  
HETATM    4  C   UNL     1      -8.098   8.995  68.491  1.00  0.00    -0.107 A  
HETATM    5  C   UNL     1      -7.091   8.317  67.800  1.00  0.00    -0.083 A  
HETATM    6  C   UNL     1      -8.716   6.761  66.910  1.00  0.00    -0.117 A  
HETATM    7  C   UNL     1      -9.730   7.436  67.603  1.00  0.00    -0.178 A  
HETATM    8  C   UNL     1      -7.396   7.197  67.022  1.00  0.00    -0.089 A  
BRANCH   4   9
HETATM    9  O   UNL     1      -7.873  10.112  69.253  1.00  0.00    -0.108 OA 
BRANCH   9  10
HETATM   10  C   UNL     1      -6.866  11.026  68.817  1.00  0.00    -0.073 C  
BRANCH  10  11
HETATM   11  C   UNL     1      -7.440  12.407  68.477  1.00  0.00    -0.112 C  
BRANCH  11  12
HETATM   12  C   UNL     1      -8.085  12.505  67.082  1.00  0.00    -0.156 C  
BRANCH  12  13
HETATM   13  N   UNL     1      -9.486  12.931  67.154  1.00  0.00    -0.221 NA 
HETATM   14  C   UNL     1      -9.682  14.337  66.779  1.00  0.00    -0.275 C  
HETATM   15  C   UNL     1     -11.186  14.658  66.668  1.00  0.00    -0.349 C  
HETATM   16  C   UNL     1     -12.002  14.216  67.899  1.00  0.00    -0.378 C  
HETATM   17  C   UNL     1     -11.616  12.767  68.240  1.00  0.00    -0.375 C  
HETATM   18  C   UNL     1     -10.111  12.644  68.441  1.00  0.00    -0.222 C  
BRANCH  16  19
HETATM   19  C   UNL     1     -11.847  15.119  69.095  1.00  0.00    -0.313 A  
HETATM   20  N   UNL     1     -11.096  16.228  69.030  1.00  0.00    -0.325 NA 
HETATM   21  O   UNL     1     -11.020  16.715  70.319  1.00  0.00    -0.300 OA 
HETATM   22  C   UNL     1     -11.737  15.912  71.151  1.00  0.00    -0.442 A  
HETATM   23  C   UNL     1     -12.350  14.920  70.416  1.00  0.00    -0.401 A  
HETATM   24  C   UNL     1     -13.179  14.002  71.085  1.00  0.00    -0.337 A  
HETATM   25  C   UNL     1     -13.291  14.106  72.480  1.00  0.00    -0.616 A  
HETATM   26  C   UNL     1     -12.613  15.106  73.175  1.00  0.00    -0.473 A  
HETATM   27  C   UNL     1     -11.834  16.060  72.530  1.00  0.00    -0.630 A  
HETATM   28  F   UNL     1     -12.713  15.145  74.511  1.00  0.00    -0.565 F  
ENDBRANCH  16  19
ENDBRANCH  12  13
ENDBRANCH  11  12
ENDBRANCH  10  11
ENDBRANCH   9  10
ENDBRANCH   4   9
BRANCH   6  29
HETATM   29  C   UNL     1      -9.096   5.591  66.072  1.00  0.00    -0.156 C  
HETATM   30  O   UNL     1      -8.395   5.285  65.109  1.00  0.00    -0.131 OA 
HETATM   31  C   UNL     1     -10.295   4.758  66.450  1.00  0.00    -0.312 C  
ENDBRANCH   6  29
ENDBRANCH   2   3
TORSDOF 8
ENDMDL
MODEL       80
REMARK 921   NORMALIZED FREE ENERGY PREDICTED BY IDOCK:   -5.97 KCAL/MOL
REMARK 922        TOTAL FREE ENERGY PREDICTED BY IDOCK:   -9.56 KCAL/MOL
REMARK 923 INTER-LIGAND FREE ENERGY PREDICTED BY IDOCK:   -8.59 KCAL/MOL
REMARK 924 INTRA-LIGAND FREE ENERGY PREDICTED BY IDOCK:   -0.97 KCAL/MOL
REMARK 927      BINDING AFFINITY PREDICTED BY RF-SCORE:    0.00 PKD
ROOT
HETATM    1  C   UNL     1      -7.687   9.493  69.804  1.00  0.00    -0.123 C  
HETATM    2  O   UNL     1      -8.726   9.197  70.725  1.00  0.00    -0.205 OA 
ENDROOT
BRANCH   2   3
HETATM    3  C   UNL     1      -9.503   8.095  70.466  1.00  0.00    -0.163 A  
HETATM    4  C   UNL     1     -10.804   8.121  71.002  1.00  0.00    -0.235 A  
HETATM    5  C   UNL     1     -11.661   7.039  70.788  1.00  0.00    -0.394 A  
HETATM    6  C   UNL     1      -9.954   5.911  69.497  1.00  0.00    -0.238 A  
HETATM    7  C   UNL     1      -9.092   6.995  69.705  1.00  0.00    -0.144 A  
HETATM    8  C   UNL     1     -11.243   5.943  70.029  1.00  0.00    -0.341 A  
BRANCH   4   9
HETATM    9  O   UNL     1     -11.141   9.216  71.754  1.00  0.00    -0.351 OA 
BRANCH   9  10
HETATM   10  C   UNL     1     -12.250  10.006  71.325  1.00  0.00    -0.402 C  
BRANCH  10  11
HETATM   11  C   UNL     1     -11.815  11.217  70.490  1.00  0.00    -0.448 C  
BRANCH  11  12
HETATM   12  C   UNL     1     -11.675  10.936  68.982  1.00  0.00    -0.320 C  
BRANCH  12  13
HETATM   13  N   UNL     1     -11.913  12.137  68.175  1.00  0.00    -0.462 NA 
HETATM   14  C   UNL     1     -11.221  12.109  66.881  1.00  0.00    -0.320 C  
HETATM   15  C   UNL     1     -11.680  13.289  66.001  1.00  0.00    -0.408 C  
HETATM   16  C   UNL     1     -11.616  14.653  66.719  1.00  0.00    -0.370 C  
HETATM   17  C   UNL     1     -12.279  14.504  68.099  1.00  0.00    -0.120 C  
HETATM   18  C   UNL     1     -11.629  13.377  68.891  1.00  0.00    -0.314 C  
BRANCH  16  19
HETATM   19  C   UNL     1     -10.225  15.219  66.839  1.00  0.00    -0.268 A  
HETATM   20  N   UNL     1      -9.149  14.475  66.543  1.00  0.00    -0.248 NA 
HETATM   21  O   UNL     1      -8.052  15.219  66.928  1.00  0.00    -0.211 OA 
HETATM   22  C   UNL     1      -8.468  16.411  67.435  1.00  0.00    -0.178 A  
HETATM   23  C   UNL     1      -9.839  16.500  67.335  1.00  0.00    -0.253 A  
HETATM   24  C   UNL     1     -10.469  17.680  67.768  1.00  0.00    -0.379 A  
HETATM   25  C   UNL     1      -9.674  18.686  68.339  1.00  0.00    -0.405 A  
HETATM   26  C   UNL     1      -8.294  18.521  68.451  1.00  0.00    -0.332 A  
HETATM   27  C   UNL     1      -7.641  17.388  67.979  1.00  0.00    -0.206 A  
HETATM   28  F   UNL     1      -7.575  19.486  69.041  1.00  0.00    -0.372 F  
ENDBRANCH  16  19
ENDBRANCH  12  13
ENDBRANCH  11  12
ENDBRANCH  10  11
ENDBRANCH   9  10
ENDBRANCH   4   9
BRANCH   6  29
HETATM   29  C   UNL     1      -9.453   4.755  68.705  1.00  0.00    -0.150 C  
HETATM   30  O   UNL     1      -9.946   4.518  67.603  1.00  0.00    -0.152 OA 
HETATM   31  C   UNL     1      -8.306   3.928  69.232  1.00  0.00    -0.079 C  
ENDBRANCH   6  29
ENDBRANCH   2   3
TORSDOF 8
ENDMDL
MODEL       81
REMARK 921   NORMALIZED FREE ENERGY PREDICTED BY IDOCK:   -5.96 KCAL/MOL
REMARK 922        TOTAL FREE ENERGY PREDICTED BY IDOCK:   -9.55 KCAL/MOL
REMARK 923 INTER-LIGAND FREE ENERGY PREDICTED BY IDOCK:   -8.75 KCAL/MOL
REMARK 924 INTRA-LIGAND FREE ENERGY PREDICTED BY IDOCK:   -0.80 KCAL/MOL
REMARK 927      BINDING AFFINITY PREDICTED BY RF-SCORE:    0.00 PKD
ROOT
HETATM    1  C   UNL     1      -9.333   2.097  70.126  1.00  0.00    -0.103 C  
HETATM    2  O   UNL     1      -9.249   3.495  70.365  1.00  0.00    -0.117 OA 
ENDROOT
BRANCH   2   3
HETATM    3  C   UNL     1      -9.657   4.333  69.358  1.00  0.00    -0.197 A  
HETATM    4  C   UNL     1     -10.546   5.357  69.734  1.00  0.00    -0.277 A  
HETATM    5  C   UNL     1     -11.013   6.255  68.771  1.00  0.00    -0.424 A  
HETATM    6  C   UNL     1      -9.705   5.142  67.066  1.00  0.00    -0.173 A  
HETATM    7  C   UNL     1      -9.231   4.242  68.028  1.00  0.00    -0.182 A  
HETATM    8  C   UNL     1     -10.585   6.156  67.444  1.00  0.00    -0.352 A  
BRANCH   4   9
HETATM    9  O   UNL     1     -10.941   5.382  71.046  1.00  0.00    -0.179 OA 
BRANCH   9  10
HETATM   10  C   UNL     1     -11.198   6.654  71.642  1.00  0.00    -0.264 C  
BRANCH  10  11
HETATM   11  C   UNL     1      -9.969   7.217  72.366  1.00  0.00    -0.208 C  
BRANCH  11  12
HETATM   12  C   UNL     1      -9.751   8.729  72.173  1.00  0.00    -0.265 C  
BRANCH  12  13
HETATM   13  N   UNL     1     -10.632   9.284  71.140  1.00  0.00    -0.306 NA 
HETATM   14  C   UNL     1      -9.902   9.951  70.056  1.00  0.00    -0.243 C  
HETATM   15  C   UNL     1     -10.864  10.319  68.908  1.00  0.00    -0.263 C  
HETATM   16  C   UNL     1     -12.122  11.077  69.379  1.00  0.00    -0.389 C  
HETATM   17  C   UNL     1     -12.717  10.327  70.582  1.00  0.00    -0.382 C  
HETATM   18  C   UNL     1     -11.674  10.154  71.678  1.00  0.00    -0.066 C  
BRANCH  16  19
HETATM   19  C   UNL     1     -11.878  12.527  69.705  1.00  0.00    -0.310 A  
HETATM   20  N   UNL     1     -10.949  13.237  69.048  1.00  0.00    -0.235 NA 
HETATM   21  O   UNL     1     -10.858  14.448  69.703  1.00  0.00    -0.211 OA 
HETATM   22  C   UNL     1     -11.742  14.473  70.737  1.00  0.00    -0.266 A  
HETATM   23  C   UNL     1     -12.474  13.306  70.743  1.00  0.00    -0.403 A  
HETATM   24  C   UNL     1     -13.479  13.148  71.714  1.00  0.00    -0.420 A  
HETATM   25  C   UNL     1     -13.643  14.163  72.669  1.00  0.00    -0.618 A  
HETATM   26  C   UNL     1     -12.843  15.304  72.637  1.00  0.00    -0.389 A  
HETATM   27  C   UNL     1     -11.882  15.509  71.653  1.00  0.00    -0.486 A  
HETATM   28  F   UNL     1     -13.003  16.231  73.591  1.00  0.00    -0.548 F  
ENDBRANCH  16  19
ENDBRANCH  12  13
ENDBRANCH  11  12
ENDBRANCH  10  11
ENDBRANCH   9  10
ENDBRANCH   4   9
BRANCH   6  29
HETATM   29  C   UNL     1      -9.243   4.979  65.660  1.00  0.00    -0.157 C  
HETATM   30  O   UNL     1      -9.805   4.164  64.930  1.00  0.00    -0.180 OA 
HETATM   31  C   UNL     1      -8.135   5.856  65.130  1.00  0.00    -0.131 C  
ENDBRANCH   6  29
ENDBRANCH   2   3
TORSDOF 8
ENDMDL
MODEL       82
REMARK 921   NORMALIZED FREE ENERGY PREDICTED BY IDOCK:   -5.96 KCAL/MOL
REMARK 922        TOTAL FREE ENERGY PREDICTED BY IDOCK:   -9.54 KCAL/MOL
REMARK 923 INTER-LIGAND FREE ENERGY PREDICTED BY IDOCK:   -8.73 KCAL/MOL
REMARK 924 INTRA-LIGAND FREE ENERGY PREDICTED BY IDOCK:   -0.81 KCAL/MOL
REMARK 927      BINDING AFFINITY PREDICTED BY RF-SCORE:    0.00 PKD
ROOT
HETATM    1  C   UNL     1     -12.464   9.283  71.658  1.00  0.00    -0.368 C  
HETATM    2  O   UNL     1     -12.432   8.170  70.777  1.00  0.00    -0.078 OA 
ENDROOT
BRANCH   2   3
HETATM    3  C   UNL     1     -11.490   7.202  71.017  1.00  0.00    -0.297 A  
HETATM    4  C   UNL     1     -10.336   7.254  70.214  1.00  0.00    -0.210 A  
HETATM    5  C   UNL     1      -9.327   6.305  70.390  1.00  0.00    -0.171 A  
HETATM    6  C   UNL     1     -10.588   5.261  72.172  1.00  0.00    -0.281 A  
HETATM    7  C   UNL     1     -11.601   6.213  72.001  1.00  0.00    -0.364 A  
HETATM    8  C   UNL     1      -9.446   5.319  71.373  1.00  0.00    -0.194 A  
BRANCH   4   9
HETATM    9  O   UNL     1     -10.295   8.233  69.255  1.00  0.00    -0.212 OA 
BRANCH   9  10
HETATM   10  C   UNL     1      -9.375   9.310  69.439  1.00  0.00    -0.164 C  
BRANCH  10  11
HETATM   11  C   UNL     1      -9.687  10.504  68.529  1.00  0.00    -0.170 C  
BRANCH  11  12
HETATM   12  C   UNL     1     -11.022  10.397  67.769  1.00  0.00    -0.309 C  
BRANCH  12  13
HETATM   13  N   UNL     1     -11.598  11.715  67.482  1.00  0.00    -0.531 NA 
HETATM   14  C   UNL     1     -11.431  12.125  66.082  1.00  0.00    -0.371 C  
HETATM   15  C   UNL     1     -12.239  13.408  65.799  1.00  0.00    -0.507 C  
HETATM   16  C   UNL     1     -11.982  14.535  66.821  1.00  0.00    -0.364 C  
HETATM   17  C   UNL     1     -12.082  13.938  68.235  1.00  0.00    -0.322 C  
HETATM   18  C   UNL     1     -11.132  12.758  68.390  1.00  0.00    -0.262 C  
BRANCH  16  19
HETATM   19  C   UNL     1     -10.674  15.256  66.624  1.00  0.00    -0.309 A  
HETATM   20  N   UNL     1      -9.750  14.788  65.771  1.00  0.00    -0.330 NA 
HETATM   21  O   UNL     1      -8.626  15.565  65.963  1.00  0.00    -0.192 OA 
HETATM   22  C   UNL     1      -8.880  16.506  66.912  1.00  0.00    -0.208 A  
HETATM   23  C   UNL     1     -10.194  16.407  67.316  1.00  0.00    -0.278 A  
HETATM   24  C   UNL     1     -10.675  17.324  68.269  1.00  0.00    -0.349 A  
HETATM   25  C   UNL     1      -9.773  18.255  68.806  1.00  0.00    -0.348 A  
HETATM   26  C   UNL     1      -8.444  18.280  68.389  1.00  0.00    -0.303 A  
HETATM   27  C   UNL     1      -7.958  17.422  67.407  1.00  0.00    -0.212 A  
HETATM   28  F   UNL     1      -7.605  19.156  68.957  1.00  0.00    -0.357 F  
ENDBRANCH  16  19
ENDBRANCH  12  13
ENDBRANCH  11  12
ENDBRANCH  10  11
ENDBRANCH   9  10
ENDBRANCH   4   9
BRANCH   6  29
HETATM   29  C   UNL     1     -10.774   4.214  73.214  1.00  0.00    -0.210 C  
HETATM   30  O   UNL     1     -11.243   4.527  74.306  1.00  0.00    -0.218 OA 
HETATM   31  C   UNL     1     -10.446   2.776  72.896  1.00  0.00    -0.239 C  
ENDBRANCH   6  29
ENDBRANCH   2   3
TORSDOF 8
ENDMDL
MODEL       83
REMARK 921   NORMALIZED FREE ENERGY PREDICTED BY IDOCK:   -5.95 KCAL/MOL
REMARK 922        TOTAL FREE ENERGY PREDICTED BY IDOCK:   -9.52 KCAL/MOL
REMARK 923 INTER-LIGAND FREE ENERGY PREDICTED BY IDOCK:   -8.65 KCAL/MOL
REMARK 924 INTRA-LIGAND FREE ENERGY PREDICTED BY IDOCK:   -0.88 KCAL/MOL
REMARK 927      BINDING AFFINITY PREDICTED BY RF-SCORE:    0.00 PKD
ROOT
HETATM    1  C   UNL     1     -10.845  14.725  64.832  1.00  0.00    -0.416 C  
HETATM    2  O   UNL     1     -11.229  15.031  66.165  1.00  0.00    -0.342 OA 
ENDROOT
BRANCH   2   3
HETATM    3  C   UNL     1     -10.589  16.076  66.782  1.00  0.00    -0.297 A  
HETATM    4  C   UNL     1     -11.007  16.363  68.095  1.00  0.00    -0.339 A  
HETATM    5  C   UNL     1     -10.409  17.412  68.797  1.00  0.00    -0.357 A  
HETATM    6  C   UNL     1      -8.969  17.885  66.911  1.00  0.00    -0.265 A  
HETATM    7  C   UNL     1      -9.563  16.831  66.204  1.00  0.00    -0.302 A  
HETATM    8  C   UNL     1      -9.386  18.163  68.213  1.00  0.00    -0.312 A  
BRANCH   4   9
HETATM    9  O   UNL     1     -12.030  15.601  68.599  1.00  0.00    -0.336 OA 
BRANCH   9  10
HETATM   10  C   UNL     1     -11.852  15.012  69.887  1.00  0.00    -0.324 C  
BRANCH  10  11
HETATM   11  C   UNL     1     -12.022  13.488  69.858  1.00  0.00    -0.416 C  
BRANCH  11  12
HETATM   12  C   UNL     1     -12.138  12.884  68.446  1.00  0.00    -0.128 C  
BRANCH  12  13
HETATM   13  N   UNL     1     -10.973  12.062  68.103  1.00  0.00    -0.217 NA 
HETATM   14  C   UNL     1     -11.156  11.291  66.867  1.00  0.00    -0.275 C  
HETATM   15  C   UNL     1      -9.830  10.623  66.451  1.00  0.00    -0.259 C  
HETATM   16  C   UNL     1      -9.153   9.834  67.592  1.00  0.00    -0.140 C  
HETATM   17  C   UNL     1      -9.130  10.723  68.846  1.00  0.00    -0.170 C  
HETATM   18  C   UNL     1     -10.533  11.200  69.195  1.00  0.00    -0.182 C  
BRANCH  16  19
HETATM   19  C   UNL     1      -9.792   8.501  67.879  1.00  0.00    -0.170 A  
HETATM   20  N   UNL     1     -10.523   7.870  66.947  1.00  0.00    -0.341 NA 
HETATM   21  O   UNL     1     -11.101   6.790  67.582  1.00  0.00    -0.274 OA 
HETATM   22  C   UNL     1     -10.705   6.761  68.883  1.00  0.00    -0.240 A  
HETATM   23  C   UNL     1      -9.810   7.783  69.112  1.00  0.00    -0.173 A  
HETATM   24  C   UNL     1      -9.243   7.905  70.394  1.00  0.00    -0.158 A  
HETATM   25  C   UNL     1      -9.666   7.015  71.393  1.00  0.00    -0.169 A  
HETATM   26  C   UNL     1     -10.607   6.026  71.111  1.00  0.00    -0.246 A  
HETATM   27  C   UNL     1     -11.139   5.849  69.838  1.00  0.00    -0.417 A  
HETATM   28  F   UNL     1     -11.016   5.224  72.103  1.00  0.00    -0.278 F  
ENDBRANCH  16  19
ENDBRANCH  12  13
ENDBRANCH  11  12
ENDBRANCH  10  11
ENDBRANCH   9  10
ENDBRANCH   4   9
BRANCH   6  29
HETATM   29  C   UNL     1      -7.902  18.673  66.235  1.00  0.00    -0.262 C  
HETATM   30  O   UNL     1      -7.181  18.124  65.404  1.00  0.00    -0.529 OA 
HETATM   31  C   UNL     1      -7.760  20.146  66.529  1.00  0.00    -0.311 C  
ENDBRANCH   6  29
ENDBRANCH   2   3
TORSDOF 8
ENDMDL
MODEL       84
REMARK 921   NORMALIZED FREE ENERGY PREDICTED BY IDOCK:   -5.94 KCAL/MOL
REMARK 922        TOTAL FREE ENERGY PREDICTED BY IDOCK:   -9.52 KCAL/MOL
REMARK 923 INTER-LIGAND FREE ENERGY PREDICTED BY IDOCK:   -8.06 KCAL/MOL
REMARK 924 INTRA-LIGAND FREE ENERGY PREDICTED BY IDOCK:   -1.46 KCAL/MOL
REMARK 927      BINDING AFFINITY PREDICTED BY RF-SCORE:    0.00 PKD
ROOT
HETATM    1  C   UNL     1     -10.690  10.012  69.281  1.00  0.00    -0.224 C  
HETATM    2  O   UNL     1     -10.474   9.527  67.963  1.00  0.00    -0.206 OA 
ENDROOT
BRANCH   2   3
HETATM    3  C   UNL     1     -10.656  10.409  66.928  1.00  0.00    -0.230 A  
HETATM    4  C   UNL     1     -10.143  10.007  65.681  1.00  0.00    -0.251 A  
HETATM    5  C   UNL     1     -10.284  10.846  64.573  1.00  0.00    -0.422 A  
HETATM    6  C   UNL     1     -11.459  12.473  65.924  1.00  0.00    -0.417 A  
HETATM    7  C   UNL     1     -11.323  11.634  67.038  1.00  0.00    -0.373 A  
HETATM    8  C   UNL     1     -10.950  12.069  64.690  1.00  0.00    -0.367 A  
BRANCH   4   9
HETATM    9  O   UNL     1      -9.484   8.806  65.642  1.00  0.00    -0.200 OA 
BRANCH   9  10
HETATM   10  C   UNL     1      -8.268   8.735  64.896  1.00  0.00    -0.159 C  
BRANCH  10  11
HETATM   11  C   UNL     1      -7.280   7.723  65.487  1.00  0.00    -0.064 C  
BRANCH  11  12
HETATM   12  C   UNL     1      -6.507   8.229  66.719  1.00  0.00    -0.056 C  
BRANCH  12  13
HETATM   13  N   UNL     1      -6.744   7.391  67.899  1.00  0.00    -0.060 NA 
HETATM   14  C   UNL     1      -7.402   6.118  67.580  1.00  0.00    -0.077 C  
HETATM   15  C   UNL     1      -7.427   5.202  68.820  1.00  0.00    -0.066 C  
HETATM   16  C   UNL     1      -7.975   5.894  70.085  1.00  0.00    -0.101 C  
HETATM   17  C   UNL     1      -7.278   7.257  70.231  1.00  0.00    -0.067 C  
HETATM   18  C   UNL     1      -7.452   8.089  68.968  1.00  0.00    -0.093 C  
BRANCH  16  19
HETATM   19  C   UNL     1      -9.474   6.042  70.103  1.00  0.00    -0.158 A  
HETATM   20  N   UNL     1     -10.230   5.531  69.120  1.00  0.00    -0.218 NA 
HETATM   21  O   UNL     1     -11.511   5.993  69.343  1.00  0.00    -0.372 OA 
HETATM   22  C   UNL     1     -11.528   6.762  70.465  1.00  0.00    -0.360 A  
HETATM   23  C   UNL     1     -10.274   6.768  71.036  1.00  0.00    -0.217 A  
HETATM   24  C   UNL     1     -10.085   7.475  72.237  1.00  0.00    -0.244 A  
HETATM   25  C   UNL     1     -11.171   8.192  72.762  1.00  0.00    -0.407 A  
HETATM   26  C   UNL     1     -12.406   8.182  72.117  1.00  0.00    -0.338 A  
HETATM   27  C   UNL     1     -12.634   7.444  70.959  1.00  0.00    -0.264 A  
HETATM   28  F   UNL     1     -13.407   8.913  72.627  1.00  0.00    -0.437 F  
ENDBRANCH  16  19
ENDBRANCH  12  13
ENDBRANCH  11  12
ENDBRANCH  10  11
ENDBRANCH   9  10
ENDBRANCH   4   9
BRANCH   6  29
HETATM   29  C   UNL     1     -12.151  13.779  66.106  1.00  0.00    -0.441 C  
HETATM   30  O   UNL     1     -13.064  14.089  65.344  1.00  0.00    -0.763 OA 
HETATM   31  C   UNL     1     -11.768  14.674  67.259  1.00  0.00    -0.406 C  
ENDBRANCH   6  29
ENDBRANCH   2   3
TORSDOF 8
ENDMDL
MODEL       85
REMARK 921   NORMALIZED FREE ENERGY PREDICTED BY IDOCK:   -5.94 KCAL/MOL
REMARK 922        TOTAL FREE ENERGY PREDICTED BY IDOCK:   -9.51 KCAL/MOL
REMARK 923 INTER-LIGAND FREE ENERGY PREDICTED BY IDOCK:   -8.99 KCAL/MOL
REMARK 924 INTRA-LIGAND FREE ENERGY PREDICTED BY IDOCK:   -0.52 KCAL/MOL
REMARK 927      BINDING AFFINITY PREDICTED BY RF-SCORE:    0.00 PKD
ROOT
HETATM    1  C   UNL     1     -12.176  13.019  65.789  1.00  0.00    -0.453 C  
HETATM    2  O   UNL     1     -11.961  13.022  67.192  1.00  0.00    -0.371 OA 
ENDROOT
BRANCH   2   3
HETATM    3  C   UNL     1     -11.590  14.209  67.772  1.00  0.00    -0.347 A  
HETATM    4  C   UNL     1     -11.668  14.258  69.176  1.00  0.00    -0.320 A  
HETATM    5  C   UNL     1     -11.310  15.430  69.847  1.00  0.00    -0.318 A  
HETATM    6  C   UNL     1     -10.775  16.500  67.744  1.00  0.00    -0.329 A  
HETATM    7  C   UNL     1     -11.130  15.326  67.066  1.00  0.00    -0.305 A  
HETATM    8  C   UNL     1     -10.853  16.543  69.136  1.00  0.00    -0.334 A  
BRANCH   4   9
HETATM    9  O   UNL     1     -12.144  13.139  69.808  1.00  0.00    -0.307 OA 
BRANCH   9  10
HETATM   10  C   UNL     1     -12.797  13.310  71.067  1.00  0.00    -0.232 C  
BRANCH  10  11
HETATM   11  C   UNL     1     -12.962  11.986  71.822  1.00  0.00    -0.445 C  
BRANCH  11  12
HETATM   12  C   UNL     1     -12.767  10.727  70.955  1.00  0.00    -0.415 C  
BRANCH  12  13
HETATM   13  N   UNL     1     -11.479  10.076  71.213  1.00  0.00    -0.356 NA 
HETATM   14  C   UNL     1     -10.635   9.970  70.017  1.00  0.00    -0.293 C  
HETATM   15  C   UNL     1      -9.225   9.476  70.396  1.00  0.00    -0.305 C  
HETATM   16  C   UNL     1      -9.232   8.209  71.276  1.00  0.00    -0.193 C  
HETATM   17  C   UNL     1     -10.235   8.422  72.422  1.00  0.00    -0.399 C  
HETATM   18  C   UNL     1     -11.610   8.781  71.875  1.00  0.00    -0.361 C  
BRANCH  16  19
HETATM   19  C   UNL     1      -9.526   6.939  70.521  1.00  0.00    -0.169 A  
HETATM   20  N   UNL     1     -10.483   6.901  69.581  1.00  0.00    -0.209 NA 
HETATM   21  O   UNL     1     -10.615   5.574  69.224  1.00  0.00    -0.271 OA 
HETATM   22  C   UNL     1      -9.729   4.823  69.932  1.00  0.00    -0.204 A  
HETATM   23  C   UNL     1      -8.955   5.647  70.720  1.00  0.00    -0.154 A  
HETATM   24  C   UNL     1      -7.942   5.068  71.505  1.00  0.00    -0.112 A  
HETATM   25  C   UNL     1      -7.811   3.671  71.493  1.00  0.00    -0.057 A  
HETATM   26  C   UNL     1      -8.651   2.886  70.707  1.00  0.00    -0.063 A  
HETATM   27  C   UNL     1      -9.623   3.438  69.879  1.00  0.00    -0.198 A  
HETATM   28  F   UNL     1      -8.522   1.553  70.756  1.00  0.00    -0.054 F  
ENDBRANCH  16  19
ENDBRANCH  12  13
ENDBRANCH  11  12
ENDBRANCH  10  11
ENDBRANCH   9  10
ENDBRANCH   4   9
BRANCH   6  29
HETATM   29  C   UNL     1     -10.322  17.668  66.940  1.00  0.00    -0.329 C  
HETATM   30  O   UNL     1      -9.915  17.490  65.793  1.00  0.00    -0.546 OA 
HETATM   31  C   UNL     1     -10.428  19.059  67.515  1.00  0.00    -0.537 C  
ENDBRANCH   6  29
ENDBRANCH   2   3
TORSDOF 8
ENDMDL
MODEL       86
REMARK 921   NORMALIZED FREE ENERGY PREDICTED BY IDOCK:   -5.94 KCAL/MOL
REMARK 922        TOTAL FREE ENERGY PREDICTED BY IDOCK:   -9.51 KCAL/MOL
REMARK 923 INTER-LIGAND FREE ENERGY PREDICTED BY IDOCK:   -8.59 KCAL/MOL
REMARK 924 INTRA-LIGAND FREE ENERGY PREDICTED BY IDOCK:   -0.92 KCAL/MOL
REMARK 927      BINDING AFFINITY PREDICTED BY RF-SCORE:    0.00 PKD
ROOT
HETATM    1  C   UNL     1      -6.622   7.782  69.542  1.00  0.00    -0.039 C  
HETATM    2  O   UNL     1      -7.810   8.480  69.199  1.00  0.00    -0.096 OA 
ENDROOT
BRANCH   2   3
HETATM    3  C   UNL     1      -9.002   7.824  69.379  1.00  0.00    -0.142 A  
HETATM    4  C   UNL     1      -9.659   7.411  68.205  1.00  0.00    -0.150 A  
HETATM    5  C   UNL     1     -10.879   6.737  68.297  1.00  0.00    -0.290 A  
HETATM    6  C   UNL     1     -10.792   6.859  70.712  1.00  0.00    -0.279 A  
HETATM    7  C   UNL     1      -9.567   7.532  70.626  1.00  0.00    -0.171 A  
HETATM    8  C   UNL     1     -11.438   6.451  69.545  1.00  0.00    -0.412 A  
BRANCH   4   9
HETATM    9  O   UNL     1      -9.066   7.743  67.015  1.00  0.00    -0.129 OA 
BRANCH   9  10
HETATM   10  C   UNL     1      -9.754   8.653  66.157  1.00  0.00    -0.222 C  
BRANCH  10  11
HETATM   11  C   UNL     1      -9.556  10.114  66.578  1.00  0.00    -0.236 C  
BRANCH  11  12
HETATM   12  C   UNL     1     -10.398  11.129  65.781  1.00  0.00    -0.260 C  
BRANCH  12  13
HETATM   13  N   UNL     1     -10.505  12.417  66.473  1.00  0.00    -0.228 NA 
HETATM   14  C   UNL     1      -9.783  12.449  67.750  1.00  0.00    -0.201 C  
HETATM   15  C   UNL     1      -9.757  13.883  68.316  1.00  0.00    -0.223 C  
HETATM   16  C   UNL     1     -11.146  14.552  68.362  1.00  0.00    -0.271 C  
HETATM   17  C   UNL     1     -11.826  14.347  66.998  1.00  0.00    -0.437 C  
HETATM   18  C   UNL     1     -11.884  12.867  66.642  1.00  0.00    -0.395 C  
BRANCH  16  19
HETATM   19  C   UNL     1     -12.023  14.071  69.488  1.00  0.00    -0.339 A  
HETATM   20  N   UNL     1     -12.776  14.929  70.192  1.00  0.00    -0.266 NA 
HETATM   21  O   UNL     1     -13.302  14.204  71.242  1.00  0.00    -0.338 OA 
HETATM   22  C   UNL     1     -12.882  12.913  71.157  1.00  0.00    -0.238 A  
HETATM   23  C   UNL     1     -12.126  12.749  70.017  1.00  0.00    -0.355 A  
HETATM   24  C   UNL     1     -11.627  11.469  69.719  1.00  0.00    -0.401 A  
HETATM   25  C   UNL     1     -11.874  10.432  70.633  1.00  0.00    -0.445 A  
HETATM   26  C   UNL     1     -12.612  10.668  71.791  1.00  0.00    -0.306 A  
HETATM   27  C   UNL     1     -13.164  11.911  72.080  1.00  0.00    -0.461 A  
HETATM   28  F   UNL     1     -12.790   9.662  72.658  1.00  0.00    -0.395 F  
ENDBRANCH  16  19
ENDBRANCH  12  13
ENDBRANCH  11  12
ENDBRANCH  10  11
ENDBRANCH   9  10
ENDBRANCH   4   9
BRANCH   6  29
HETATM   29  C   UNL     1     -11.361   6.602  72.064  1.00  0.00    -0.280 C  
HETATM   30  O   UNL     1     -12.362   5.897  72.173  1.00  0.00    -0.182 OA 
HETATM   31  C   UNL     1     -10.667   7.155  73.284  1.00  0.00    -0.403 C  
ENDBRANCH   6  29
ENDBRANCH   2   3
TORSDOF 8
ENDMDL
MODEL       87
REMARK 921   NORMALIZED FREE ENERGY PREDICTED BY IDOCK:   -5.94 KCAL/MOL
REMARK 922        TOTAL FREE ENERGY PREDICTED BY IDOCK:   -9.51 KCAL/MOL
REMARK 923 INTER-LIGAND FREE ENERGY PREDICTED BY IDOCK:   -7.60 KCAL/MOL
REMARK 924 INTRA-LIGAND FREE ENERGY PREDICTED BY IDOCK:   -1.91 KCAL/MOL
REMARK 927      BINDING AFFINITY PREDICTED BY RF-SCORE:    0.00 PKD
ROOT
HETATM    1  C   UNL     1      -7.573  13.460  68.152  1.00  0.00    -0.138 C  
HETATM    2  O   UNL     1      -8.830  13.936  67.692  1.00  0.00    -0.171 OA 
ENDROOT
BRANCH   2   3
HETATM    3  C   UNL     1      -9.515  14.801  68.509  1.00  0.00    -0.214 A  
HETATM    4  C   UNL     1      -9.380  16.168  68.207  1.00  0.00    -0.205 A  
HETATM    5  C   UNL     1     -10.043  17.117  68.989  1.00  0.00    -0.297 A  
HETATM    6  C   UNL     1     -10.990  15.362  70.358  1.00  0.00    -0.347 A  
HETATM    7  C   UNL     1     -10.331  14.406  69.575  1.00  0.00     0.027 A  
HETATM    8  C   UNL     1     -10.854  16.716  70.053  1.00  0.00    -0.173 A  
BRANCH   4   9
HETATM    9  O   UNL     1      -8.552  16.492  67.164  1.00  0.00    -0.175 OA 
BRANCH   9  10
HETATM   10  C   UNL     1      -9.134  17.110  66.015  1.00  0.00    -0.105 C  
BRANCH  10  11
HETATM   11  C   UNL     1     -10.629  16.797  65.881  1.00  0.00    -0.255 C  
BRANCH  11  12
HETATM   12  C   UNL     1     -11.037  16.198  64.522  1.00  0.00    -0.221 C  
BRANCH  12  13
HETATM   13  N   UNL     1     -11.581  14.843  64.660  1.00  0.00    -0.407 NA 
HETATM   14  C   UNL     1     -12.113  14.568  66.000  1.00  0.00    -0.287 C  
HETATM   15  C   UNL     1     -12.857  13.217  66.015  1.00  0.00     0.068 C  
HETATM   16  C   UNL     1     -12.037  12.057  65.413  1.00  0.00    -0.095 C  
HETATM   17  C   UNL     1     -11.453  12.523  64.069  1.00  0.00    -0.476 C  
HETATM   18  C   UNL     1     -10.644  13.801  64.248  1.00  0.00    -0.150 C  
BRANCH  16  19
HETATM   19  C   UNL     1     -10.959  11.530  66.324  1.00  0.00    -0.275 A  
HETATM   20  N   UNL     1      -9.740  11.233  65.851  1.00  0.00    -0.215 NA 
HETATM   21  O   UNL     1      -9.067  10.616  66.886  1.00  0.00    -0.153 OA 
HETATM   22  C   UNL     1      -9.872  10.561  67.981  1.00  0.00    -0.147 A  
HETATM   23  C   UNL     1     -11.064  11.196  67.707  1.00  0.00    -0.344 A  
HETATM   24  C   UNL     1     -12.027  11.287  68.728  1.00  0.00    -0.350 A  
HETATM   25  C   UNL     1     -11.749  10.672  69.958  1.00  0.00    -0.405 A  
HETATM   26  C   UNL     1     -10.541  10.007  70.163  1.00  0.00    -0.296 A  
HETATM   27  C   UNL     1      -9.550   9.952  69.189  1.00  0.00    -0.204 A  
HETATM   28  F   UNL     1     -10.331   9.397  71.337  1.00  0.00    -0.354 F  
ENDBRANCH  16  19
ENDBRANCH  12  13
ENDBRANCH  11  12
ENDBRANCH  10  11
ENDBRANCH   9  10
ENDBRANCH   4   9
BRANCH   6  29
HETATM   29  C   UNL     1     -11.821  14.886  71.499  1.00  0.00    -0.361 C  
HETATM   30  O   UNL     1     -11.623  15.345  72.622  1.00  0.00    -0.459 OA 
HETATM   31  C   UNL     1     -12.932  13.896  71.252  1.00  0.00    -0.414 C  
ENDBRANCH   6  29
ENDBRANCH   2   3
TORSDOF 8
ENDMDL
MODEL       88
REMARK 921   NORMALIZED FREE ENERGY PREDICTED BY IDOCK:   -5.93 KCAL/MOL
REMARK 922        TOTAL FREE ENERGY PREDICTED BY IDOCK:   -9.50 KCAL/MOL
REMARK 923 INTER-LIGAND FREE ENERGY PREDICTED BY IDOCK:   -8.25 KCAL/MOL
REMARK 924 INTRA-LIGAND FREE ENERGY PREDICTED BY IDOCK:   -1.26 KCAL/MOL
REMARK 927      BINDING AFFINITY PREDICTED BY RF-SCORE:    0.00 PKD
ROOT
HETATM    1  C   UNL     1      -7.692  14.581  68.873  1.00  0.00    -0.132 C  
HETATM    2  O   UNL     1      -8.996  14.486  68.319  1.00  0.00    -0.171 OA 
ENDROOT
BRANCH   2   3
HETATM    3  C   UNL     1     -10.056  14.744  69.151  1.00  0.00    -0.197 A  
HETATM    4  C   UNL     1     -10.316  16.102  69.412  1.00  0.00    -0.277 A  
HETATM    5  C   UNL     1     -11.376  16.455  70.250  1.00  0.00    -0.207 A  
HETATM    6  C   UNL     1     -11.939  14.122  70.559  1.00  0.00    -0.393 A  
HETATM    7  C   UNL     1     -10.879  13.763  69.715  1.00  0.00     0.166 A  
HETATM    8  C   UNL     1     -12.193  15.469  70.812  1.00  0.00    -0.450 A  
BRANCH   4   9
HETATM    9  O   UNL     1      -9.463  17.014  68.846  1.00  0.00    -0.266 OA 
BRANCH   9  10
HETATM   10  C   UNL     1      -9.976  17.856  67.813  1.00  0.00    -0.331 C  
BRANCH  10  11
HETATM   11  C   UNL     1     -10.907  17.103  66.856  1.00  0.00    -0.005 C  
BRANCH  11  12
HETATM   12  C   UNL     1     -10.185  16.330  65.738  1.00  0.00    -0.367 C  
BRANCH  12  13
HETATM   13  N   UNL     1     -10.951  15.159  65.297  1.00  0.00    -0.372 NA 
HETATM   14  C   UNL     1     -11.960  14.728  66.272  1.00  0.00    -0.159 C  
HETATM   15  C   UNL     1     -12.865  13.639  65.662  1.00  0.00    -0.425 C  
HETATM   16  C   UNL     1     -12.081  12.480  65.014  1.00  0.00    -0.504 C  
HETATM   17  C   UNL     1     -10.992  13.079  64.107  1.00  0.00    -0.438 C  
HETATM   18  C   UNL     1     -10.107  14.038  64.891  1.00  0.00    -0.256 C  
BRANCH  16  19
HETATM   19  C   UNL     1     -11.494  11.507  66.003  1.00  0.00    -0.020 A  
HETATM   20  N   UNL     1     -11.863  11.527  67.292  1.00  0.00    -0.604 NA 
HETATM   21  O   UNL     1     -11.020  10.650  67.945  1.00  0.00    -0.250 OA 
HETATM   22  C   UNL     1     -10.162  10.093  67.048  1.00  0.00    -0.234 A  
HETATM   23  C   UNL     1     -10.465  10.543  65.782  1.00  0.00    -0.214 A  
HETATM   24  C   UNL     1      -9.717  10.052  64.696  1.00  0.00    -0.339 A  
HETATM   25  C   UNL     1      -8.657   9.172  64.966  1.00  0.00    -0.204 A  
HETATM   26  C   UNL     1      -8.372   8.785  66.274  1.00  0.00    -0.118 A  
HETATM   27  C   UNL     1      -9.132   9.211  67.358  1.00  0.00    -0.142 A  
HETATM   28  F   UNL     1      -7.325   7.977  66.494  1.00  0.00    -0.077 F  
ENDBRANCH  16  19
ENDBRANCH  12  13
ENDBRANCH  11  12
ENDBRANCH  10  11
ENDBRANCH   9  10
ENDBRANCH   4   9
BRANCH   6  29
HETATM   29  C   UNL     1     -12.762  13.034  71.155  1.00  0.00    -0.283 C  
HETATM   30  O   UNL     1     -12.559  11.869  70.818  1.00  0.00    -0.308 OA 
HETATM   31  C   UNL     1     -13.789  13.367  72.210  1.00  0.00    -0.671 C  
ENDBRANCH   6  29
ENDBRANCH   2   3
TORSDOF 8
ENDMDL
MODEL       89
REMARK 921   NORMALIZED FREE ENERGY PREDICTED BY IDOCK:   -5.92 KCAL/MOL
REMARK 922        TOTAL FREE ENERGY PREDICTED BY IDOCK:   -9.48 KCAL/MOL
REMARK 923 INTER-LIGAND FREE ENERGY PREDICTED BY IDOCK:   -7.69 KCAL/MOL
REMARK 924 INTRA-LIGAND FREE ENERGY PREDICTED BY IDOCK:   -1.79 KCAL/MOL
REMARK 927      BINDING AFFINITY PREDICTED BY RF-SCORE:    0.00 PKD
ROOT
HETATM    1  C   UNL     1     -11.894  13.788  66.630  1.00  0.00    -0.412 C  
HETATM    2  O   UNL     1     -11.266  12.951  67.591  1.00  0.00    -0.252 OA 
ENDROOT
BRANCH   2   3
HETATM    3  C   UNL     1     -11.742  12.999  68.877  1.00  0.00    -0.328 A  
HETATM    4  C   UNL     1     -11.825  11.765  69.548  1.00  0.00    -0.337 A  
HETATM    5  C   UNL     1     -12.300  11.722  70.860  1.00  0.00    -0.420 A  
HETATM    6  C   UNL     1     -12.592  14.124  70.858  1.00  0.00    -0.433 A  
HETATM    7  C   UNL     1     -12.113  14.173  69.542  1.00  0.00    -0.388 A  
HETATM    8  C   UNL     1     -12.671  12.898  71.518  1.00  0.00    -0.339 A  
BRANCH   4   9
HETATM    9  O   UNL     1     -11.466  10.649  68.836  1.00  0.00    -0.262 OA 
BRANCH   9  10
HETATM   10  C   UNL     1     -10.508   9.765  69.419  1.00  0.00    -0.223 C  
BRANCH  10  11
HETATM   11  C   UNL     1      -9.427   9.336  68.419  1.00  0.00    -0.145 C  
BRANCH  11  12
HETATM   12  C   UNL     1      -7.985   9.471  68.940  1.00  0.00    -0.091 C  
BRANCH  12  13
HETATM   13  N   UNL     1      -7.292  10.621  68.349  1.00  0.00    -0.087 NA 
HETATM   14  C   UNL     1      -6.500  11.381  69.324  1.00  0.00    -0.096 C  
HETATM   15  C   UNL     1      -5.635  12.436  68.607  1.00  0.00    -0.054 C  
HETATM   16  C   UNL     1      -6.430  13.315  67.620  1.00  0.00    -0.167 C  
HETATM   17  C   UNL     1      -7.292  12.395  66.739  1.00  0.00     0.194 C  
HETATM   18  C   UNL     1      -8.179  11.504  67.597  1.00  0.00    -0.131 C  
BRANCH  16  19
HETATM   19  C   UNL     1      -7.267  14.379  68.281  1.00  0.00    -0.122 A  
HETATM   20  N   UNL     1      -7.332  14.475  69.618  1.00  0.00    -0.070 NA 
HETATM   21  O   UNL     1      -8.306  15.414  69.887  1.00  0.00    -0.134 OA 
HETATM   22  C   UNL     1      -8.811  15.893  68.718  1.00  0.00    -0.213 A  
HETATM   23  C   UNL     1      -8.135  15.327  67.660  1.00  0.00    -0.173 A  
HETATM   24  C   UNL     1      -8.476  15.723  66.354  1.00  0.00    -0.313 A  
HETATM   25  C   UNL     1      -9.534  16.631  66.193  1.00  0.00    -0.319 A  
HETATM   26  C   UNL     1     -10.208  17.139  67.301  1.00  0.00    -0.316 A  
HETATM   27  C   UNL     1      -9.852  16.808  68.604  1.00  0.00    -0.261 A  
HETATM   28  F   UNL     1     -11.240  17.972  67.103  1.00  0.00    -0.207 F  
ENDBRANCH  16  19
ENDBRANCH  12  13
ENDBRANCH  11  12
ENDBRANCH  10  11
ENDBRANCH   9  10
ENDBRANCH   4   9
BRANCH   6  29
HETATM   29  C   UNL     1     -13.001  15.400  71.506  1.00  0.00    -0.447 C  
HETATM   30  O   UNL     1     -14.159  15.797  71.380  1.00  0.00    -0.498 OA 
HETATM   31  C   UNL     1     -12.013  16.157  72.358  1.00  0.00    -0.649 C  
ENDBRANCH   6  29
ENDBRANCH   2   3
TORSDOF 8
ENDMDL
MODEL       90
REMARK 921   NORMALIZED FREE ENERGY PREDICTED BY IDOCK:   -5.90 KCAL/MOL
REMARK 922        TOTAL FREE ENERGY PREDICTED BY IDOCK:   -9.46 KCAL/MOL
REMARK 923 INTER-LIGAND FREE ENERGY PREDICTED BY IDOCK:   -8.73 KCAL/MOL
REMARK 924 INTRA-LIGAND FREE ENERGY PREDICTED BY IDOCK:   -0.72 KCAL/MOL
REMARK 927      BINDING AFFINITY PREDICTED BY RF-SCORE:    0.00 PKD
ROOT
HETATM    1  C   UNL     1     -12.607  13.421  65.164  1.00  0.00    -0.440 C  
HETATM    2  O   UNL     1     -12.395  12.695  66.366  1.00  0.00    -0.521 OA 
ENDROOT
BRANCH   2   3
HETATM    3  C   UNL     1     -11.430  11.720  66.353  1.00  0.00    -0.239 A  
HETATM    4  C   UNL     1     -11.380  10.889  67.487  1.00  0.00    -0.232 A  
HETATM    5  C   UNL     1     -10.426   9.871  67.558  1.00  0.00    -0.310 A  
HETATM    6  C   UNL     1      -9.581  10.480  65.374  1.00  0.00    -0.291 A  
HETATM    7  C   UNL     1     -10.538  11.500  65.297  1.00  0.00    -0.339 A  
HETATM    8  C   UNL     1      -9.537   9.659  66.500  1.00  0.00    -0.252 A  
BRANCH   4   9
HETATM    9  O   UNL     1     -12.266  11.166  68.496  1.00  0.00    -0.600 OA 
BRANCH   9  10
HETATM   10  C   UNL     1     -11.773  11.852  69.648  1.00  0.00    -0.343 C  
BRANCH  10  11
HETATM   11  C   UNL     1     -10.573  12.749  69.323  1.00  0.00     0.117 C  
BRANCH  11  12
HETATM   12  C   UNL     1     -10.924  14.235  69.115  1.00  0.00    -0.261 C  
BRANCH  12  13
HETATM   13  N   UNL     1     -10.285  14.788  67.917  1.00  0.00    -0.228 NA 
HETATM   14  C   UNL     1      -8.883  15.165  68.132  1.00  0.00    -0.169 C  
HETATM   15  C   UNL     1      -8.215  15.534  66.792  1.00  0.00    -0.277 C  
HETATM   16  C   UNL     1      -9.022  16.555  65.963  1.00  0.00    -0.276 C  
HETATM   17  C   UNL     1     -10.487  16.090  65.915  1.00  0.00    -0.373 C  
HETATM   18  C   UNL     1     -11.035  15.890  67.321  1.00  0.00    -0.234 C  
BRANCH  16  19
HETATM   19  C   UNL     1      -8.915  17.972  66.463  1.00  0.00    -0.265 A  
HETATM   20  N   UNL     1      -9.802  18.906  66.087  1.00  0.00    -0.461 NA 
HETATM   21  O   UNL     1      -9.320  20.107  66.566  1.00  0.00    -0.371 OA 
HETATM   22  C   UNL     1      -8.160  19.892  67.244  1.00  0.00    -0.306 A  
HETATM   23  C   UNL     1      -7.891  18.542  67.277  1.00  0.00    -0.240 A  
HETATM   24  C   UNL     1      -6.749  18.100  67.971  1.00  0.00    -0.206 A  
HETATM   25  C   UNL     1      -5.907  19.066  68.542  1.00  0.00    -0.227 A  
HETATM   26  C   UNL     1      -6.210  20.423  68.440  1.00  0.00    -0.308 A  
HETATM   27  C   UNL     1      -7.362  20.881  67.809  1.00  0.00    -0.201 A  
HETATM   28  F   UNL     1      -5.359  21.315  68.963  1.00  0.00    -0.357 F  
ENDBRANCH  16  19
ENDBRANCH  12  13
ENDBRANCH  11  12
ENDBRANCH  10  11
ENDBRANCH   9  10
ENDBRANCH   4   9
BRANCH   6  29
HETATM   29  C   UNL     1      -8.639  10.312  64.233  1.00  0.00    -0.192 C  
HETATM   30  O   UNL     1      -7.446  10.567  64.394  1.00  0.00    -0.057 OA 
HETATM   31  C   UNL     1      -9.144   9.772  62.919  1.00  0.00    -0.275 C  
ENDBRANCH   6  29
ENDBRANCH   2   3
TORSDOF 8
ENDMDL
MODEL       91
REMARK 921   NORMALIZED FREE ENERGY PREDICTED BY IDOCK:   -5.90 KCAL/MOL
REMARK 922        TOTAL FREE ENERGY PREDICTED BY IDOCK:   -9.45 KCAL/MOL
REMARK 923 INTER-LIGAND FREE ENERGY PREDICTED BY IDOCK:   -8.54 KCAL/MOL
REMARK 924 INTRA-LIGAND FREE ENERGY PREDICTED BY IDOCK:   -0.91 KCAL/MOL
REMARK 927      BINDING AFFINITY PREDICTED BY RF-SCORE:    0.00 PKD
ROOT
HETATM    1  C   UNL     1      -6.195   7.737  69.165  1.00  0.00    -0.035 C  
HETATM    2  O   UNL     1      -6.399   9.121  69.413  1.00  0.00    -0.043 OA 
ENDROOT
BRANCH   2   3
HETATM    3  C   UNL     1      -7.689   9.587  69.367  1.00  0.00    -0.094 A  
HETATM    4  C   UNL     1      -8.001  10.424  68.280  1.00  0.00    -0.111 A  
HETATM    5  C   UNL     1      -9.291  10.944  68.156  1.00  0.00    -0.165 A  
HETATM    6  C   UNL     1      -9.974   9.792  70.172  1.00  0.00    -0.315 A  
HETATM    7  C   UNL     1      -8.682   9.265  70.298  1.00  0.00    -0.246 A  
HETATM    8  C   UNL     1     -10.278  10.620  69.091  1.00  0.00    -0.238 A  
BRANCH   4   9
HETATM    9  O   UNL     1      -6.980  10.717  67.413  1.00  0.00    -0.078 OA 
BRANCH   9  10
HETATM   10  C   UNL     1      -6.725  12.092  67.122  1.00  0.00    -0.136 C  
BRANCH  10  11
HETATM   11  C   UNL     1      -6.356  12.893  68.376  1.00  0.00    -0.080 C  
BRANCH  11  12
HETATM   12  C   UNL     1      -6.052  14.381  68.117  1.00  0.00    -0.137 C  
BRANCH  12  13
HETATM   13  N   UNL     1      -7.262  15.207  68.177  1.00  0.00    -0.107 NA 
HETATM   14  C   UNL     1      -8.487  14.424  68.383  1.00  0.00    -0.165 C  
HETATM   15  C   UNL     1      -9.683  15.360  68.650  1.00  0.00    -0.210 C  
HETATM   16  C   UNL     1      -9.825  16.489  67.608  1.00  0.00    -0.247 C  
HETATM   17  C   UNL     1      -8.448  17.146  67.416  1.00  0.00    -0.202 C  
HETATM   18  C   UNL     1      -7.404  16.105  67.035  1.00  0.00    -0.231 C  
BRANCH  16  19
HETATM   19  C   UNL     1     -10.405  16.041  66.292  1.00  0.00    -0.321 A  
HETATM   20  N   UNL     1     -10.488  16.883  65.252  1.00  0.00    -0.662 NA 
HETATM   21  O   UNL     1     -11.219  16.225  64.284  1.00  0.00    -0.770 OA 
HETATM   22  C   UNL     1     -11.557  14.987  64.734  1.00  0.00    -0.395 A  
HETATM   23  C   UNL     1     -11.002  14.783  65.979  1.00  0.00    -0.328 A  
HETATM   24  C   UNL     1     -11.199  13.540  66.608  1.00  0.00    -0.328 A  
HETATM   25  C   UNL     1     -12.004  12.590  65.960  1.00  0.00    -0.456 A  
HETATM   26  C   UNL     1     -12.573  12.869  64.720  1.00  0.00    -0.425 A  
HETATM   27  C   UNL     1     -12.347  14.068  64.051  1.00  0.00    -0.341 A  
HETATM   28  F   UNL     1     -13.370  11.952  64.154  1.00  0.00    -0.480 F  
ENDBRANCH  16  19
ENDBRANCH  12  13
ENDBRANCH  11  12
ENDBRANCH  10  11
ENDBRANCH   9  10
ENDBRANCH   4   9
BRANCH   6  29
HETATM   29  C   UNL     1     -10.983   9.441  71.209  1.00  0.00    -0.370 C  
HETATM   30  O   UNL     1     -10.688   8.634  72.089  1.00  0.00    -0.327 OA 
HETATM   31  C   UNL     1     -12.328  10.124  71.206  1.00  0.00    -0.501 C  
ENDBRANCH   6  29
ENDBRANCH   2   3
TORSDOF 8
ENDMDL
MODEL       92
REMARK 921   NORMALIZED FREE ENERGY PREDICTED BY IDOCK:   -5.89 KCAL/MOL
REMARK 922        TOTAL FREE ENERGY PREDICTED BY IDOCK:   -9.44 KCAL/MOL
REMARK 923 INTER-LIGAND FREE ENERGY PREDICTED BY IDOCK:   -8.47 KCAL/MOL
REMARK 924 INTRA-LIGAND FREE ENERGY PREDICTED BY IDOCK:   -0.97 KCAL/MOL
REMARK 927      BINDING AFFINITY PREDICTED BY RF-SCORE:    0.00 PKD
ROOT
HETATM    1  C   UNL     1     -11.513  12.793  67.370  1.00  0.00    -0.340 C  
HETATM    2  O   UNL     1     -10.677  11.656  67.528  1.00  0.00    -0.198 OA 
ENDROOT
BRANCH   2   3
HETATM    3  C   UNL     1     -10.743  10.986  68.724  1.00  0.00    -0.203 A  
HETATM    4  C   UNL     1      -9.651  10.149  69.020  1.00  0.00    -0.196 A  
HETATM    5  C   UNL     1      -9.638   9.428  70.217  1.00  0.00    -0.294 A  
HETATM    6  C   UNL     1     -11.773  10.378  70.841  1.00  0.00    -0.455 A  
HETATM    7  C   UNL     1     -11.790  11.106  69.644  1.00  0.00    -0.419 A  
HETATM    8  C   UNL     1     -10.688   9.551  71.130  1.00  0.00    -0.408 A  
BRANCH   4   9
HETATM    9  O   UNL     1      -8.666  10.058  68.071  1.00  0.00    -0.124 OA 
BRANCH   9  10
HETATM   10  C   UNL     1      -7.341  10.432  68.447  1.00  0.00    -0.085 C  
BRANCH  10  11
HETATM   11  C   UNL     1      -7.114  11.946  68.354  1.00  0.00    -0.086 C  
BRANCH  11  12
HETATM   12  C   UNL     1      -5.867  12.452  69.102  1.00  0.00    -0.075 C  
BRANCH  12  13
HETATM   13  N   UNL     1      -5.739  13.912  69.032  1.00  0.00    -0.079 NA 
HETATM   14  C   UNL     1      -6.302  14.598  70.201  1.00  0.00    -0.173 C  
HETATM   15  C   UNL     1      -5.946  16.098  70.166  1.00  0.00    -0.134 C  
HETATM   16  C   UNL     1      -6.272  16.776  68.820  1.00  0.00    -0.151 C  
HETATM   17  C   UNL     1      -5.719  15.895  67.687  1.00  0.00    -0.163 C  
HETATM   18  C   UNL     1      -6.264  14.477  67.793  1.00  0.00    -0.136 C  
BRANCH  16  19
HETATM   19  C   UNL     1      -7.736  17.069  68.619  1.00  0.00    -0.251 A  
HETATM   20  N   UNL     1      -8.678  16.327  69.221  1.00  0.00    -0.207 NA 
HETATM   21  O   UNL     1      -9.884  16.736  68.691  1.00  0.00    -0.239 OA 
HETATM   22  C   UNL     1      -9.670  17.732  67.790  1.00  0.00    -0.285 A  
HETATM   23  C   UNL     1      -8.327  18.040  67.756  1.00  0.00    -0.249 A  
HETATM   24  C   UNL     1      -7.897  19.080  66.913  1.00  0.00    -0.256 A  
HETATM   25  C   UNL     1      -8.851  19.712  66.100  1.00  0.00    -0.367 A  
HETATM   26  C   UNL     1     -10.190  19.328  66.147  1.00  0.00    -0.470 A  
HETATM   27  C   UNL     1     -10.650  18.342  67.014  1.00  0.00    -0.400 A  
HETATM   28  F   UNL     1     -11.062  19.927  65.325  1.00  0.00    -0.548 F  
ENDBRANCH  16  19
ENDBRANCH  12  13
ENDBRANCH  11  12
ENDBRANCH  10  11
ENDBRANCH   9  10
ENDBRANCH   4   9
BRANCH   6  29
HETATM   29  C   UNL     1     -12.929  10.522  71.769  1.00  0.00    -0.476 C  
HETATM   30  O   UNL     1     -13.374  11.642  72.009  1.00  0.00    -0.481 OA 
HETATM   31  C   UNL     1     -13.579   9.290  72.350  1.00  0.00    -0.527 C  
ENDBRANCH   6  29
ENDBRANCH   2   3
TORSDOF 8
ENDMDL
MODEL       93
REMARK 921   NORMALIZED FREE ENERGY PREDICTED BY IDOCK:   -5.88 KCAL/MOL
REMARK 922        TOTAL FREE ENERGY PREDICTED BY IDOCK:   -9.43 KCAL/MOL
REMARK 923 INTER-LIGAND FREE ENERGY PREDICTED BY IDOCK:   -8.15 KCAL/MOL
REMARK 924 INTRA-LIGAND FREE ENERGY PREDICTED BY IDOCK:   -1.28 KCAL/MOL
REMARK 927      BINDING AFFINITY PREDICTED BY RF-SCORE:    0.00 PKD
ROOT
HETATM    1  C   UNL     1     -10.055   8.712  66.458  1.00  0.00    -0.269 C  
HETATM    2  O   UNL     1      -9.224   9.602  67.188  1.00  0.00    -0.133 OA 
ENDROOT
BRANCH   2   3
HETATM    3  C   UNL     1      -9.129   9.410  68.543  1.00  0.00    -0.131 A  
HETATM    4  C   UNL     1      -7.854   9.607  69.105  1.00  0.00    -0.090 A  
HETATM    5  C   UNL     1      -7.668   9.431  70.478  1.00  0.00    -0.177 A  
HETATM    6  C   UNL     1     -10.010   8.885  70.748  1.00  0.00    -0.282 A  
HETATM    7  C   UNL     1     -10.203   9.064  69.372  1.00  0.00    -0.206 A  
HETATM    8  C   UNL     1      -8.744   9.083  71.299  1.00  0.00    -0.240 A  
BRANCH   4   9
HETATM    9  O   UNL     1      -6.840   9.926  68.238  1.00  0.00    -0.063 OA 
BRANCH   9  10
HETATM   10  C   UNL     1      -6.174  11.175  68.421  1.00  0.00    -0.045 C  
BRANCH  10  11
HETATM   11  C   UNL     1      -6.407  12.136  67.249  1.00  0.00    -0.152 C  
BRANCH  11  12
HETATM   12  C   UNL     1      -6.623  13.604  67.659  1.00  0.00    -0.165 C  
BRANCH  12  13
HETATM   13  N   UNL     1      -8.009  14.035  67.451  1.00  0.00    -0.181 NA 
HETATM   14  C   UNL     1      -8.442  15.065  68.403  1.00  0.00    -0.153 C  
HETATM   15  C   UNL     1      -9.822  15.623  67.998  1.00  0.00    -0.209 C  
HETATM   16  C   UNL     1     -10.875  14.528  67.733  1.00  0.00    -0.267 C  
HETATM   17  C   UNL     1     -10.248  13.467  66.813  1.00  0.00    -0.259 C  
HETATM   18  C   UNL     1      -8.958  12.926  67.415  1.00  0.00    -0.199 C  
BRANCH  16  19
HETATM   19  C   UNL     1     -11.439  13.903  68.982  1.00  0.00    -0.299 A  
HETATM   20  N   UNL     1     -11.881  12.637  68.983  1.00  0.00    -0.304 NA 
HETATM   21  O   UNL     1     -12.488  12.444  70.207  1.00  0.00    -0.195 OA 
HETATM   22  C   UNL     1     -12.393  13.582  70.945  1.00  0.00    -0.356 A  
HETATM   23  C   UNL     1     -11.668  14.523  70.247  1.00  0.00    -0.356 A  
HETATM   24  C   UNL     1     -11.418  15.767  70.856  1.00  0.00    -0.438 A  
HETATM   25  C   UNL     1     -11.973  16.008  72.122  1.00  0.00    -0.629 A  
HETATM   26  C   UNL     1     -12.733  15.031  72.762  1.00  0.00    -0.400 A  
HETATM   27  C   UNL     1     -12.947  13.774  72.206  1.00  0.00    -0.432 A  
HETATM   28  F   UNL     1     -13.281  15.316  73.951  1.00  0.00    -0.538 F  
ENDBRANCH  16  19
ENDBRANCH  12  13
ENDBRANCH  11  12
ENDBRANCH  10  11
ENDBRANCH   9  10
ENDBRANCH   4   9
BRANCH   6  29
HETATM   29  C   UNL     1     -11.181   8.487  71.577  1.00  0.00    -0.279 C  
HETATM   30  O   UNL     1     -11.147   7.427  72.199  1.00  0.00    -0.233 OA 
HETATM   31  C   UNL     1     -12.365   9.415  71.693  1.00  0.00    -0.465 C  
ENDBRANCH   6  29
ENDBRANCH   2   3
TORSDOF 8
ENDMDL
MODEL       94
REMARK 921   NORMALIZED FREE ENERGY PREDICTED BY IDOCK:   -5.88 KCAL/MOL
REMARK 922        TOTAL FREE ENERGY PREDICTED BY IDOCK:   -9.42 KCAL/MOL
REMARK 923 INTER-LIGAND FREE ENERGY PREDICTED BY IDOCK:   -8.52 KCAL/MOL
REMARK 924 INTRA-LIGAND FREE ENERGY PREDICTED BY IDOCK:   -0.90 KCAL/MOL
REMARK 927      BINDING AFFINITY PREDICTED BY RF-SCORE:    0.00 PKD
ROOT
HETATM    1  C   UNL     1      -9.203  10.095  69.405  1.00  0.00    -0.214 C  
HETATM    2  O   UNL     1     -10.355  10.818  69.812  1.00  0.00    -0.171 OA 
ENDROOT
BRANCH   2   3
HETATM    3  C   UNL     1     -11.285  10.150  70.568  1.00  0.00    -0.336 A  
HETATM    4  C   UNL     1     -12.291  10.945  71.148  1.00  0.00    -0.374 A  
HETATM    5  C   UNL     1     -13.278  10.346  71.935  1.00  0.00    -0.535 A  
HETATM    6  C   UNL     1     -12.291   8.170  71.557  1.00  0.00    -0.335 A  
HETATM    7  C   UNL     1     -11.301   8.765  70.765  1.00  0.00    -0.313 A  
HETATM    8  C   UNL     1     -13.285   8.963  72.129  1.00  0.00    -0.478 A  
BRANCH   4   9
HETATM    9  O   UNL     1     -12.210  12.297  70.935  1.00  0.00    -0.353 OA 
BRANCH   9  10
HETATM   10  C   UNL     1     -13.064  13.147  71.702  1.00  0.00    -0.353 C  
BRANCH  10  11
HETATM   11  C   UNL     1     -13.404  14.448  70.966  1.00  0.00    -0.359 C  
BRANCH  11  12
HETATM   12  C   UNL     1     -12.204  15.385  70.737  1.00  0.00    -0.381 C  
BRANCH  12  13
HETATM   13  N   UNL     1     -11.796  15.422  69.328  1.00  0.00    -0.342 NA 
HETATM   14  C   UNL     1     -12.224  14.238  68.573  1.00  0.00    -0.159 C  
HETATM   15  C   UNL     1     -11.955  14.437  67.068  1.00  0.00    -0.424 C  
HETATM   16  C   UNL     1     -10.516  14.897  66.755  1.00  0.00    -0.284 C  
HETATM   17  C   UNL     1     -10.168  16.066  67.692  1.00  0.00    -0.262 C  
HETATM   18  C   UNL     1     -10.368  15.667  69.148  1.00  0.00    -0.241 C  
BRANCH  16  19
HETATM   19  C   UNL     1      -9.487  13.800  66.845  1.00  0.00    -0.262 A  
HETATM   20  N   UNL     1      -8.256  14.045  67.316  1.00  0.00    -0.186 NA 
HETATM   21  O   UNL     1      -7.526  12.895  67.095  1.00  0.00    -0.115 OA 
HETATM   22  C   UNL     1      -8.321  11.957  66.512  1.00  0.00    -0.062 A  
HETATM   23  C   UNL     1      -9.603  12.450  66.396  1.00  0.00    -0.249 A  
HETATM   24  C   UNL     1     -10.597  11.617  65.853  1.00  0.00    -0.318 A  
HETATM   25  C   UNL     1     -10.219  10.344  65.399  1.00  0.00    -0.329 A  
HETATM   26  C   UNL     1      -8.897   9.916  65.504  1.00  0.00    -0.159 A  
HETATM   27  C   UNL     1      -7.907  10.699  66.089  1.00  0.00    -0.152 A  
HETATM   28  F   UNL     1      -8.568   8.711  65.020  1.00  0.00    -0.163 F  
ENDBRANCH  16  19
ENDBRANCH  12  13
ENDBRANCH  11  12
ENDBRANCH  10  11
ENDBRANCH   9  10
ENDBRANCH   4   9
BRANCH   6  29
HETATM   29  C   UNL     1     -12.240   6.695  71.758  1.00  0.00    -0.353 C  
HETATM   30  O   UNL     1     -13.208   6.120  72.252  1.00  0.00     0.068 OA 
HETATM   31  C   UNL     1     -11.032   5.919  71.294  1.00  0.00    -0.325 C  
ENDBRANCH   6  29
ENDBRANCH   2   3
TORSDOF 8
ENDMDL
MODEL       95
REMARK 921   NORMALIZED FREE ENERGY PREDICTED BY IDOCK:   -5.86 KCAL/MOL
REMARK 922        TOTAL FREE ENERGY PREDICTED BY IDOCK:   -9.40 KCAL/MOL
REMARK 923 INTER-LIGAND FREE ENERGY PREDICTED BY IDOCK:   -8.42 KCAL/MOL
REMARK 924 INTRA-LIGAND FREE ENERGY PREDICTED BY IDOCK:   -0.99 KCAL/MOL
REMARK 927      BINDING AFFINITY PREDICTED BY RF-SCORE:    0.00 PKD
ROOT
HETATM    1  C   UNL     1     -11.753  11.566  69.625  1.00  0.00    -0.351 C  
HETATM    2  O   UNL     1     -10.633  11.071  68.907  1.00  0.00    -0.188 OA 
ENDROOT
BRANCH   2   3
HETATM    3  C   UNL     1     -10.666  11.170  67.538  1.00  0.00    -0.236 A  
HETATM    4  C   UNL     1      -9.752  10.358  66.841  1.00  0.00    -0.181 A  
HETATM    5  C   UNL     1      -9.716  10.398  65.446  1.00  0.00    -0.325 A  
HETATM    6  C   UNL     1     -11.504  12.028  65.424  1.00  0.00    -0.361 A  
HETATM    7  C   UNL     1     -11.546  11.989  66.823  1.00  0.00    -0.391 A  
HETATM    8  C   UNL     1     -10.597  11.220  64.738  1.00  0.00    -0.376 A  
BRANCH   4   9
HETATM    9  O   UNL     1      -8.903   9.592  67.598  1.00  0.00    -0.125 OA 
BRANCH   9  10
HETATM   10  C   UNL     1      -7.667  10.176  68.012  1.00  0.00    -0.089 C  
BRANCH  10  11
HETATM   11  C   UNL     1      -6.987  10.962  66.885  1.00  0.00    -0.119 C  
BRANCH  11  12
HETATM   12  C   UNL     1      -6.200  12.200  67.354  1.00  0.00    -0.142 C  
BRANCH  12  13
HETATM   13  N   UNL     1      -7.016  13.087  68.188  1.00  0.00    -0.092 NA 
HETATM   14  C   UNL     1      -8.185  13.628  67.484  1.00  0.00    -0.184 C  
HETATM   15  C   UNL     1      -9.108  14.372  68.470  1.00  0.00    -0.193 C  
HETATM   16  C   UNL     1      -8.368  15.404  69.346  1.00  0.00    -0.250 C  
HETATM   17  C   UNL     1      -7.113  14.733  69.928  1.00  0.00    -0.086 C  
HETATM   18  C   UNL     1      -6.246  14.157  68.816  1.00  0.00    -0.086 C  
BRANCH  16  19
HETATM   19  C   UNL     1      -8.021  16.682  68.628  1.00  0.00    -0.236 A  
HETATM   20  N   UNL     1      -6.902  17.359  68.925  1.00  0.00    -0.231 NA 
HETATM   21  O   UNL     1      -6.980  18.550  68.231  1.00  0.00    -0.235 OA 
HETATM   22  C   UNL     1      -8.131  18.579  67.507  1.00  0.00    -0.251 A  
HETATM   23  C   UNL     1      -8.800  17.384  67.660  1.00  0.00    -0.225 A  
HETATM   24  C   UNL     1     -10.002  17.192  66.955  1.00  0.00    -0.287 A  
HETATM   25  C   UNL     1     -10.492  18.254  66.179  1.00  0.00    -0.403 A  
HETATM   26  C   UNL     1      -9.791  19.455  66.095  1.00  0.00    -0.390 A  
HETATM   27  C   UNL     1      -8.572  19.649  66.736  1.00  0.00    -0.360 A  
HETATM   28  F   UNL     1     -10.313  20.459  65.377  1.00  0.00    -0.497 F  
ENDBRANCH  16  19
ENDBRANCH  12  13
ENDBRANCH  11  12
ENDBRANCH  10  11
ENDBRANCH   9  10
ENDBRANCH   4   9
BRANCH   6  29
HETATM   29  C   UNL     1     -12.444  12.941  64.716  1.00  0.00    -0.455 C  
HETATM   30  O   UNL     1     -13.201  13.654  65.373  1.00  0.00    -0.678 OA 
HETATM   31  C   UNL     1     -12.411  13.028  63.211  1.00  0.00    -0.392 C  
ENDBRANCH   6  29
ENDBRANCH   2   3
TORSDOF 8
ENDMDL
MODEL       96
REMARK 921   NORMALIZED FREE ENERGY PREDICTED BY IDOCK:   -5.86 KCAL/MOL
REMARK 922        TOTAL FREE ENERGY PREDICTED BY IDOCK:   -9.40 KCAL/MOL
REMARK 923 INTER-LIGAND FREE ENERGY PREDICTED BY IDOCK:   -8.21 KCAL/MOL
REMARK 924 INTRA-LIGAND FREE ENERGY PREDICTED BY IDOCK:   -1.19 KCAL/MOL
REMARK 927      BINDING AFFINITY PREDICTED BY RF-SCORE:    0.00 PKD
ROOT
HETATM    1  C   UNL     1     -14.317   8.314  71.981  1.00  0.00    -0.450 C  
HETATM    2  O   UNL     1     -13.223   9.089  72.451  1.00  0.00    -0.420 OA 
ENDROOT
BRANCH   2   3
HETATM    3  C   UNL     1     -12.511   9.803  71.520  1.00  0.00    -0.403 A  
HETATM    4  C   UNL     1     -11.526   9.085  70.817  1.00  0.00    -0.282 A  
HETATM    5  C   UNL     1     -10.752   9.734  69.853  1.00  0.00    -0.303 A  
HETATM    6  C   UNL     1     -11.939  11.803  70.261  1.00  0.00    -0.429 A  
HETATM    7  C   UNL     1     -12.720  11.155  71.226  1.00  0.00    -0.531 A  
HETATM    8  C   UNL     1     -10.966  11.085  69.566  1.00  0.00    -0.297 A  
BRANCH   4   9
HETATM    9  O   UNL     1     -11.355   7.769  71.164  1.00  0.00    -0.260 OA 
BRANCH   9  10
HETATM   10  C   UNL     1     -11.165   6.821  70.114  1.00  0.00    -0.335 C  
BRANCH  10  11
HETATM   11  C   UNL     1      -9.685   6.480  69.897  1.00  0.00    -0.176 C  
BRANCH  11  12
HETATM   12  C   UNL     1      -9.410   5.567  68.688  1.00  0.00    -0.125 C  
BRANCH  12  13
HETATM   13  N   UNL     1      -8.698   6.272  67.618  1.00  0.00    -0.114 NA 
HETATM   14  C   UNL     1      -7.624   7.140  68.114  1.00  0.00    -0.115 C  
HETATM   15  C   UNL     1      -6.783   7.679  66.939  1.00  0.00    -0.067 C  
HETATM   16  C   UNL     1      -7.631   8.307  65.813  1.00  0.00    -0.082 C  
HETATM   17  C   UNL     1      -8.776   7.339  65.473  1.00  0.00    -0.047 C  
HETATM   18  C   UNL     1      -9.586   7.003  66.719  1.00  0.00    -0.171 C  
BRANCH  16  19
HETATM   19  C   UNL     1      -8.155   9.682  66.134  1.00  0.00    -0.108 A  
HETATM   20  N   UNL     1      -7.930  10.245  67.330  1.00  0.00    -0.107 NA 
HETATM   21  O   UNL     1      -8.686  11.400  67.357  1.00  0.00    -0.140 OA 
HETATM   22  C   UNL     1      -9.346  11.539  66.176  1.00  0.00    -0.215 A  
HETATM   23  C   UNL     1      -8.988  10.514  65.327  1.00  0.00    -0.211 A  
HETATM   24  C   UNL     1      -9.531  10.495  64.029  1.00  0.00    -0.337 A  
HETATM   25  C   UNL     1     -10.459  11.490  63.685  1.00  0.00    -0.483 A  
HETATM   26  C   UNL     1     -10.814  12.478  64.602  1.00  0.00    -0.310 A  
HETATM   27  C   UNL     1     -10.249  12.552  65.871  1.00  0.00    -0.280 A  
HETATM   28  F   UNL     1     -11.735  13.385  64.249  1.00  0.00    -0.364 F  
ENDBRANCH  16  19
ENDBRANCH  12  13
ENDBRANCH  11  12
ENDBRANCH  10  11
ENDBRANCH   9  10
ENDBRANCH   4   9
BRANCH   6  29
HETATM   29  C   UNL     1     -12.186  13.250  70.011  1.00  0.00    -0.275 C  
HETATM   30  O   UNL     1     -12.180  13.673  68.856  1.00  0.00    -0.336 OA 
HETATM   31  C   UNL     1     -12.503  14.165  71.168  1.00  0.00    -0.445 C  
ENDBRANCH   6  29
ENDBRANCH   2   3
TORSDOF 8
ENDMDL
MODEL       97
REMARK 921   NORMALIZED FREE ENERGY PREDICTED BY IDOCK:   -5.84 KCAL/MOL
REMARK 922        TOTAL FREE ENERGY PREDICTED BY IDOCK:   -9.37 KCAL/MOL
REMARK 923 INTER-LIGAND FREE ENERGY PREDICTED BY IDOCK:   -7.68 KCAL/MOL
REMARK 924 INTRA-LIGAND FREE ENERGY PREDICTED BY IDOCK:   -1.69 KCAL/MOL
REMARK 927      BINDING AFFINITY PREDICTED BY RF-SCORE:    0.00 PKD
ROOT
HETATM    1  C   UNL     1      -8.348   8.909  64.873  1.00  0.00    -0.172 C  
HETATM    2  O   UNL     1      -7.577   9.641  65.814  1.00  0.00    -0.099 OA 
ENDROOT
BRANCH   2   3
HETATM    3  C   UNL     1      -8.044  10.875  66.191  1.00  0.00    -0.160 A  
HETATM    4  C   UNL     1      -7.282  11.551  67.161  1.00  0.00    -0.140 A  
HETATM    5  C   UNL     1      -7.688  12.812  67.603  1.00  0.00    -0.162 A  
HETATM    6  C   UNL     1      -9.591  12.749  66.110  1.00  0.00    -0.214 A  
HETATM    7  C   UNL     1      -9.187  11.485  65.661  1.00  0.00    -0.184 A  
HETATM    8  C   UNL     1      -8.831  13.415  67.071  1.00  0.00    -0.217 A  
BRANCH   4   9
HETATM    9  O   UNL     1      -6.186  10.892  67.655  1.00  0.00    -0.050 OA 
BRANCH   9  10
HETATM   10  C   UNL     1      -6.179  10.555  69.043  1.00  0.00    -0.044 C  
BRANCH  10  11
HETATM   11  C   UNL     1      -6.749   9.156  69.305  1.00  0.00    -0.049 C  
BRANCH  11  12
HETATM   12  C   UNL     1      -7.562   9.032  70.607  1.00  0.00    -0.119 C  
BRANCH  12  13
HETATM   13  N   UNL     1      -8.999   8.897  70.347  1.00  0.00    -0.165 NA 
HETATM   14  C   UNL     1      -9.507   9.882  69.385  1.00  0.00    -0.213 C  
HETATM   15  C   UNL     1     -10.962   9.552  68.996  1.00  0.00    -0.127 C  
HETATM   16  C   UNL     1     -11.886   9.323  70.210  1.00  0.00    -0.015 C  
HETATM   17  C   UNL     1     -11.182   8.360  71.179  1.00  0.00    -0.307 C  
HETATM   18  C   UNL     1      -9.807   8.891  71.563  1.00  0.00    -0.314 C  
BRANCH  16  19
HETATM   19  C   UNL     1     -12.308  10.589  70.908  1.00  0.00    -0.390 A  
HETATM   20  N   UNL     1     -13.040  10.547  72.031  1.00  0.00    -0.464 NA 
HETATM   21  O   UNL     1     -13.401  11.852  72.302  1.00  0.00    -0.471 OA 
HETATM   22  C   UNL     1     -12.871  12.675  71.356  1.00  0.00    -0.261 A  
HETATM   23  C   UNL     1     -12.102  11.936  70.484  1.00  0.00    -0.422 A  
HETATM   24  C   UNL     1     -11.426  12.608  69.449  1.00  0.00    -0.330 A  
HETATM   25  C   UNL     1     -11.621  13.992  69.320  1.00  0.00    -0.356 A  
HETATM   26  C   UNL     1     -12.446  14.679  70.209  1.00  0.00    -0.346 A  
HETATM   27  C   UNL     1     -13.078  14.047  71.274  1.00  0.00    -0.399 A  
HETATM   28  F   UNL     1     -12.639  15.992  70.026  1.00  0.00    -0.332 F  
ENDBRANCH  16  19
ENDBRANCH  12  13
ENDBRANCH  11  12
ENDBRANCH  10  11
ENDBRANCH   9  10
ENDBRANCH   4   9
BRANCH   6  29
HETATM   29  C   UNL     1     -10.831  13.338  65.534  1.00  0.00    -0.284 C  
HETATM   30  O   UNL     1     -10.754  14.355  64.847  1.00  0.00    -0.388 OA 
HETATM   31  C   UNL     1     -12.155  12.646  65.745  1.00  0.00    -0.484 C  
ENDBRANCH   6  29
ENDBRANCH   2   3
TORSDOF 8
ENDMDL
MODEL       98
REMARK 921   NORMALIZED FREE ENERGY PREDICTED BY IDOCK:   -5.84 KCAL/MOL
REMARK 922        TOTAL FREE ENERGY PREDICTED BY IDOCK:   -9.37 KCAL/MOL
REMARK 923 INTER-LIGAND FREE ENERGY PREDICTED BY IDOCK:   -9.11 KCAL/MOL
REMARK 924 INTRA-LIGAND FREE ENERGY PREDICTED BY IDOCK:   -0.26 KCAL/MOL
REMARK 927      BINDING AFFINITY PREDICTED BY RF-SCORE:    0.00 PKD
ROOT
HETATM    1  C   UNL     1      -8.023   4.488  69.134  1.00  0.00    -0.069 C  
HETATM    2  O   UNL     1      -9.072   5.433  68.980  1.00  0.00    -0.112 OA 
ENDROOT
BRANCH   2   3
HETATM    3  C   UNL     1      -9.917   5.617  70.045  1.00  0.00    -0.204 A  
HETATM    4  C   UNL     1     -10.814   6.696  69.939  1.00  0.00    -0.278 A  
HETATM    5  C   UNL     1     -11.708   6.957  70.979  1.00  0.00    -0.392 A  
HETATM    6  C   UNL     1     -10.848   5.069  72.224  1.00  0.00    -0.207 A  
HETATM    7  C   UNL     1      -9.950   4.801  71.182  1.00  0.00    -0.273 A  
HETATM    8  C   UNL     1     -11.734   6.139  72.112  1.00  0.00    -0.361 A  
BRANCH   4   9
HETATM    9  O   UNL     1     -10.719   7.469  68.811  1.00  0.00    -0.184 OA 
BRANCH   9  10
HETATM   10  C   UNL     1     -10.119   8.759  68.933  1.00  0.00    -0.198 C  
BRANCH  10  11
HETATM   11  C   UNL     1     -10.595   9.729  67.845  1.00  0.00    -0.310 C  
BRANCH  11  12
HETATM   12  C   UNL     1      -9.668  10.937  67.616  1.00  0.00    -0.171 C  
BRANCH  12  13
HETATM   13  N   UNL     1     -10.392  12.089  67.068  1.00  0.00    -0.210 NA 
HETATM   14  C   UNL     1      -9.520  13.034  66.359  1.00  0.00    -0.224 C  
HETATM   15  C   UNL     1     -10.364  14.099  65.631  1.00  0.00    -0.348 C  
HETATM   16  C   UNL     1     -11.419  14.772  66.534  1.00  0.00    -0.328 C  
HETATM   17  C   UNL     1     -12.178  13.671  67.293  1.00  0.00    -0.317 C  
HETATM   18  C   UNL     1     -11.210  12.780  68.060  1.00  0.00    -0.270 C  
BRANCH  16  19
HETATM   19  C   UNL     1     -10.852  15.797  67.481  1.00  0.00    -0.315 A  
HETATM   20  N   UNL     1     -10.667  15.511  68.779  1.00  0.00    -0.239 NA 
HETATM   21  O   UNL     1     -10.315  16.699  69.386  1.00  0.00    -0.300 OA 
HETATM   22  C   UNL     1     -10.270  17.689  68.454  1.00  0.00    -0.381 A  
HETATM   23  C   UNL     1     -10.529  17.160  67.208  1.00  0.00    -0.313 A  
HETATM   24  C   UNL     1     -10.489  18.015  66.092  1.00  0.00    -0.336 A  
HETATM   25  C   UNL     1     -10.248  19.380  66.312  1.00  0.00    -0.566 A  
HETATM   26  C   UNL     1     -10.034  19.865  67.601  1.00  0.00    -0.419 A  
HETATM   27  C   UNL     1     -10.012  19.031  68.714  1.00  0.00    -0.475 A  
HETATM   28  F   UNL     1      -9.849  21.181  67.774  1.00  0.00    -0.497 F  
ENDBRANCH  16  19
ENDBRANCH  12  13
ENDBRANCH  11  12
ENDBRANCH  10  11
ENDBRANCH   9  10
ENDBRANCH   4   9
BRANCH   6  29
HETATM   29  C   UNL     1     -10.817   4.186  73.422  1.00  0.00    -0.244 C  
HETATM   30  O   UNL     1     -10.923   4.685  74.542  1.00  0.00    -0.295 OA 
HETATM   31  C   UNL     1     -10.723   2.691  73.248  1.00  0.00    -0.277 C  
ENDBRANCH   6  29
ENDBRANCH   2   3
TORSDOF 8
ENDMDL
MODEL       99
REMARK 921   NORMALIZED FREE ENERGY PREDICTED BY IDOCK:   -5.84 KCAL/MOL
REMARK 922        TOTAL FREE ENERGY PREDICTED BY IDOCK:   -9.37 KCAL/MOL
REMARK 923 INTER-LIGAND FREE ENERGY PREDICTED BY IDOCK:   -8.25 KCAL/MOL
REMARK 924 INTRA-LIGAND FREE ENERGY PREDICTED BY IDOCK:   -1.11 KCAL/MOL
REMARK 927      BINDING AFFINITY PREDICTED BY RF-SCORE:    0.00 PKD
ROOT
HETATM    1  C   UNL     1     -10.627   7.323  67.019  1.00  0.00    -0.344 C  
HETATM    2  O   UNL     1     -10.300   8.592  66.471  1.00  0.00    -0.283 OA 
ENDROOT
BRANCH   2   3
HETATM    3  C   UNL     1      -9.331   8.630  65.500  1.00  0.00    -0.035 A  
HETATM    4  C   UNL     1      -9.381   9.730  64.625  1.00  0.00    -0.256 A  
HETATM    5  C   UNL     1      -8.433   9.846  63.606  1.00  0.00    -0.181 A  
HETATM    6  C   UNL     1      -7.370   7.796  64.329  1.00  0.00    -0.089 A  
HETATM    7  C   UNL     1      -8.316   7.677  65.355  1.00  0.00    -0.134 A  
HETATM    8  C   UNL     1      -7.423   8.890  63.465  1.00  0.00    -0.105 A  
BRANCH   4   9
HETATM    9  O   UNL     1     -10.409  10.618  64.806  1.00  0.00    -0.335 OA 
BRANCH   9  10
HETATM   10  C   UNL     1     -10.863  11.356  63.671  1.00  0.00    -0.384 C  
BRANCH  10  11
HETATM   11  C   UNL     1     -12.053  12.263  64.004  1.00  0.00    -0.563 C  
BRANCH  11  12
HETATM   12  C   UNL     1     -11.708  13.761  64.098  1.00  0.00    -0.364 C  
BRANCH  12  13
HETATM   13  N   UNL     1     -11.447  14.179  65.480  1.00  0.00    -0.317 NA 
HETATM   14  C   UNL     1     -10.102  13.821  65.946  1.00  0.00    -0.313 C  
HETATM   15  C   UNL     1      -9.818  14.472  67.315  1.00  0.00    -0.236 C  
HETATM   16  C   UNL     1     -10.931  14.227  68.355  1.00  0.00    -0.267 C  
HETATM   17  C   UNL     1     -12.285  14.537  67.696  1.00  0.00    -0.146 C  
HETATM   18  C   UNL     1     -12.464  13.722  66.422  1.00  0.00    -0.355 C  
BRANCH  16  19
HETATM   19  C   UNL     1     -10.919  12.845  68.954  1.00  0.00    -0.228 A  
HETATM   20  N   UNL     1     -10.188  11.862  68.407  1.00  0.00    -0.201 NA 
HETATM   21  O   UNL     1     -10.538  10.707  69.077  1.00  0.00    -0.193 OA 
HETATM   22  C   UNL     1     -11.461  10.999  70.033  1.00  0.00    -0.314 A  
HETATM   23  C   UNL     1     -11.687  12.358  70.054  1.00  0.00    -0.307 A  
HETATM   24  C   UNL     1     -12.583  12.876  71.006  1.00  0.00    -0.376 A  
HETATM   25  C   UNL     1     -13.250  11.973  71.848  1.00  0.00    -0.469 A  
HETATM   26  C   UNL     1     -13.011  10.604  71.753  1.00  0.00    -0.472 A  
HETATM   27  C   UNL     1     -12.087  10.072  70.859  1.00  0.00    -0.448 A  
HETATM   28  F   UNL     1     -13.699   9.772  72.546  1.00  0.00    -0.452 F  
ENDBRANCH  16  19
ENDBRANCH  12  13
ENDBRANCH  11  12
ENDBRANCH  10  11
ENDBRANCH   9  10
ENDBRANCH   4   9
BRANCH   6  29
HETATM   29  C   UNL     1      -6.331   6.737  64.202  1.00  0.00    -0.035 C  
HETATM   30  O   UNL     1      -5.855   6.235  65.218  1.00  0.00    -0.024 OA 
HETATM   31  C   UNL     1      -5.923   6.249  62.834  1.00  0.00    -0.026 C  
ENDBRANCH   6  29
ENDBRANCH   2   3
TORSDOF 8
ENDMDL
MODEL      100
REMARK 921   NORMALIZED FREE ENERGY PREDICTED BY IDOCK:   -5.84 KCAL/MOL
REMARK 922        TOTAL FREE ENERGY PREDICTED BY IDOCK:   -9.36 KCAL/MOL
REMARK 923 INTER-LIGAND FREE ENERGY PREDICTED BY IDOCK:   -7.55 KCAL/MOL
REMARK 924 INTRA-LIGAND FREE ENERGY PREDICTED BY IDOCK:   -1.81 KCAL/MOL
REMARK 927      BINDING AFFINITY PREDICTED BY RF-SCORE:    0.00 PKD
ROOT
HETATM    1  C   UNL     1     -11.558  12.460  64.119  1.00  0.00    -0.386 C  
HETATM    2  O   UNL     1     -12.293  12.642  65.321  1.00  0.00    -0.482 OA 
ENDROOT
BRANCH   2   3
HETATM    3  C   UNL     1     -11.766  13.492  66.261  1.00  0.00    -0.367 A  
HETATM    4  C   UNL     1     -11.673  12.980  67.568  1.00  0.00    -0.370 A  
HETATM    5  C   UNL     1     -11.150  13.779  68.587  1.00  0.00    -0.293 A  
HETATM    6  C   UNL     1     -10.789  15.586  67.018  1.00  0.00    -0.314 A  
HETATM    7  C   UNL     1     -11.310  14.787  65.992  1.00  0.00    -0.332 A  
HETATM    8  C   UNL     1     -10.698  15.073  68.312  1.00  0.00    -0.253 A  
BRANCH   4   9
HETATM    9  O   UNL     1     -12.154  11.713  67.772  1.00  0.00    -0.613 OA 
BRANCH   9  10
HETATM   10  C   UNL     1     -11.724  11.015  68.941  1.00  0.00    -0.330 C  
BRANCH  10  11
HETATM   11  C   UNL     1     -11.007   9.702  68.605  1.00  0.00    -0.152 C  
BRANCH  11  12
HETATM   12  C   UNL     1     -10.032   9.210  69.691  1.00  0.00    -0.190 C  
BRANCH  12  13
HETATM   13  N   UNL     1      -8.638   9.526  69.362  1.00  0.00    -0.147 NA 
HETATM   14  C   UNL     1      -7.774   9.624  70.545  1.00  0.00    -0.128 C  
HETATM   15  C   UNL     1      -6.296   9.743  70.121  1.00  0.00    -0.076 C  
HETATM   16  C   UNL     1      -6.045  10.839  69.065  1.00  0.00    -0.041 C  
HETATM   17  C   UNL     1      -7.087  10.680  67.946  1.00  0.00    -0.086 C  
HETATM   18  C   UNL     1      -8.499  10.708  68.516  1.00  0.00    -0.136 C  
BRANCH  16  19
HETATM   19  C   UNL     1      -6.049  12.239  69.621  1.00  0.00    -0.132 A  
HETATM   20  N   UNL     1      -5.921  12.459  70.938  1.00  0.00    -0.259 NA 
HETATM   21  O   UNL     1      -6.146  13.808  71.124  1.00  0.00    -0.159 OA 
HETATM   22  C   UNL     1      -6.388  14.398  69.922  1.00  0.00    -0.155 A  
HETATM   23  C   UNL     1      -6.265  13.462  68.918  1.00  0.00    -0.090 A  
HETATM   24  C   UNL     1      -6.437  13.879  67.586  1.00  0.00    -0.161 A  
HETATM   25  C   UNL     1      -6.787  15.218  67.350  1.00  0.00    -0.188 A  
HETATM   26  C   UNL     1      -6.938  16.109  68.410  1.00  0.00    -0.129 A  
HETATM   27  C   UNL     1      -6.718  15.736  69.732  1.00  0.00    -0.140 A  
HETATM   28  F   UNL     1      -7.313  17.368  68.146  1.00  0.00    -0.181 F  
ENDBRANCH  16  19
ENDBRANCH  12  13
ENDBRANCH  11  12
ENDBRANCH  10  11
ENDBRANCH   9  10
ENDBRANCH   4   9
BRANCH   6  29
HETATM   29  C   UNL     1     -10.348  16.967  66.681  1.00  0.00    -0.299 C  
HETATM   30  O   UNL     1      -9.854  17.189  65.577  1.00  0.00    -0.549 OA 
HETATM   31  C   UNL     1     -10.569  18.085  67.668  1.00  0.00    -0.413 C  
ENDBRANCH   6  29
ENDBRANCH   2   3
TORSDOF 8
ENDMDL
MODEL      101
REMARK 921   NORMALIZED FREE ENERGY PREDICTED BY IDOCK:   -5.82 KCAL/MOL
REMARK 922        TOTAL FREE ENERGY PREDICTED BY IDOCK:   -9.33 KCAL/MOL
REMARK 923 INTER-LIGAND FREE ENERGY PREDICTED BY IDOCK:   -8.43 KCAL/MOL
REMARK 924 INTRA-LIGAND FREE ENERGY PREDICTED BY IDOCK:   -0.91 KCAL/MOL
REMARK 927      BINDING AFFINITY PREDICTED BY RF-SCORE:    0.00 PKD
ROOT
HETATM    1  C   UNL     1     -12.490  14.675  70.399  1.00  0.00    -0.352 C  
HETATM    2  O   UNL     1     -12.298  14.049  69.139  1.00  0.00    -0.313 OA 
ENDROOT
BRANCH   2   3
HETATM    3  C   UNL     1     -11.687  14.786  68.155  1.00  0.00    -0.325 A  
HETATM    4  C   UNL     1     -11.604  14.173  66.891  1.00  0.00    -0.391 A  
HETATM    5  C   UNL     1     -10.996  14.852  65.833  1.00  0.00    -0.338 A  
HETATM    6  C   UNL     1     -10.570  16.754  67.266  1.00  0.00    -0.275 A  
HETATM    7  C   UNL     1     -11.182  16.079  68.331  1.00  0.00    -0.364 A  
HETATM    8  C   UNL     1     -10.492  16.143  66.016  1.00  0.00    -0.349 A  
BRANCH   4   9
HETATM    9  O   UNL     1     -12.099  12.899  66.788  1.00  0.00    -0.399 OA 
BRANCH   9  10
HETATM   10  C   UNL     1     -11.295  11.922  66.127  1.00  0.00    -0.324 C  
BRANCH  10  11
HETATM   11  C   UNL     1     -10.748  10.866  67.095  1.00  0.00    -0.320 C  
BRANCH  11  12
HETATM   12  C   UNL     1     -11.481  10.798  68.448  1.00  0.00    -0.288 C  
BRANCH  12  13
HETATM   13  N   UNL     1     -10.599  10.343  69.528  1.00  0.00    -0.232 NA 
HETATM   14  C   UNL     1      -9.258   9.973  69.061  1.00  0.00    -0.178 C  
HETATM   15  C   UNL     1      -8.325   9.712  70.261  1.00  0.00    -0.216 C  
HETATM   16  C   UNL     1      -8.920   8.741  71.302  1.00  0.00    -0.295 C  
HETATM   17  C   UNL     1     -10.358   9.187  71.613  1.00  0.00    -0.388 C  
HETATM   18  C   UNL     1     -11.182   9.276  70.336  1.00  0.00    -0.247 C  
BRANCH  16  19
HETATM   19  C   UNL     1      -8.873   7.293  70.888  1.00  0.00    -0.149 A  
HETATM   20  N   UNL     1      -8.492   6.941  69.651  1.00  0.00    -0.132 NA 
HETATM   21  O   UNL     1      -8.734   5.586  69.549  1.00  0.00    -0.103 OA 
HETATM   22  C   UNL     1      -9.240   5.124  70.724  1.00  0.00    -0.145 A  
HETATM   23  C   UNL     1      -9.280   6.152  71.642  1.00  0.00    -0.150 A  
HETATM   24  C   UNL     1      -9.735   5.873  72.943  1.00  0.00    -0.164 A  
HETATM   25  C   UNL     1     -10.184   4.574  73.224  1.00  0.00    -0.223 A  
HETATM   26  C   UNL     1     -10.158   3.585  72.242  1.00  0.00    -0.150 A  
HETATM   27  C   UNL     1      -9.659   3.821  70.965  1.00  0.00    -0.249 A  
HETATM   28  F   UNL     1     -10.634   2.368  72.539  1.00  0.00    -0.226 F  
ENDBRANCH  16  19
ENDBRANCH  12  13
ENDBRANCH  11  12
ENDBRANCH  10  11
ENDBRANCH   9  10
ENDBRANCH   4   9
BRANCH   6  29
HETATM   29  C   UNL     1     -10.023  18.116  67.519  1.00  0.00    -0.332 C  
HETATM   30  O   UNL     1      -9.374  18.325  68.542  1.00  0.00    -0.305 OA 
HETATM   31  C   UNL     1     -10.216  19.202  66.489  1.00  0.00    -0.506 C  
ENDBRANCH   6  29
ENDBRANCH   2   3
TORSDOF 8
ENDMDL
MODEL      102
REMARK 921   NORMALIZED FREE ENERGY PREDICTED BY IDOCK:   -5.78 KCAL/MOL
REMARK 922        TOTAL FREE ENERGY PREDICTED BY IDOCK:   -9.28 KCAL/MOL
REMARK 923 INTER-LIGAND FREE ENERGY PREDICTED BY IDOCK:   -8.63 KCAL/MOL
REMARK 924 INTRA-LIGAND FREE ENERGY PREDICTED BY IDOCK:   -0.65 KCAL/MOL
REMARK 927      BINDING AFFINITY PREDICTED BY RF-SCORE:    0.00 PKD
ROOT
HETATM    1  C   UNL     1      -6.991  14.390  67.829  1.00  0.00    -0.176 C  
HETATM    2  O   UNL     1      -8.184  13.950  67.198  1.00  0.00    -0.171 OA 
ENDROOT
BRANCH   2   3
HETATM    3  C   UNL     1      -8.990  14.907  66.633  1.00  0.00    -0.270 A  
HETATM    4  C   UNL     1     -10.017  14.431  65.797  1.00  0.00    -0.329 A  
HETATM    5  C   UNL     1     -10.882  15.337  65.180  1.00  0.00    -0.441 A  
HETATM    6  C   UNL     1      -9.732  17.188  66.231  1.00  0.00    -0.296 A  
HETATM    7  C   UNL     1      -8.863  16.283  66.856  1.00  0.00    -0.242 A  
HETATM    8  C   UNL     1     -10.748  16.709  65.405  1.00  0.00    -0.228 A  
BRANCH   4   9
HETATM    9  O   UNL     1     -10.076  13.075  65.603  1.00  0.00    -0.279 OA 
BRANCH   9  10
HETATM   10  C   UNL     1     -11.174  12.365  66.178  1.00  0.00    -0.322 C  
BRANCH  10  11
HETATM   11  C   UNL     1     -10.911  10.858  66.267  1.00  0.00    -0.191 C  
BRANCH  11  12
HETATM   12  C   UNL     1      -9.450  10.447  66.005  1.00  0.00    -0.185 C  
BRANCH  12  13
HETATM   13  N   UNL     1      -8.854   9.768  67.160  1.00  0.00    -0.132 NA 
HETATM   14  C   UNL     1      -8.768   8.312  66.993  1.00  0.00    -0.127 C  
HETATM   15  C   UNL     1      -7.945   7.688  68.138  1.00  0.00    -0.123 C  
HETATM   16  C   UNL     1      -8.405   8.135  69.541  1.00  0.00    -0.122 C  
HETATM   17  C   UNL     1      -8.556   9.665  69.536  1.00  0.00    -0.177 C  
HETATM   18  C   UNL     1      -9.498  10.110  68.425  1.00  0.00    -0.143 C  
BRANCH  16  19
HETATM   19  C   UNL     1      -9.667   7.462  70.015  1.00  0.00    -0.175 A  
HETATM   20  N   UNL     1      -9.990   6.229  69.600  1.00  0.00    -0.161 NA 
HETATM   21  O   UNL     1     -11.267   5.990  70.067  1.00  0.00    -0.372 OA 
HETATM   22  C   UNL     1     -11.700   7.068  70.776  1.00  0.00    -0.349 A  
HETATM   23  C   UNL     1     -10.695   8.008  70.842  1.00  0.00    -0.240 A  
HETATM   24  C   UNL     1     -10.926   9.189  71.570  1.00  0.00    -0.434 A  
HETATM   25  C   UNL     1     -12.193   9.377  72.143  1.00  0.00    -0.336 A  
HETATM   26  C   UNL     1     -13.185   8.407  72.007  1.00  0.00    -0.346 A  
HETATM   27  C   UNL     1     -12.963   7.207  71.340  1.00  0.00    -0.419 A  
HETATM   28  F   UNL     1     -14.394   8.643  72.532  1.00  0.00    -0.478 F  
ENDBRANCH  16  19
ENDBRANCH  12  13
ENDBRANCH  11  12
ENDBRANCH  10  11
ENDBRANCH   9  10
ENDBRANCH   4   9
BRANCH   6  29
HETATM   29  C   UNL     1      -9.531  18.642  66.481  1.00  0.00    -0.322 C  
HETATM   30  O   UNL     1      -8.555  19.208  65.993  1.00  0.00    -0.446 OA 
HETATM   31  C   UNL     1     -10.558  19.413  67.272  1.00  0.00    -0.599 C  
ENDBRANCH   6  29
ENDBRANCH   2   3
TORSDOF 8
ENDMDL
MODEL      103
REMARK 921   NORMALIZED FREE ENERGY PREDICTED BY IDOCK:   -5.78 KCAL/MOL
REMARK 922        TOTAL FREE ENERGY PREDICTED BY IDOCK:   -9.28 KCAL/MOL
REMARK 923 INTER-LIGAND FREE ENERGY PREDICTED BY IDOCK:   -8.30 KCAL/MOL
REMARK 924 INTRA-LIGAND FREE ENERGY PREDICTED BY IDOCK:   -0.99 KCAL/MOL
REMARK 927      BINDING AFFINITY PREDICTED BY RF-SCORE:    0.00 PKD
ROOT
HETATM    1  C   UNL     1      -7.577   4.949  66.824  1.00  0.00    -0.088 C  
HETATM    2  O   UNL     1      -8.207   6.011  66.122  1.00  0.00    -0.113 OA 
ENDROOT
BRANCH   2   3
HETATM    3  C   UNL     1      -8.946   6.903  66.858  1.00  0.00    -0.122 A  
HETATM    4  C   UNL     1      -9.211   8.139  66.240  1.00  0.00    -0.191 A  
HETATM    5  C   UNL     1      -9.955   9.106  66.919  1.00  0.00    -0.304 A  
HETATM    6  C   UNL     1     -10.197   7.623  68.815  1.00  0.00    -0.210 A  
HETATM    7  C   UNL     1      -9.454   6.648  68.137  1.00  0.00    -0.115 A  
HETATM    8  C   UNL     1     -10.457   8.845  68.197  1.00  0.00    -0.254 A  
BRANCH   4   9
HETATM    9  O   UNL     1      -8.670   8.336  64.995  1.00  0.00    -0.128 OA 
BRANCH   9  10
HETATM   10  C   UNL     1      -8.439   9.680  64.573  1.00  0.00    -0.178 C  
BRANCH  10  11
HETATM   11  C   UNL     1      -9.379  10.103  63.438  1.00  0.00    -0.334 C  
BRANCH  11  12
HETATM   12  C   UNL     1      -9.319  11.601  63.083  1.00  0.00    -0.173 C  
BRANCH  12  13
HETATM   13  N   UNL     1     -10.451  12.345  63.645  1.00  0.00    -0.437 NA 
HETATM   14  C   UNL     1     -10.045  13.555  64.369  1.00  0.00    -0.018 C  
HETATM   15  C   UNL     1     -11.281  14.396  64.745  1.00  0.00    -0.391 C  
HETATM   16  C   UNL     1     -12.387  13.584  65.449  1.00  0.00    -0.517 C  
HETATM   17  C   UNL     1     -12.630  12.297  64.642  1.00  0.00    -0.376 C  
HETATM   18  C   UNL     1     -11.333  11.519  64.465  1.00  0.00    -0.179 C  
BRANCH  16  19
HETATM   19  C   UNL     1     -12.096  13.275  66.895  1.00  0.00    -0.332 A  
HETATM   20  N   UNL     1     -12.174  12.021  67.362  1.00  0.00    -0.379 NA 
HETATM   21  O   UNL     1     -12.030  12.113  68.732  1.00  0.00    -0.306 OA 
HETATM   22  C   UNL     1     -11.847  13.415  69.082  1.00  0.00    -0.336 A  
HETATM   23  C   UNL     1     -11.804  14.194  67.947  1.00  0.00    -0.405 A  
HETATM   24  C   UNL     1     -11.578  15.576  68.087  1.00  0.00    -0.313 A  
HETATM   25  C   UNL     1     -11.471  16.101  69.384  1.00  0.00    -0.296 A  
HETATM   26  C   UNL     1     -11.565  15.268  70.498  1.00  0.00    -0.306 A  
HETATM   27  C   UNL     1     -11.730  13.891  70.383  1.00  0.00    -0.269 A  
HETATM   28  F   UNL     1     -11.499  15.813  71.719  1.00  0.00    -0.391 F  
ENDBRANCH  16  19
ENDBRANCH  12  13
ENDBRANCH  11  12
ENDBRANCH  10  11
ENDBRANCH   9  10
ENDBRANCH   4   9
BRANCH   6  29
HETATM   29  C   UNL     1     -10.686   7.308  70.186  1.00  0.00    -0.244 C  
HETATM   30  O   UNL     1     -11.178   8.203  70.871  1.00  0.00    -0.258 OA 
HETATM   31  C   UNL     1     -10.632   5.887  70.691  1.00  0.00    -0.334 C  
ENDBRANCH   6  29
ENDBRANCH   2   3
TORSDOF 8
ENDMDL
MODEL      104
REMARK 921   NORMALIZED FREE ENERGY PREDICTED BY IDOCK:   -5.78 KCAL/MOL
REMARK 922        TOTAL FREE ENERGY PREDICTED BY IDOCK:   -9.28 KCAL/MOL
REMARK 923 INTER-LIGAND FREE ENERGY PREDICTED BY IDOCK:   -8.09 KCAL/MOL
REMARK 924 INTRA-LIGAND FREE ENERGY PREDICTED BY IDOCK:   -1.19 KCAL/MOL
REMARK 927      BINDING AFFINITY PREDICTED BY RF-SCORE:    0.00 PKD
ROOT
HETATM    1  C   UNL     1      -7.575   9.244  70.652  1.00  0.00    -0.147 C  
HETATM    2  O   UNL     1      -8.971   9.214  70.912  1.00  0.00    -0.219 OA 
ENDROOT
BRANCH   2   3
HETATM    3  C   UNL     1      -9.677   8.136  70.441  1.00  0.00    -0.178 A  
HETATM    4  C   UNL     1     -10.868   7.834  71.128  1.00  0.00    -0.235 A  
HETATM    5  C   UNL     1     -11.648   6.751  70.715  1.00  0.00    -0.418 A  
HETATM    6  C   UNL     1     -10.086   6.275  68.929  1.00  0.00    -0.200 A  
HETATM    7  C   UNL     1      -9.302   7.362  69.337  1.00  0.00    -0.155 A  
HETATM    8  C   UNL     1     -11.266   5.982  69.613  1.00  0.00    -0.428 A  
BRANCH   4   9
HETATM    9  O   UNL     1     -11.171   8.616  72.212  1.00  0.00    -0.353 OA 
BRANCH   9  10
HETATM   10  C   UNL     1     -12.344   9.427  72.144  1.00  0.00    -0.298 C  
BRANCH  10  11
HETATM   11  C   UNL     1     -12.347  10.343  70.914  1.00  0.00    -0.480 C  
BRANCH  11  12
HETATM   12  C   UNL     1     -12.737  11.804  71.206  1.00  0.00    -0.316 C  
BRANCH  12  13
HETATM   13  N   UNL     1     -11.935  12.753  70.427  1.00  0.00    -0.307 NA 
HETATM   14  C   UNL     1     -12.732  13.835  69.837  1.00  0.00     0.061 C  
HETATM   15  C   UNL     1     -11.811  14.905  69.218  1.00  0.00    -0.350 C  
HETATM   16  C   UNL     1     -10.741  14.323  68.271  1.00  0.00    -0.253 C  
HETATM   17  C   UNL     1     -10.066  13.135  68.977  1.00  0.00     0.145 C  
HETATM   18  C   UNL     1     -11.101  12.109  69.416  1.00  0.00    -0.117 C  
BRANCH  16  19
HETATM   19  C   UNL     1     -11.270  13.926  66.918  1.00  0.00    -0.312 A  
HETATM   20  N   UNL     1     -12.479  14.332  66.503  1.00  0.00    -0.343 NA 
HETATM   21  O   UNL     1     -12.727  13.656  65.326  1.00  0.00    -0.583 OA 
HETATM   22  C   UNL     1     -11.664  12.862  65.026  1.00  0.00    -0.344 A  
HETATM   23  C   UNL     1     -10.672  13.048  65.965  1.00  0.00    -0.290 A  
HETATM   24  C   UNL     1      -9.463  12.346  65.814  1.00  0.00    -0.094 A  
HETATM   25  C   UNL     1      -9.350  11.443  64.746  1.00  0.00    -0.118 A  
HETATM   26  C   UNL     1     -10.404  11.265  63.851  1.00  0.00    -0.381 A  
HETATM   27  C   UNL     1     -11.588  11.989  63.946  1.00  0.00    -0.536 A  
HETATM   28  F   UNL     1     -10.272  10.362  62.870  1.00  0.00    -0.279 F  
ENDBRANCH  16  19
ENDBRANCH  12  13
ENDBRANCH  11  12
ENDBRANCH  10  11
ENDBRANCH   9  10
ENDBRANCH   4   9
BRANCH   6  29
HETATM   29  C   UNL     1      -9.623   5.469  67.767  1.00  0.00    -0.123 C  
HETATM   30  O   UNL     1      -8.627   4.757  67.886  1.00  0.00    -0.103 OA 
HETATM   31  C   UNL     1     -10.413   5.485  66.482  1.00  0.00    -0.331 C  
ENDBRANCH   6  29
ENDBRANCH   2   3
TORSDOF 8
ENDMDL
MODEL      105
REMARK 921   NORMALIZED FREE ENERGY PREDICTED BY IDOCK:   -5.75 KCAL/MOL
REMARK 922        TOTAL FREE ENERGY PREDICTED BY IDOCK:   -9.23 KCAL/MOL
REMARK 923 INTER-LIGAND FREE ENERGY PREDICTED BY IDOCK:   -8.09 KCAL/MOL
REMARK 924 INTRA-LIGAND FREE ENERGY PREDICTED BY IDOCK:   -1.14 KCAL/MOL
REMARK 927      BINDING AFFINITY PREDICTED BY RF-SCORE:    0.00 PKD
ROOT
HETATM    1  C   UNL     1     -10.703  10.085  68.080  1.00  0.00    -0.256 C  
HETATM    2  O   UNL     1     -10.276   9.550  66.836  1.00  0.00    -0.225 OA 
ENDROOT
BRANCH   2   3
HETATM    3  C   UNL     1     -10.404  10.350  65.728  1.00  0.00    -0.187 A  
HETATM    4  C   UNL     1      -9.649   9.967  64.603  1.00  0.00    -0.297 A  
HETATM    5  C   UNL     1      -9.718  10.727  63.433  1.00  0.00    -0.394 A  
HETATM    6  C   UNL     1     -11.298  12.233  64.476  1.00  0.00    -0.385 A  
HETATM    7  C   UNL     1     -11.235  11.473  65.652  1.00  0.00    -0.212 A  
HETATM    8  C   UNL     1     -10.549  11.848  63.365  1.00  0.00    -0.485 A  
BRANCH   4   9
HETATM    9  O   UNL     1      -8.839   8.870  64.747  1.00  0.00    -0.173 OA 
BRANCH   9  10
HETATM   10  C   UNL     1      -7.922   8.574  63.693  1.00  0.00    -0.161 C  
BRANCH  10  11
HETATM   11  C   UNL     1      -7.608   7.077  63.597  1.00  0.00    -0.105 C  
BRANCH  11  12
HETATM   12  C   UNL     1      -6.478   6.600  64.529  1.00  0.00    -0.041 C  
BRANCH  12  13
HETATM   13  N   UNL     1      -6.951   5.611  65.504  1.00  0.00    -0.063 NA 
HETATM   14  C   UNL     1      -8.208   4.965  65.108  1.00  0.00    -0.124 C  
HETATM   15  C   UNL     1      -8.533   3.796  66.059  1.00  0.00    -0.110 C  
HETATM   16  C   UNL     1      -8.465   4.179  67.551  1.00  0.00    -0.102 C  
HETATM   17  C   UNL     1      -7.151   4.940  67.796  1.00  0.00    -0.062 C  
HETATM   18  C   UNL     1      -7.041   6.138  66.862  1.00  0.00    -0.073 C  
BRANCH  16  19
HETATM   19  C   UNL     1      -9.652   4.969  68.037  1.00  0.00    -0.141 A  
HETATM   20  N   UNL     1     -10.432   5.643  67.178  1.00  0.00    -0.248 NA 
HETATM   21  O   UNL     1     -11.297   6.389  67.951  1.00  0.00    -0.263 OA 
HETATM   22  C   UNL     1     -11.051   6.150  69.268  1.00  0.00    -0.393 A  
HETATM   23  C   UNL     1     -10.064   5.196  69.385  1.00  0.00    -0.305 A  
HETATM   24  C   UNL     1      -9.687   4.772  70.672  1.00  0.00    -0.271 A  
HETATM   25  C   UNL     1     -10.294   5.389  71.776  1.00  0.00    -0.271 A  
HETATM   26  C   UNL     1     -11.258   6.380  71.596  1.00  0.00    -0.278 A  
HETATM   27  C   UNL     1     -11.688   6.776  70.334  1.00  0.00    -0.418 A  
HETATM   28  F   UNL     1     -11.782   6.974  72.676  1.00  0.00    -0.279 F  
ENDBRANCH  16  19
ENDBRANCH  12  13
ENDBRANCH  11  12
ENDBRANCH  10  11
ENDBRANCH   9  10
ENDBRANCH   4   9
BRANCH   6  29
HETATM   29  C   UNL     1     -12.176  13.436  64.463  1.00  0.00    -0.398 C  
HETATM   30  O   UNL     1     -12.541  13.904  63.386  1.00  0.00    -0.853 OA 
HETATM   31  C   UNL     1     -12.658  14.025  65.765  1.00  0.00    -0.512 C  
ENDBRANCH   6  29
ENDBRANCH   2   3
TORSDOF 8
ENDMDL
MODEL      106
REMARK 921   NORMALIZED FREE ENERGY PREDICTED BY IDOCK:   -5.74 KCAL/MOL
REMARK 922        TOTAL FREE ENERGY PREDICTED BY IDOCK:   -9.22 KCAL/MOL
REMARK 923 INTER-LIGAND FREE ENERGY PREDICTED BY IDOCK:   -8.28 KCAL/MOL
REMARK 924 INTRA-LIGAND FREE ENERGY PREDICTED BY IDOCK:   -0.94 KCAL/MOL
REMARK 927      BINDING AFFINITY PREDICTED BY RF-SCORE:    0.00 PKD
ROOT
HETATM    1  C   UNL     1      -7.661  14.347  67.688  1.00  0.00    -0.184 C  
HETATM    2  O   UNL     1      -8.948  14.679  67.187  1.00  0.00    -0.202 OA 
ENDROOT
BRANCH   2   3
HETATM    3  C   UNL     1      -9.212  16.005  66.953  1.00  0.00    -0.224 A  
HETATM    4  C   UNL     1     -10.402  16.281  66.255  1.00  0.00    -0.326 A  
HETATM    5  C   UNL     1     -10.747  17.604  65.973  1.00  0.00    -0.117 A  
HETATM    6  C   UNL     1      -8.748  18.388  67.088  1.00  0.00    -0.260 A  
HETATM    7  C   UNL     1      -8.400  17.062  67.377  1.00  0.00    -0.206 A  
HETATM    8  C   UNL     1      -9.930  18.655  66.398  1.00  0.00    -0.415 A  
BRANCH   4   9
HETATM    9  O   UNL     1     -11.145  15.202  65.850  1.00  0.00    -0.339 OA 
BRANCH   9  10
HETATM   10  C   UNL     1     -11.317  14.999  64.447  1.00  0.00    -0.198 C  
BRANCH  10  11
HETATM   11  C   UNL     1     -11.773  13.573  64.116  1.00  0.00    -0.453 C  
BRANCH  11  12
HETATM   12  C   UNL     1     -12.192  12.736  65.338  1.00  0.00    -0.478 C  
BRANCH  12  13
HETATM   13  N   UNL     1     -11.033  12.211  66.068  1.00  0.00    -0.281 NA 
HETATM   14  C   UNL     1     -10.235  11.264  65.279  1.00  0.00    -0.274 C  
HETATM   15  C   UNL     1      -8.927  10.919  66.018  1.00  0.00    -0.200 C  
HETATM   16  C   UNL     1      -9.144  10.490  67.485  1.00  0.00    -0.144 C  
HETATM   17  C   UNL     1     -10.081  11.510  68.153  1.00  0.00    -0.201 C  
HETATM   18  C   UNL     1     -11.379  11.643  67.368  1.00  0.00    -0.300 C  
BRANCH  16  19
HETATM   19  C   UNL     1      -9.663   9.085  67.643  1.00  0.00    -0.156 A  
HETATM   20  N   UNL     1      -9.954   8.331  66.573  1.00  0.00    -0.266 NA 
HETATM   21  O   UNL     1     -10.565   7.194  67.060  1.00  0.00    -0.297 OA 
HETATM   22  C   UNL     1     -10.623   7.256  68.418  1.00  0.00    -0.170 A  
HETATM   23  C   UNL     1      -9.995   8.403  68.852  1.00  0.00    -0.194 A  
HETATM   24  C   UNL     1      -9.907   8.639  70.236  1.00  0.00    -0.195 A  
HETATM   25  C   UNL     1     -10.519   7.722  71.104  1.00  0.00    -0.227 A  
HETATM   26  C   UNL     1     -11.176   6.599  70.604  1.00  0.00    -0.317 A  
HETATM   27  C   UNL     1     -11.227   6.314  69.243  1.00  0.00    -0.458 A  
HETATM   28  F   UNL     1     -11.783   5.770  71.463  1.00  0.00    -0.293 F  
ENDBRANCH  16  19
ENDBRANCH  12  13
ENDBRANCH  11  12
ENDBRANCH  10  11
ENDBRANCH   9  10
ENDBRANCH   4   9
BRANCH   6  29
HETATM   29  C   UNL     1      -7.831  19.471  67.537  1.00  0.00    -0.264 C  
HETATM   30  O   UNL     1      -7.641  19.641  68.741  1.00  0.00    -0.342 OA 
HETATM   31  C   UNL     1      -7.097  20.302  66.514  1.00  0.00    -0.297 C  
ENDBRANCH   6  29
ENDBRANCH   2   3
TORSDOF 8
ENDMDL
MODEL      107
REMARK 921   NORMALIZED FREE ENERGY PREDICTED BY IDOCK:   -5.72 KCAL/MOL
REMARK 922        TOTAL FREE ENERGY PREDICTED BY IDOCK:   -9.20 KCAL/MOL
REMARK 923 INTER-LIGAND FREE ENERGY PREDICTED BY IDOCK:   -8.46 KCAL/MOL
REMARK 924 INTRA-LIGAND FREE ENERGY PREDICTED BY IDOCK:   -0.74 KCAL/MOL
REMARK 927      BINDING AFFINITY PREDICTED BY RF-SCORE:    0.00 PKD
ROOT
HETATM    1  C   UNL     1     -10.629  11.499  64.922  1.00  0.00    -0.303 C  
HETATM    2  O   UNL     1     -11.155  11.600  66.237  1.00  0.00    -0.299 OA 
ENDROOT
BRANCH   2   3
HETATM    3  C   UNL     1     -11.209  12.849  66.802  1.00  0.00    -0.298 A  
HETATM    4  C   UNL     1     -11.745  12.914  68.101  1.00  0.00    -0.352 A  
HETATM    5  C   UNL     1     -11.838  14.147  68.750  1.00  0.00    -0.384 A  
HETATM    6  C   UNL     1     -10.850  15.254  66.839  1.00  0.00    -0.317 A  
HETATM    7  C   UNL     1     -10.751  14.019  66.185  1.00  0.00    -0.289 A  
HETATM    8  C   UNL     1     -11.381  15.312  68.127  1.00  0.00    -0.346 A  
BRANCH   4   9
HETATM    9  O   UNL     1     -12.193  11.737  68.644  1.00  0.00    -0.405 OA 
BRANCH   9  10
HETATM   10  C   UNL     1     -12.064  11.560  70.055  1.00  0.00    -0.331 C  
BRANCH  10  11
HETATM   11  C   UNL     1     -12.963  10.438  70.586  1.00  0.00    -0.357 C  
BRANCH  11  12
HETATM   12  C   UNL     1     -12.695  10.044  72.051  1.00  0.00    -0.347 C  
BRANCH  12  13
HETATM   13  N   UNL     1     -12.109   8.704  72.160  1.00  0.00    -0.366 NA 
HETATM   14  C   UNL     1     -10.644   8.706  72.070  1.00  0.00    -0.351 C  
HETATM   15  C   UNL     1     -10.083   7.309  72.405  1.00  0.00    -0.218 C  
HETATM   16  C   UNL     1     -10.761   6.169  71.618  1.00  0.00    -0.294 C  
HETATM   17  C   UNL     1     -12.285   6.357  71.710  1.00  0.00    -0.312 C  
HETATM   18  C   UNL     1     -12.687   7.743  71.226  1.00  0.00    -0.250 C  
BRANCH  16  19
HETATM   19  C   UNL     1     -10.310   6.060  70.185  1.00  0.00    -0.224 A  
HETATM   20  N   UNL     1     -11.197   6.078  69.178  1.00  0.00    -0.350 NA 
HETATM   21  O   UNL     1     -10.483   5.780  68.035  1.00  0.00    -0.200 OA 
HETATM   22  C   UNL     1      -9.172   5.604  68.351  1.00  0.00    -0.118 A  
HETATM   23  C   UNL     1      -8.987   5.844  69.695  1.00  0.00    -0.133 A  
HETATM   24  C   UNL     1      -7.685   5.756  70.221  1.00  0.00    -0.095 A  
HETATM   25  C   UNL     1      -6.648   5.366  69.360  1.00  0.00    -0.047 A  
HETATM   26  C   UNL     1      -6.904   5.095  68.017  1.00  0.00    -0.060 A  
HETATM   27  C   UNL     1      -8.171   5.230  67.460  1.00  0.00    -0.100 A  
HETATM   28  F   UNL     1      -5.894   4.685  67.238  1.00  0.00    -0.019 F  
ENDBRANCH  16  19
ENDBRANCH  12  13
ENDBRANCH  11  12
ENDBRANCH  10  11
ENDBRANCH   9  10
ENDBRANCH   4   9
BRANCH   6  29
HETATM   29  C   UNL     1     -10.376  16.470  66.122  1.00  0.00    -0.334 C  
HETATM   30  O   UNL     1     -10.506  16.540  64.901  1.00  0.00    -0.653 OA 
HETATM   31  C   UNL     1      -9.802  17.624  66.906  1.00  0.00    -0.306 C  
ENDBRANCH   6  29
ENDBRANCH   2   3
TORSDOF 8
ENDMDL
MODEL      108
REMARK 921   NORMALIZED FREE ENERGY PREDICTED BY IDOCK:   -5.72 KCAL/MOL
REMARK 922        TOTAL FREE ENERGY PREDICTED BY IDOCK:   -9.19 KCAL/MOL
REMARK 923 INTER-LIGAND FREE ENERGY PREDICTED BY IDOCK:   -8.29 KCAL/MOL
REMARK 924 INTRA-LIGAND FREE ENERGY PREDICTED BY IDOCK:   -0.90 KCAL/MOL
REMARK 927      BINDING AFFINITY PREDICTED BY RF-SCORE:    0.00 PKD
ROOT
HETATM    1  C   UNL     1     -11.193  11.488  65.793  1.00  0.00    -0.164 C  
HETATM    2  O   UNL     1     -11.722  11.451  67.111  1.00  0.00    -0.556 OA 
ENDROOT
BRANCH   2   3
HETATM    3  C   UNL     1     -11.644  12.602  67.855  1.00  0.00    -0.349 A  
HETATM    4  C   UNL     1     -11.989  12.480  69.213  1.00  0.00    -0.250 A  
HETATM    5  C   UNL     1     -11.939  13.603  70.043  1.00  0.00    -0.413 A  
HETATM    6  C   UNL     1     -11.183  14.966  68.192  1.00  0.00    -0.310 A  
HETATM    7  C   UNL     1     -11.229  13.842  67.356  1.00  0.00    -0.330 A  
HETATM    8  C   UNL     1     -11.525  14.838  69.538  1.00  0.00    -0.331 A  
BRANCH   4   9
HETATM    9  O   UNL     1     -12.406  11.245  69.636  1.00  0.00    -0.276 OA 
BRANCH   9  10
HETATM   10  C   UNL     1     -12.720  11.084  71.020  1.00  0.00    -0.386 C  
BRANCH  10  11
HETATM   11  C   UNL     1     -13.385   9.733  71.313  1.00  0.00    -0.413 C  
BRANCH  11  12
HETATM   12  C   UNL     1     -12.824   8.999  72.545  1.00  0.00    -0.338 C  
BRANCH  12  13
HETATM   13  N   UNL     1     -11.749   8.067  72.188  1.00  0.00    -0.322 NA 
HETATM   14  C   UNL     1     -10.436   8.715  72.082  1.00  0.00    -0.340 C  
HETATM   15  C   UNL     1      -9.327   7.655  71.918  1.00  0.00    -0.181 C  
HETATM   16  C   UNL     1      -9.616   6.631  70.801  1.00  0.00    -0.183 C  
HETATM   17  C   UNL     1     -11.056   6.121  70.974  1.00  0.00    -0.359 C  
HETATM   18  C   UNL     1     -12.041   7.283  70.992  1.00  0.00    -0.324 C  
BRANCH  16  19
HETATM   19  C   UNL     1      -9.386   7.159  69.409  1.00  0.00    -0.147 A  
HETATM   20  N   UNL     1      -9.296   6.326  68.361  1.00  0.00    -0.114 NA 
HETATM   21  O   UNL     1      -8.909   7.103  67.288  1.00  0.00    -0.119 OA 
HETATM   22  C   UNL     1      -8.786   8.398  67.686  1.00  0.00    -0.136 A  
HETATM   23  C   UNL     1      -9.151   8.509  69.010  1.00  0.00    -0.146 A  
HETATM   24  C   UNL     1      -9.135   9.782  69.608  1.00  0.00    -0.235 A  
HETATM   25  C   UNL     1      -8.688  10.868  68.841  1.00  0.00    -0.144 A  
HETATM   26  C   UNL     1      -8.291  10.688  67.517  1.00  0.00    -0.115 A  
HETATM   27  C   UNL     1      -8.352   9.450  66.886  1.00  0.00    -0.127 A  
HETATM   28  F   UNL     1      -7.831  11.743  66.832  1.00  0.00    -0.146 F  
ENDBRANCH  16  19
ENDBRANCH  12  13
ENDBRANCH  11  12
ENDBRANCH  10  11
ENDBRANCH   9  10
ENDBRANCH   4   9
BRANCH   6  29
HETATM   29  C   UNL     1     -10.763  16.266  67.600  1.00  0.00    -0.311 C  
HETATM   30  O   UNL     1     -10.738  17.271  68.308  1.00  0.00    -0.373 OA 
HETATM   31  C   UNL     1     -10.314  16.322  66.161  1.00  0.00    -0.352 C  
ENDBRANCH   6  29
ENDBRANCH   2   3
TORSDOF 8
ENDMDL
MODEL      109
REMARK 921   NORMALIZED FREE ENERGY PREDICTED BY IDOCK:   -5.72 KCAL/MOL
REMARK 922        TOTAL FREE ENERGY PREDICTED BY IDOCK:   -9.19 KCAL/MOL
REMARK 923 INTER-LIGAND FREE ENERGY PREDICTED BY IDOCK:   -7.22 KCAL/MOL
REMARK 924 INTRA-LIGAND FREE ENERGY PREDICTED BY IDOCK:   -1.97 KCAL/MOL
REMARK 927      BINDING AFFINITY PREDICTED BY RF-SCORE:    0.00 PKD
ROOT
HETATM    1  C   UNL     1     -13.588  15.580  72.941  1.00  0.00    -0.544 C  
HETATM    2  O   UNL     1     -13.298  14.241  72.566  1.00  0.00    -0.426 OA 
ENDROOT
BRANCH   2   3
HETATM    3  C   UNL     1     -12.584  14.051  71.409  1.00  0.00    -0.372 A  
HETATM    4  C   UNL     1     -12.654  12.761  70.850  1.00  0.00    -0.255 A  
HETATM    5  C   UNL     1     -11.956  12.479  69.673  1.00  0.00    -0.339 A  
HETATM    6  C   UNL     1     -11.135  14.754  69.588  1.00  0.00    -0.299 A  
HETATM    7  C   UNL     1     -11.836  15.043  70.766  1.00  0.00    -0.372 A  
HETATM    8  C   UNL     1     -11.209  13.475  69.037  1.00  0.00    -0.314 A  
BRANCH   4   9
HETATM    9  O   UNL     1     -13.387  11.828  71.537  1.00  0.00    -0.268 OA 
BRANCH   9  10
HETATM   10  C   UNL     1     -12.695  10.702  72.078  1.00  0.00    -0.185 C  
BRANCH  10  11
HETATM   11  C   UNL     1     -13.011   9.407  71.321  1.00  0.00    -0.373 C  
BRANCH  11  12
HETATM   12  C   UNL     1     -12.134   8.204  71.718  1.00  0.00    -0.315 C  
BRANCH  12  13
HETATM   13  N   UNL     1     -11.108   7.915  70.711  1.00  0.00    -0.253 NA 
HETATM   14  C   UNL     1      -9.757   7.812  71.277  1.00  0.00    -0.157 C  
HETATM   15  C   UNL     1      -8.768   7.299  70.211  1.00  0.00    -0.147 C  
HETATM   16  C   UNL     1      -8.836   8.078  68.882  1.00  0.00    -0.141 C  
HETATM   17  C   UNL     1     -10.312   8.202  68.469  1.00  0.00    -0.230 C  
HETATM   18  C   UNL     1     -11.131   8.841  69.583  1.00  0.00    -0.028 C  
BRANCH  16  19
HETATM   19  C   UNL     1      -8.166   9.427  68.925  1.00  0.00    -0.111 A  
HETATM   20  N   UNL     1      -7.329   9.750  69.922  1.00  0.00    -0.115 NA 
HETATM   21  O   UNL     1      -7.042  11.090  69.761  1.00  0.00    -0.129 OA 
HETATM   22  C   UNL     1      -7.688  11.565  68.662  1.00  0.00    -0.139 A  
HETATM   23  C   UNL     1      -8.361  10.533  68.044  1.00  0.00    -0.116 A  
HETATM   24  C   UNL     1      -9.065  10.804  66.857  1.00  0.00    -0.160 A  
HETATM   25  C   UNL     1      -9.097  12.129  66.395  1.00  0.00    -0.177 A  
HETATM   26  C   UNL     1      -8.431  13.139  67.086  1.00  0.00    -0.169 A  
HETATM   27  C   UNL     1      -7.681  12.886  68.230  1.00  0.00    -0.137 A  
HETATM   28  F   UNL     1      -8.522  14.398  66.635  1.00  0.00    -0.219 F  
ENDBRANCH  16  19
ENDBRANCH  12  13
ENDBRANCH  11  12
ENDBRANCH  10  11
ENDBRANCH   9  10
ENDBRANCH   4   9
BRANCH   6  29
HETATM   29  C   UNL     1     -10.331  15.840  68.963  1.00  0.00    -0.223 C  
HETATM   30  O   UNL     1      -9.151  15.976  69.281  1.00  0.00    -0.246 OA 
HETATM   31  C   UNL     1     -10.953  16.717  67.905  1.00  0.00    -0.260 C  
ENDBRANCH   6  29
ENDBRANCH   2   3
TORSDOF 8
ENDMDL
MODEL      110
REMARK 921   NORMALIZED FREE ENERGY PREDICTED BY IDOCK:   -5.72 KCAL/MOL
REMARK 922        TOTAL FREE ENERGY PREDICTED BY IDOCK:   -9.18 KCAL/MOL
REMARK 923 INTER-LIGAND FREE ENERGY PREDICTED BY IDOCK:   -8.84 KCAL/MOL
REMARK 924 INTRA-LIGAND FREE ENERGY PREDICTED BY IDOCK:   -0.34 KCAL/MOL
REMARK 927      BINDING AFFINITY PREDICTED BY RF-SCORE:    0.00 PKD
ROOT
HETATM    1  C   UNL     1     -10.379   7.591  73.351  1.00  0.00    -0.350 C  
HETATM    2  O   UNL     1     -11.082   7.592  72.117  1.00  0.00    -0.239 OA 
ENDROOT
BRANCH   2   3
HETATM    3  C   UNL     1     -10.433   7.083  71.021  1.00  0.00    -0.212 A  
HETATM    4  C   UNL     1      -9.949   8.029  70.098  1.00  0.00    -0.191 A  
HETATM    5  C   UNL     1      -9.278   7.596  68.952  1.00  0.00    -0.139 A  
HETATM    6  C   UNL     1      -9.543   5.291  69.639  1.00  0.00    -0.225 A  
HETATM    7  C   UNL     1     -10.214   5.720  70.791  1.00  0.00    -0.279 A  
HETATM    8  C   UNL     1      -9.064   6.233  68.729  1.00  0.00    -0.127 A  
BRANCH   4   9
HETATM    9  O   UNL     1     -10.213   9.347  70.369  1.00  0.00    -0.217 OA 
BRANCH   9  10
HETATM   10  C   UNL     1     -11.157  10.023  69.538  1.00  0.00    -0.238 C  
BRANCH  10  11
HETATM   11  C   UNL     1     -10.492  11.058  68.624  1.00  0.00    -0.214 C  
BRANCH  11  12
HETATM   12  C   UNL     1     -10.775  10.861  67.123  1.00  0.00    -0.270 C  
BRANCH  12  13
HETATM   13  N   UNL     1     -11.074  12.129  66.449  1.00  0.00    -0.299 NA 
HETATM   14  C   UNL     1      -9.875  12.821  65.962  1.00  0.00    -0.255 C  
HETATM   15  C   UNL     1     -10.269  14.025  65.084  1.00  0.00    -0.396 C  
HETATM   16  C   UNL     1     -11.307  14.955  65.745  1.00  0.00    -0.314 C  
HETATM   17  C   UNL     1     -12.448  14.087  66.303  1.00  0.00    -0.439 C  
HETATM   18  C   UNL     1     -11.904  13.025  67.249  1.00  0.00    -0.363 C  
BRANCH  16  19
HETATM   19  C   UNL     1     -10.736  15.855  66.809  1.00  0.00    -0.281 A  
HETATM   20  N   UNL     1     -10.443  15.382  68.030  1.00  0.00    -0.252 NA 
HETATM   21  O   UNL     1     -10.119  16.481  68.799  1.00  0.00    -0.228 OA 
HETATM   22  C   UNL     1     -10.199  17.607  68.038  1.00  0.00    -0.362 A  
HETATM   23  C   UNL     1     -10.514  17.263  66.742  1.00  0.00    -0.261 A  
HETATM   24  C   UNL     1     -10.603  18.284  65.779  1.00  0.00    -0.205 A  
HETATM   25  C   UNL     1     -10.427  19.611  66.201  1.00  0.00    -0.624 A  
HETATM   26  C   UNL     1     -10.152  19.900  67.536  1.00  0.00    -0.429 A  
HETATM   27  C   UNL     1     -10.002  18.905  68.496  1.00  0.00    -0.463 A  
HETATM   28  F   UNL     1     -10.033  21.182  67.908  1.00  0.00    -0.418 F  
ENDBRANCH  16  19
ENDBRANCH  12  13
ENDBRANCH  11  12
ENDBRANCH  10  11
ENDBRANCH   9  10
ENDBRANCH   4   9
BRANCH   6  29
HETATM   29  C   UNL     1      -9.365   3.828  69.431  1.00  0.00    -0.175 C  
HETATM   30  O   UNL     1      -9.390   3.073  70.402  1.00  0.00    -0.133 OA 
HETATM   31  C   UNL     1      -9.220   3.283  68.032  1.00  0.00    -0.243 C  
ENDBRANCH   6  29
ENDBRANCH   2   3
TORSDOF 8
ENDMDL
MODEL      111
REMARK 921   NORMALIZED FREE ENERGY PREDICTED BY IDOCK:   -5.72 KCAL/MOL
REMARK 922        TOTAL FREE ENERGY PREDICTED BY IDOCK:   -9.18 KCAL/MOL
REMARK 923 INTER-LIGAND FREE ENERGY PREDICTED BY IDOCK:   -7.60 KCAL/MOL
REMARK 924 INTRA-LIGAND FREE ENERGY PREDICTED BY IDOCK:   -1.58 KCAL/MOL
REMARK 927      BINDING AFFINITY PREDICTED BY RF-SCORE:    0.00 PKD
ROOT
HETATM    1  C   UNL     1      -9.986   4.781  69.244  1.00  0.00    -0.184 C  
HETATM    2  O   UNL     1      -9.612   5.061  70.585  1.00  0.00    -0.161 OA 
ENDROOT
BRANCH   2   3
HETATM    3  C   UNL     1     -10.177   6.160  71.182  1.00  0.00    -0.198 A  
HETATM    4  C   UNL     1      -9.285   7.032  71.832  1.00  0.00    -0.140 A  
HETATM    5  C   UNL     1      -9.775   8.175  72.468  1.00  0.00    -0.357 A  
HETATM    6  C   UNL     1     -12.030   7.608  71.799  1.00  0.00    -0.333 A  
HETATM    7  C   UNL     1     -11.543   6.462  71.158  1.00  0.00    -0.378 A  
HETATM    8  C   UNL     1     -11.141   8.469  72.441  1.00  0.00    -0.397 A  
BRANCH   4   9
HETATM    9  O   UNL     1      -7.962   6.672  71.838  1.00  0.00    -0.101 OA 
BRANCH   9  10
HETATM   10  C   UNL     1      -6.989   7.698  71.640  1.00  0.00    -0.061 C  
BRANCH  10  11
HETATM   11  C   UNL     1      -7.266   8.528  70.381  1.00  0.00    -0.039 C  
BRANCH  11  12
HETATM   12  C   UNL     1      -7.111   7.754  69.058  1.00  0.00    -0.074 C  
BRANCH  12  13
HETATM   13  N   UNL     1      -8.224   8.010  68.138  1.00  0.00    -0.125 NA 
HETATM   14  C   UNL     1      -7.872   8.929  67.049  1.00  0.00    -0.102 C  
HETATM   15  C   UNL     1      -9.007   8.987  66.007  1.00  0.00    -0.227 C  
HETATM   16  C   UNL     1     -10.397   9.246  66.625  1.00  0.00    -0.292 C  
HETATM   17  C   UNL     1     -10.582   8.291  67.816  1.00  0.00    -0.236 C  
HETATM   18  C   UNL     1      -9.442   8.446  68.813  1.00  0.00    -0.147 C  
BRANCH  16  19
HETATM   19  C   UNL     1     -10.630  10.678  67.031  1.00  0.00    -0.262 A  
HETATM   20  N   UNL     1     -10.128  11.691  66.310  1.00  0.00    -0.215 NA 
HETATM   21  O   UNL     1     -10.365  12.836  67.042  1.00  0.00    -0.232 OA 
HETATM   22  C   UNL     1     -11.024  12.514  68.188  1.00  0.00    -0.228 A  
HETATM   23  C   UNL     1     -11.288  11.162  68.202  1.00  0.00    -0.377 A  
HETATM   24  C   UNL     1     -12.003  10.627  69.288  1.00  0.00    -0.269 A  
HETATM   25  C   UNL     1     -12.359  11.491  70.336  1.00  0.00    -0.390 A  
HETATM   26  C   UNL     1     -12.028  12.843  70.285  1.00  0.00    -0.283 A  
HETATM   27  C   UNL     1     -11.371  13.407  69.196  1.00  0.00    -0.333 A  
HETATM   28  F   UNL     1     -12.348  13.625  71.325  1.00  0.00    -0.398 F  
ENDBRANCH  16  19
ENDBRANCH  12  13
ENDBRANCH  11  12
ENDBRANCH  10  11
ENDBRANCH   9  10
ENDBRANCH   4   9
BRANCH   6  29
HETATM   29  C   UNL     1     -13.497   7.863  71.767  1.00  0.00    -0.335 C  
HETATM   30  O   UNL     1     -14.237   7.057  71.208  1.00  0.00    -0.299 OA 
HETATM   31  C   UNL     1     -14.062   9.070  72.475  1.00  0.00    -0.428 C  
ENDBRANCH   6  29
ENDBRANCH   2   3
TORSDOF 8
ENDMDL
MODEL      112
REMARK 921   NORMALIZED FREE ENERGY PREDICTED BY IDOCK:   -5.70 KCAL/MOL
REMARK 922        TOTAL FREE ENERGY PREDICTED BY IDOCK:   -9.16 KCAL/MOL
REMARK 923 INTER-LIGAND FREE ENERGY PREDICTED BY IDOCK:   -8.39 KCAL/MOL
REMARK 924 INTRA-LIGAND FREE ENERGY PREDICTED BY IDOCK:   -0.77 KCAL/MOL
REMARK 927      BINDING AFFINITY PREDICTED BY RF-SCORE:    0.00 PKD
ROOT
HETATM    1  C   UNL     1     -10.029   6.336  68.149  1.00  0.00    -0.138 C  
HETATM    2  O   UNL     1     -11.183   6.253  68.973  1.00  0.00    -0.375 OA 
ENDROOT
BRANCH   2   3
HETATM    3  C   UNL     1     -10.988   6.014  70.311  1.00  0.00    -0.342 A  
HETATM    4  C   UNL     1     -11.446   7.016  71.186  1.00  0.00    -0.294 A  
HETATM    5  C   UNL     1     -11.286   6.855  72.565  1.00  0.00    -0.304 A  
HETATM    6  C   UNL     1     -10.239   4.701  72.215  1.00  0.00    -0.256 A  
HETATM    7  C   UNL     1     -10.400   4.856  70.832  1.00  0.00    -0.225 A  
HETATM    8  C   UNL     1     -10.696   5.697  73.079  1.00  0.00    -0.290 A  
BRANCH   4   9
HETATM    9  O   UNL     1     -11.994   8.134  70.614  1.00  0.00    -0.185 OA 
BRANCH   9  10
HETATM   10  C   UNL     1     -11.894   9.367  71.326  1.00  0.00    -0.360 C  
BRANCH  10  11
HETATM   11  C   UNL     1     -12.789  10.460  70.730  1.00  0.00    -0.450 C  
BRANCH  11  12
HETATM   12  C   UNL     1     -12.087  11.813  70.513  1.00  0.00    -0.347 C  
BRANCH  12  13
HETATM   13  N   UNL     1     -11.925  12.126  69.090  1.00  0.00    -0.286 NA 
HETATM   14  C   UNL     1     -10.799  11.418  68.468  1.00  0.00    -0.211 C  
HETATM   15  C   UNL     1     -10.815  11.622  66.940  1.00  0.00    -0.322 C  
HETATM   16  C   UNL     1     -10.939  13.101  66.518  1.00  0.00    -0.303 C  
HETATM   17  C   UNL     1     -12.081  13.740  67.325  1.00  0.00    -0.393 C  
HETATM   18  C   UNL     1     -11.851  13.559  68.819  1.00  0.00    -0.355 C  
BRANCH  16  19
HETATM   19  C   UNL     1      -9.662  13.888  66.659  1.00  0.00    -0.289 A  
HETATM   20  N   UNL     1      -8.518  13.289  67.021  1.00  0.00    -0.171 NA 
HETATM   21  O   UNL     1      -7.605  14.303  67.231  1.00  0.00    -0.183 OA 
HETATM   22  C   UNL     1      -8.194  15.503  66.977  1.00  0.00    -0.240 A  
HETATM   23  C   UNL     1      -9.483  15.298  66.536  1.00  0.00    -0.308 A  
HETATM   24  C   UNL     1     -10.256  16.417  66.177  1.00  0.00    -0.363 A  
HETATM   25  C   UNL     1      -9.694  17.692  66.346  1.00  0.00    -0.303 A  
HETATM   26  C   UNL     1      -8.398  17.838  66.836  1.00  0.00    -0.238 A  
HETATM   27  C   UNL     1      -7.594  16.746  67.144  1.00  0.00    -0.221 A  
HETATM   28  F   UNL     1      -7.914  19.073  67.023  1.00  0.00    -0.242 F  
ENDBRANCH  16  19
ENDBRANCH  12  13
ENDBRANCH  11  12
ENDBRANCH  10  11
ENDBRANCH   9  10
ENDBRANCH   4   9
BRANCH   6  29
HETATM   29  C   UNL     1      -9.579   3.463  72.713  1.00  0.00    -0.126 C  
HETATM   30  O   UNL     1      -9.288   3.371  73.904  1.00  0.00    -0.095 OA 
HETATM   31  C   UNL     1      -9.334   2.314  71.766  1.00  0.00    -0.178 C  
ENDBRANCH   6  29
ENDBRANCH   2   3
TORSDOF 8
ENDMDL
MODEL      113
REMARK 921   NORMALIZED FREE ENERGY PREDICTED BY IDOCK:   -5.69 KCAL/MOL
REMARK 922        TOTAL FREE ENERGY PREDICTED BY IDOCK:   -9.14 KCAL/MOL
REMARK 923 INTER-LIGAND FREE ENERGY PREDICTED BY IDOCK:   -8.22 KCAL/MOL
REMARK 924 INTRA-LIGAND FREE ENERGY PREDICTED BY IDOCK:   -0.92 KCAL/MOL
REMARK 927      BINDING AFFINITY PREDICTED BY RF-SCORE:    0.00 PKD
ROOT
HETATM    1  C   UNL     1     -10.045  17.185  66.652  1.00  0.00    -0.306 C  
HETATM    2  O   UNL     1      -9.227  18.066  67.409  1.00  0.00    -0.251 OA 
ENDROOT
BRANCH   2   3
HETATM    3  C   UNL     1      -7.937  18.254  66.981  1.00  0.00    -0.225 A  
HETATM    4  C   UNL     1      -6.929  17.773  67.838  1.00  0.00    -0.193 A  
HETATM    5  C   UNL     1      -5.588  17.925  67.480  1.00  0.00    -0.147 A  
HETATM    6  C   UNL     1      -6.236  19.008  65.416  1.00  0.00    -0.300 A  
HETATM    7  C   UNL     1      -7.583  18.855  65.768  1.00  0.00    -0.111 A  
HETATM    8  C   UNL     1      -5.242  18.529  66.268  1.00  0.00    -0.171 A  
BRANCH   4   9
HETATM    9  O   UNL     1      -7.339  17.212  69.020  1.00  0.00    -0.242 OA 
BRANCH   9  10
HETATM   10  C   UNL     1      -6.679  16.025  69.459  1.00  0.00    -0.199 C  
BRANCH  10  11
HETATM   11  C   UNL     1      -7.496  14.761  69.167  1.00  0.00    -0.153 C  
BRANCH  11  12
HETATM   12  C   UNL     1      -7.621  14.412  67.673  1.00  0.00    -0.179 C  
BRANCH  12  13
HETATM   13  N   UNL     1      -8.890  13.742  67.369  1.00  0.00    -0.199 NA 
HETATM   14  C   UNL     1      -9.881  13.867  68.445  1.00  0.00    -0.229 C  
HETATM   15  C   UNL     1     -11.250  13.332  67.978  1.00  0.00    -0.307 C  
HETATM   16  C   UNL     1     -11.178  11.926  67.348  1.00  0.00    -0.366 C  
HETATM   17  C   UNL     1     -10.032  11.912  66.324  1.00  0.00    -0.245 C  
HETATM   18  C   UNL     1      -8.724  12.347  66.973  1.00  0.00    -0.207 C  
BRANCH  16  19
HETATM   19  C   UNL     1     -11.029  10.811  68.350  1.00  0.00    -0.248 A  
HETATM   20  N   UNL     1     -10.299   9.722  68.067  1.00  0.00    -0.194 NA 
HETATM   21  O   UNL     1     -10.516   8.836  69.103  1.00  0.00    -0.222 OA 
HETATM   22  C   UNL     1     -11.358   9.399  70.012  1.00  0.00    -0.141 A  
HETATM   23  C   UNL     1     -11.659  10.686  69.625  1.00  0.00    -0.368 A  
HETATM   24  C   UNL     1     -12.487  11.462  70.455  1.00  0.00    -0.345 A  
HETATM   25  C   UNL     1     -13.017  10.863  71.608  1.00  0.00    -0.569 A  
HETATM   26  C   UNL     1     -12.709   9.542  71.927  1.00  0.00    -0.411 A  
HETATM   27  C   UNL     1     -11.847   8.772  71.153  1.00  0.00    -0.345 A  
HETATM   28  F   UNL     1     -13.269   8.994  73.014  1.00  0.00    -0.464 F  
ENDBRANCH  16  19
ENDBRANCH  12  13
ENDBRANCH  11  12
ENDBRANCH  10  11
ENDBRANCH   9  10
ENDBRANCH   4   9
BRANCH   6  29
HETATM   29  C   UNL     1      -5.918  19.683  64.128  1.00  0.00    -0.234 C  
HETATM   30  O   UNL     1      -5.731  19.003  63.120  1.00  0.00    -0.355 OA 
HETATM   31  C   UNL     1      -5.891  21.190  64.059  1.00  0.00    -0.295 C  
ENDBRANCH   6  29
ENDBRANCH   2   3
TORSDOF 8
ENDMDL
MODEL      114
REMARK 921   NORMALIZED FREE ENERGY PREDICTED BY IDOCK:   -5.68 KCAL/MOL
REMARK 922        TOTAL FREE ENERGY PREDICTED BY IDOCK:   -9.13 KCAL/MOL
REMARK 923 INTER-LIGAND FREE ENERGY PREDICTED BY IDOCK:   -7.71 KCAL/MOL
REMARK 924 INTRA-LIGAND FREE ENERGY PREDICTED BY IDOCK:   -1.42 KCAL/MOL
REMARK 927      BINDING AFFINITY PREDICTED BY RF-SCORE:    0.00 PKD
ROOT
HETATM    1  C   UNL     1     -11.119   6.373  67.978  1.00  0.00    -0.267 C  
HETATM    2  O   UNL     1     -11.011   5.717  69.233  1.00  0.00    -0.330 OA 
ENDROOT
BRANCH   2   3
HETATM    3  C   UNL     1     -11.078   6.497  70.360  1.00  0.00    -0.332 A  
HETATM    4  C   UNL     1     -10.028   6.334  71.283  1.00  0.00    -0.180 A  
HETATM    5  C   UNL     1     -10.019   7.088  72.459  1.00  0.00    -0.191 A  
HETATM    6  C   UNL     1     -12.074   8.182  71.802  1.00  0.00    -0.357 A  
HETATM    7  C   UNL     1     -12.087   7.431  70.619  1.00  0.00    -0.167 A  
HETATM    8  C   UNL     1     -11.031   8.017  72.713  1.00  0.00    -0.449 A  
BRANCH   4   9
HETATM    9  O   UNL     1      -9.081   5.390  70.981  1.00  0.00    -0.140 OA 
BRANCH   9  10
HETATM   10  C   UNL     1      -7.729   5.825  70.833  1.00  0.00    -0.097 C  
BRANCH  10  11
HETATM   11  C   UNL     1      -7.600   7.011  69.870  1.00  0.00    -0.102 C  
BRANCH  11  12
HETATM   12  C   UNL     1      -7.423   6.618  68.392  1.00  0.00    -0.095 C  
BRANCH  12  13
HETATM   13  N   UNL     1      -7.149   7.781  67.543  1.00  0.00    -0.081 NA 
HETATM   14  C   UNL     1      -6.745   8.969  68.305  1.00  0.00    -0.061 C  
HETATM   15  C   UNL     1      -6.267  10.082  67.350  1.00  0.00    -0.059 C  
HETATM   16  C   UNL     1      -7.257  10.376  66.203  1.00  0.00    -0.131 C  
HETATM   17  C   UNL     1      -7.675   9.038  65.571  1.00  0.00    -0.091 C  
HETATM   18  C   UNL     1      -8.240   8.097  66.626  1.00  0.00    -0.103 C  
BRANCH  16  19
HETATM   19  C   UNL     1      -8.459  11.182  66.621  1.00  0.00    -0.164 A  
HETATM   20  N   UNL     1      -8.630  11.554  67.898  1.00  0.00    -0.137 NA 
HETATM   21  O   UNL     1      -9.893  12.107  67.969  1.00  0.00    -0.190 OA 
HETATM   22  C   UNL     1     -10.468  12.084  66.737  1.00  0.00    -0.214 A  
HETATM   23  C   UNL     1      -9.573  11.575  65.821  1.00  0.00    -0.259 A  
HETATM   24  C   UNL     1      -9.960  11.504  64.471  1.00  0.00    -0.306 A  
HETATM   25  C   UNL     1     -11.263  11.900  64.133  1.00  0.00    -0.446 A  
HETATM   26  C   UNL     1     -12.139  12.368  65.110  1.00  0.00    -0.405 A  
HETATM   27  C   UNL     1     -11.762  12.501  66.443  1.00  0.00    -0.458 A  
HETATM   28  F   UNL     1     -13.388  12.695  64.754  1.00  0.00    -0.394 F  
ENDBRANCH  16  19
ENDBRANCH  12  13
ENDBRANCH  11  12
ENDBRANCH  10  11
ENDBRANCH   9  10
ENDBRANCH   4   9
BRANCH   6  29
HETATM   29  C   UNL     1     -13.190   9.139  72.040  1.00  0.00    -0.441 C  
HETATM   30  O   UNL     1     -14.171   8.773  72.685  1.00  0.00    -0.527 OA 
HETATM   31  C   UNL     1     -13.075  10.559  71.545  1.00  0.00    -0.532 C  
ENDBRANCH   6  29
ENDBRANCH   2   3
TORSDOF 8
ENDMDL
MODEL      115
REMARK 921   NORMALIZED FREE ENERGY PREDICTED BY IDOCK:   -5.66 KCAL/MOL
REMARK 922        TOTAL FREE ENERGY PREDICTED BY IDOCK:   -9.10 KCAL/MOL
REMARK 923 INTER-LIGAND FREE ENERGY PREDICTED BY IDOCK:   -7.84 KCAL/MOL
REMARK 924 INTRA-LIGAND FREE ENERGY PREDICTED BY IDOCK:   -1.25 KCAL/MOL
REMARK 927      BINDING AFFINITY PREDICTED BY RF-SCORE:    0.00 PKD
ROOT
HETATM    1  C   UNL     1      -8.630   4.118  70.481  1.00  0.00    -0.077 C  
HETATM    2  O   UNL     1      -9.529   5.205  70.642  1.00  0.00    -0.154 OA 
ENDROOT
BRANCH   2   3
HETATM    3  C   UNL     1      -9.278   6.086  71.664  1.00  0.00    -0.145 A  
HETATM    4  C   UNL     1     -10.325   6.273  72.585  1.00  0.00    -0.199 A  
HETATM    5  C   UNL     1     -10.154   7.154  73.656  1.00  0.00    -0.389 A  
HETATM    6  C   UNL     1      -7.904   7.651  72.919  1.00  0.00    -0.135 A  
HETATM    7  C   UNL     1      -8.068   6.766  71.846  1.00  0.00    -0.101 A  
HETATM    8  C   UNL     1      -8.944   7.831  73.830  1.00  0.00    -0.335 A  
BRANCH   4   9
HETATM    9  O   UNL     1     -11.491   5.594  72.342  1.00  0.00    -0.285 OA 
BRANCH   9  10
HETATM   10  C   UNL     1     -12.654   6.358  72.021  1.00  0.00    -0.089 C  
BRANCH  10  11
HETATM   11  C   UNL     1     -12.420   7.306  70.839  1.00  0.00    -0.266 C  
BRANCH  11  12
HETATM   12  C   UNL     1     -12.846   8.763  71.095  1.00  0.00    -0.111 C  
BRANCH  12  13
HETATM   13  N   UNL     1     -11.852   9.721  70.601  1.00  0.00    -0.283 NA 
HETATM   14  C   UNL     1     -12.450  10.865  69.903  1.00  0.00    -0.224 C  
HETATM   15  C   UNL     1     -11.377  11.931  69.601  1.00  0.00    -0.266 C  
HETATM   16  C   UNL     1     -10.120  11.360  68.913  1.00  0.00    -0.166 C  
HETATM   17  C   UNL     1      -9.671  10.109  69.686  1.00  0.00    -0.250 C  
HETATM   18  C   UNL     1     -10.809   9.102  69.789  1.00  0.00    -0.211 C  
BRANCH  16  19
HETATM   19  C   UNL     1     -10.304  11.061  67.449  1.00  0.00    -0.207 A  
HETATM   20  N   UNL     1      -9.670  10.031  66.869  1.00  0.00    -0.181 NA 
HETATM   21  O   UNL     1      -9.909  10.147  65.515  1.00  0.00    -0.258 OA 
HETATM   22  C   UNL     1     -10.698  11.231  65.285  1.00  0.00    -0.237 A  
HETATM   23  C   UNL     1     -11.045  11.810  66.486  1.00  0.00    -0.364 A  
HETATM   24  C   UNL     1     -11.898  12.928  66.472  1.00  0.00    -0.473 A  
HETATM   25  C   UNL     1     -12.304  13.436  65.228  1.00  0.00    -0.513 A  
HETATM   26  C   UNL     1     -11.886  12.832  64.044  1.00  0.00    -0.435 A  
HETATM   27  C   UNL     1     -11.090  11.692  64.033  1.00  0.00    -0.458 A  
HETATM   28  F   UNL     1     -12.261  13.373  62.877  1.00  0.00    -0.579 F  
ENDBRANCH  16  19
ENDBRANCH  12  13
ENDBRANCH  11  12
ENDBRANCH  10  11
ENDBRANCH   9  10
ENDBRANCH   4   9
BRANCH   6  29
HETATM   29  C   UNL     1      -6.606   8.371  73.045  1.00  0.00    -0.090 C  
HETATM   30  O   UNL     1      -6.411   9.096  74.019  1.00  0.00    -0.330 OA 
HETATM   31  C   UNL     1      -5.527   8.153  72.014  1.00  0.00    -0.036 C  
ENDBRANCH   6  29
ENDBRANCH   2   3
TORSDOF 8
ENDMDL
MODEL      116
REMARK 921   NORMALIZED FREE ENERGY PREDICTED BY IDOCK:   -5.65 KCAL/MOL
REMARK 922        TOTAL FREE ENERGY PREDICTED BY IDOCK:   -9.09 KCAL/MOL
REMARK 923 INTER-LIGAND FREE ENERGY PREDICTED BY IDOCK:   -7.43 KCAL/MOL
REMARK 924 INTRA-LIGAND FREE ENERGY PREDICTED BY IDOCK:   -1.66 KCAL/MOL
REMARK 927      BINDING AFFINITY PREDICTED BY RF-SCORE:    0.00 PKD
ROOT
HETATM    1  C   UNL     1      -5.605  14.034  71.845  1.00  0.00    -0.206 C  
HETATM    2  O   UNL     1      -5.129  13.767  70.534  1.00  0.00    -0.094 OA 
ENDROOT
BRANCH   2   3
HETATM    3  C   UNL     1      -6.065  13.580  69.549  1.00  0.00    -0.112 A  
HETATM    4  C   UNL     1      -6.245  14.655  68.660  1.00  0.00    -0.086 A  
HETATM    5  C   UNL     1      -7.180  14.550  67.627  1.00  0.00    -0.206 A  
HETATM    6  C   UNL     1      -7.746  12.307  68.337  1.00  0.00    -0.141 A  
HETATM    7  C   UNL     1      -6.808  12.407  69.372  1.00  0.00     0.021 A  
HETATM    8  C   UNL     1      -7.919  13.376  67.458  1.00  0.00    -0.186 A  
BRANCH   4   9
HETATM    9  O   UNL     1      -5.504  15.784  68.897  1.00  0.00    -0.102 OA 
BRANCH   9  10
HETATM   10  C   UNL     1      -6.165  16.908  69.478  1.00  0.00    -0.229 C  
BRANCH  10  11
HETATM   11  C   UNL     1      -5.901  18.204  68.703  1.00  0.00    -0.194 C  
BRANCH  11  12
HETATM   12  C   UNL     1      -6.419  18.198  67.252  1.00  0.00    -0.177 C  
BRANCH  12  13
HETATM   13  N   UNL     1      -7.882  18.284  67.191  1.00  0.00    -0.216 NA 
HETATM   14  C   UNL     1      -8.493  18.649  68.475  1.00  0.00    -0.338 C  
HETATM   15  C   UNL     1      -9.998  18.931  68.292  1.00  0.00    -0.431 C  
HETATM   16  C   UNL     1     -10.745  17.815  67.533  1.00  0.00    -0.315 C  
HETATM   17  C   UNL     1      -9.937  17.463  66.273  1.00  0.00    -0.306 C  
HETATM   18  C   UNL     1      -8.507  17.087  66.637  1.00  0.00    -0.248 C  
BRANCH  16  19
HETATM   19  C   UNL     1     -11.026  16.590  68.363  1.00  0.00    -0.348 A  
HETATM   20  N   UNL     1     -10.861  16.605  69.694  1.00  0.00    -0.334 NA 
HETATM   21  O   UNL     1     -11.023  15.300  70.114  1.00  0.00    -0.261 OA 
HETATM   22  C   UNL     1     -11.303  14.510  69.043  1.00  0.00    -0.272 A  
HETATM   23  C   UNL     1     -11.393  15.287  67.909  1.00  0.00    -0.339 A  
HETATM   24  C   UNL     1     -11.718  14.665  66.691  1.00  0.00    -0.345 A  
HETATM   25  C   UNL     1     -11.875  13.270  66.680  1.00  0.00    -0.447 A  
HETATM   26  C   UNL     1     -11.731  12.531  67.853  1.00  0.00    -0.359 A  
HETATM   27  C   UNL     1     -11.465  13.129  69.080  1.00  0.00    -0.358 A  
HETATM   28  F   UNL     1     -11.846  11.197  67.793  1.00  0.00    -0.339 F  
ENDBRANCH  16  19
ENDBRANCH  12  13
ENDBRANCH  11  12
ENDBRANCH  10  11
ENDBRANCH   9  10
ENDBRANCH   4   9
BRANCH   6  29
HETATM   29  C   UNL     1      -8.530  11.047  68.216  1.00  0.00    -0.138 C  
HETATM   30  O   UNL     1      -9.052  10.563  69.218  1.00  0.00    -0.189 OA 
HETATM   31  C   UNL     1      -8.726  10.416  66.859  1.00  0.00    -0.130 C  
ENDBRANCH   6  29
ENDBRANCH   2   3
TORSDOF 8
ENDMDL
MODEL      117
REMARK 921   NORMALIZED FREE ENERGY PREDICTED BY IDOCK:   -5.65 KCAL/MOL
REMARK 922        TOTAL FREE ENERGY PREDICTED BY IDOCK:   -9.08 KCAL/MOL
REMARK 923 INTER-LIGAND FREE ENERGY PREDICTED BY IDOCK:   -8.28 KCAL/MOL
REMARK 924 INTRA-LIGAND FREE ENERGY PREDICTED BY IDOCK:   -0.80 KCAL/MOL
REMARK 927      BINDING AFFINITY PREDICTED BY RF-SCORE:    0.00 PKD
ROOT
HETATM    1  C   UNL     1     -10.662  19.450  65.856  1.00  0.00    -0.407 C  
HETATM    2  O   UNL     1     -10.816  18.950  67.176  1.00  0.00    -0.444 OA 
ENDROOT
BRANCH   2   3
HETATM    3  C   UNL     1      -9.755  18.269  67.721  1.00  0.00    -0.297 A  
HETATM    4  C   UNL     1      -9.893  16.870  67.788  1.00  0.00    -0.252 A  
HETATM    5  C   UNL     1      -8.862  16.100  68.330  1.00  0.00    -0.188 A  
HETATM    6  C   UNL     1      -7.546  18.092  68.720  1.00  0.00    -0.285 A  
HETATM    7  C   UNL     1      -8.576  18.869  68.174  1.00  0.00    -0.349 A  
HETATM    8  C   UNL     1      -7.687  16.706  68.783  1.00  0.00    -0.233 A  
BRANCH   4   9
HETATM    9  O   UNL     1     -11.079  16.344  67.347  1.00  0.00    -0.209 OA 
BRANCH   9  10
HETATM   10  C   UNL     1     -11.028  15.338  66.335  1.00  0.00    -0.299 C  
BRANCH  10  11
HETATM   11  C   UNL     1     -12.040  14.213  66.580  1.00  0.00    -0.480 C  
BRANCH  11  12
HETATM   12  C   UNL     1     -11.756  13.358  67.829  1.00  0.00    -0.359 C  
BRANCH  12  13
HETATM   13  N   UNL     1     -10.612  12.461  67.633  1.00  0.00    -0.213 NA 
HETATM   14  C   UNL     1     -10.703  11.671  66.400  1.00  0.00    -0.272 C  
HETATM   15  C   UNL     1      -9.382  10.916  66.147  1.00  0.00    -0.211 C  
HETATM   16  C   UNL     1      -8.885  10.120  67.370  1.00  0.00    -0.135 C  
HETATM   17  C   UNL     1      -8.946  11.037  68.602  1.00  0.00    -0.167 C  
HETATM   18  C   UNL     1     -10.348  11.603  68.784  1.00  0.00    -0.195 C  
BRANCH  16  19
HETATM   19  C   UNL     1      -9.631   8.833  67.609  1.00  0.00    -0.144 A  
HETATM   20  N   UNL     1     -10.340   8.254  66.630  1.00  0.00    -0.286 NA 
HETATM   21  O   UNL     1     -11.032   7.215  67.220  1.00  0.00    -0.310 OA 
HETATM   22  C   UNL     1     -10.724   7.160  68.544  1.00  0.00    -0.152 A  
HETATM   23  C   UNL     1      -9.778   8.118  68.836  1.00  0.00    -0.156 A  
HETATM   24  C   UNL     1      -9.289   8.202  70.152  1.00  0.00    -0.159 A  
HETATM   25  C   UNL     1      -9.836   7.343  71.118  1.00  0.00    -0.177 A  
HETATM   26  C   UNL     1     -10.822   6.421  70.771  1.00  0.00    -0.267 A  
HETATM   27  C   UNL     1     -11.281   6.280  69.466  1.00  0.00    -0.500 A  
HETATM   28  F   UNL     1     -11.349   5.648  71.731  1.00  0.00    -0.318 F  
ENDBRANCH  16  19
ENDBRANCH  12  13
ENDBRANCH  11  12
ENDBRANCH  10  11
ENDBRANCH   9  10
ENDBRANCH   4   9
BRANCH   6  29
HETATM   29  C   UNL     1      -6.326  18.788  69.214  1.00  0.00    -0.272 C  
HETATM   30  O   UNL     1      -5.394  18.124  69.665  1.00  0.00    -0.184 OA 
HETATM   31  C   UNL     1      -6.221  20.288  69.098  1.00  0.00    -0.363 C  
ENDBRANCH   6  29
ENDBRANCH   2   3
TORSDOF 8
ENDMDL
MODEL      118
REMARK 921   NORMALIZED FREE ENERGY PREDICTED BY IDOCK:   -5.64 KCAL/MOL
REMARK 922        TOTAL FREE ENERGY PREDICTED BY IDOCK:   -9.08 KCAL/MOL
REMARK 923 INTER-LIGAND FREE ENERGY PREDICTED BY IDOCK:   -8.16 KCAL/MOL
REMARK 924 INTRA-LIGAND FREE ENERGY PREDICTED BY IDOCK:   -0.92 KCAL/MOL
REMARK 927      BINDING AFFINITY PREDICTED BY RF-SCORE:    0.00 PKD
ROOT
HETATM    1  C   UNL     1     -10.437   6.986  73.786  1.00  0.00    -0.354 C  
HETATM    2  O   UNL     1     -11.427   6.894  72.772  1.00  0.00    -0.235 OA 
ENDROOT
BRANCH   2   3
HETATM    3  C   UNL     1     -11.030   6.436  71.541  1.00  0.00    -0.263 A  
HETATM    4  C   UNL     1     -11.175   7.341  70.473  1.00  0.00    -0.279 A  
HETATM    5  C   UNL     1     -10.797   6.956  69.185  1.00  0.00    -0.262 A  
HETATM    6  C   UNL     1     -10.110   4.787  70.009  1.00  0.00    -0.308 A  
HETATM    7  C   UNL     1     -10.485   5.169  71.304  1.00  0.00    -0.245 A  
HETATM    8  C   UNL     1     -10.255   5.688  68.955  1.00  0.00    -0.279 A  
BRANCH   4   9
HETATM    9  O   UNL     1     -11.733   8.558  70.766  1.00  0.00    -0.277 OA 
BRANCH   9  10
HETATM   10  C   UNL     1     -10.853   9.658  70.999  1.00  0.00    -0.342 C  
BRANCH  10  11
HETATM   11  C   UNL     1     -11.310  10.933  70.281  1.00  0.00    -0.342 C  
BRANCH  11  12
HETATM   12  C   UNL     1     -12.390  10.709  69.206  1.00  0.00     0.087 C  
BRANCH  12  13
HETATM   13  N   UNL     1     -12.030  11.331  67.928  1.00  0.00    -0.640 NA 
HETATM   14  C   UNL     1     -10.756  10.841  67.386  1.00  0.00    -0.268 C  
HETATM   15  C   UNL     1     -10.545  11.369  65.953  1.00  0.00    -0.317 C  
HETATM   16  C   UNL     1     -10.739  12.894  65.824  1.00  0.00    -0.293 C  
HETATM   17  C   UNL     1     -12.053  13.275  66.527  1.00  0.00    -0.435 C  
HETATM   18  C   UNL     1     -12.051  12.790  67.970  1.00  0.00    -0.121 C  
BRANCH  16  19
HETATM   19  C   UNL     1      -9.584  13.707  66.346  1.00  0.00    -0.268 A  
HETATM   20  N   UNL     1      -8.536  13.115  66.940  1.00  0.00    -0.159 NA 
HETATM   21  O   UNL     1      -7.762  14.136  67.454  1.00  0.00    -0.180 OA 
HETATM   22  C   UNL     1      -8.331  15.334  67.153  1.00  0.00    -0.216 A  
HETATM   23  C   UNL     1      -9.455  15.128  66.383  1.00  0.00    -0.325 A  
HETATM   24  C   UNL     1     -10.173  16.248  65.927  1.00  0.00    -0.384 A  
HETATM   25  C   UNL     1      -9.741  17.521  66.332  1.00  0.00    -0.299 A  
HETATM   26  C   UNL     1      -8.620  17.664  67.147  1.00  0.00    -0.227 A  
HETATM   27  C   UNL     1      -7.861  16.576  67.564  1.00  0.00    -0.175 A  
HETATM   28  F   UNL     1      -8.266  18.893  67.547  1.00  0.00    -0.266 F  
ENDBRANCH  16  19
ENDBRANCH  12  13
ENDBRANCH  11  12
ENDBRANCH  10  11
ENDBRANCH   9  10
ENDBRANCH   4   9
BRANCH   6  29
HETATM   29  C   UNL     1      -9.564   3.416  69.810  1.00  0.00    -0.110 C  
HETATM   30  O   UNL     1      -9.357   2.701  70.789  1.00  0.00    -0.122 OA 
HETATM   31  C   UNL     1      -9.333   2.899  68.412  1.00  0.00    -0.252 C  
ENDBRANCH   6  29
ENDBRANCH   2   3
TORSDOF 8
ENDMDL
MODEL      119
REMARK 921   NORMALIZED FREE ENERGY PREDICTED BY IDOCK:   -5.64 KCAL/MOL
REMARK 922        TOTAL FREE ENERGY PREDICTED BY IDOCK:   -9.08 KCAL/MOL
REMARK 923 INTER-LIGAND FREE ENERGY PREDICTED BY IDOCK:   -8.02 KCAL/MOL
REMARK 924 INTRA-LIGAND FREE ENERGY PREDICTED BY IDOCK:   -1.05 KCAL/MOL
REMARK 927      BINDING AFFINITY PREDICTED BY RF-SCORE:    0.00 PKD
ROOT
HETATM    1  C   UNL     1     -10.904   5.770  68.618  1.00  0.00    -0.200 C  
HETATM    2  O   UNL     1     -10.749   5.496  70.003  1.00  0.00    -0.313 OA 
ENDROOT
BRANCH   2   3
HETATM    3  C   UNL     1     -10.888   6.549  70.874  1.00  0.00    -0.253 A  
HETATM    4  C   UNL     1      -9.715   6.957  71.535  1.00  0.00    -0.162 A  
HETATM    5  C   UNL     1      -9.767   8.020  72.440  1.00  0.00    -0.305 A  
HETATM    6  C   UNL     1     -12.134   8.292  72.023  1.00  0.00    -0.402 A  
HETATM    7  C   UNL     1     -12.087   7.228  71.112  1.00  0.00    -0.376 A  
HETATM    8  C   UNL     1     -10.969   8.693  72.674  1.00  0.00    -0.076 A  
BRANCH   4   9
HETATM    9  O   UNL     1      -8.576   6.240  71.275  1.00  0.00    -0.124 OA 
BRANCH   9  10
HETATM   10  C   UNL     1      -7.331   6.939  71.274  1.00  0.00    -0.081 C  
BRANCH  10  11
HETATM   11  C   UNL     1      -7.296   8.065  70.234  1.00  0.00    -0.060 C  
BRANCH  11  12
HETATM   12  C   UNL     1      -7.649   7.624  68.802  1.00  0.00    -0.102 C  
BRANCH  12  13
HETATM   13  N   UNL     1      -8.874   8.267  68.315  1.00  0.00    -0.139 NA 
HETATM   14  C   UNL     1      -8.862   8.508  66.867  1.00  0.00    -0.137 C  
HETATM   15  C   UNL     1     -10.250   8.984  66.391  1.00  0.00    -0.297 C  
HETATM   16  C   UNL     1     -10.817  10.154  67.220  1.00  0.00    -0.295 C  
HETATM   17  C   UNL     1     -10.665   9.810  68.711  1.00  0.00    -0.243 C  
HETATM   18  C   UNL     1      -9.214   9.485  69.043  1.00  0.00    -0.155 C  
BRANCH  16  19
HETATM   19  C   UNL     1     -10.196  11.489  66.902  1.00  0.00    -0.217 A  
HETATM   20  N   UNL     1      -9.123  11.930  67.576  1.00  0.00    -0.173 NA 
HETATM   21  O   UNL     1      -8.926  13.234  67.170  1.00  0.00    -0.212 OA 
HETATM   22  C   UNL     1      -9.864  13.568  66.243  1.00  0.00    -0.299 A  
HETATM   23  C   UNL     1     -10.655  12.473  65.975  1.00  0.00    -0.289 A  
HETATM   24  C   UNL     1     -11.668  12.595  65.006  1.00  0.00    -0.401 A  
HETATM   25  C   UNL     1     -11.861  13.848  64.405  1.00  0.00    -0.456 A  
HETATM   26  C   UNL     1     -11.055  14.932  64.747  1.00  0.00    -0.383 A  
HETATM   27  C   UNL     1     -10.011  14.822  65.660  1.00  0.00    -0.390 A  
HETATM   28  F   UNL     1     -11.299  16.122  64.182  1.00  0.00    -0.461 F  
ENDBRANCH  16  19
ENDBRANCH  12  13
ENDBRANCH  11  12
ENDBRANCH  10  11
ENDBRANCH   9  10
ENDBRANCH   4   9
BRANCH   6  29
HETATM   29  C   UNL     1     -13.444   8.958  72.259  1.00  0.00    -0.455 C  
HETATM   30  O   UNL     1     -14.398   8.291  72.655  1.00  0.00    -0.309 OA 
HETATM   31  C   UNL     1     -13.569  10.450  72.074  1.00  0.00    -0.257 C  
ENDBRANCH   6  29
ENDBRANCH   2   3
TORSDOF 8
ENDMDL
MODEL      120
REMARK 921   NORMALIZED FREE ENERGY PREDICTED BY IDOCK:   -5.63 KCAL/MOL
REMARK 922        TOTAL FREE ENERGY PREDICTED BY IDOCK:   -9.06 KCAL/MOL
REMARK 923 INTER-LIGAND FREE ENERGY PREDICTED BY IDOCK:   -7.79 KCAL/MOL
REMARK 924 INTRA-LIGAND FREE ENERGY PREDICTED BY IDOCK:   -1.27 KCAL/MOL
REMARK 927      BINDING AFFINITY PREDICTED BY RF-SCORE:    0.00 PKD
ROOT
HETATM    1  C   UNL     1      -7.883  13.049  67.436  1.00  0.00    -0.164 C  
HETATM    2  O   UNL     1      -8.763  12.212  66.700  1.00  0.00    -0.195 OA 
ENDROOT
BRANCH   2   3
HETATM    3  C   UNL     1      -9.946  12.760  66.272  1.00  0.00    -0.264 A  
HETATM    4  C   UNL     1     -11.093  11.967  66.457  1.00  0.00    -0.306 A  
HETATM    5  C   UNL     1     -12.339  12.448  66.048  1.00  0.00     0.041 A  
HETATM    6  C   UNL     1     -11.322  14.509  65.291  1.00  0.00    -0.353 A  
HETATM    7  C   UNL     1     -10.070  14.032  65.703  1.00  0.00    -0.342 A  
HETATM    8  C   UNL     1     -12.456  13.719  65.479  1.00  0.00    -0.548 A  
BRANCH   4   9
HETATM    9  O   UNL     1     -10.903  10.723  67.001  1.00  0.00    -0.265 OA 
BRANCH   9  10
HETATM   10  C   UNL     1     -11.356  10.503  68.337  1.00  0.00    -0.262 C  
BRANCH  10  11
HETATM   11  C   UNL     1     -10.912  11.615  69.294  1.00  0.00    -0.246 C  
BRANCH  11  12
HETATM   12  C   UNL     1     -12.009  12.105  70.258  1.00  0.00    -0.305 C  
BRANCH  12  13
HETATM   13  N   UNL     1     -12.125  13.567  70.262  1.00  0.00    -0.353 NA 
HETATM   14  C   UNL     1     -12.284  14.137  68.918  1.00  0.00    -0.222 C  
HETATM   15  C   UNL     1     -12.613  15.640  69.009  1.00  0.00     0.422 C  
HETATM   16  C   UNL     1     -11.647  16.428  69.917  1.00  0.00     0.003 C  
HETATM   17  C   UNL     1     -11.493  15.661  71.241  1.00  0.00    -0.469 C  
HETATM   18  C   UNL     1     -11.043  14.229  70.984  1.00  0.00     0.706 C  
BRANCH  16  19
HETATM   19  C   UNL     1     -10.307  16.709  69.289  1.00  0.00    -0.318 A  
HETATM   20  N   UNL     1      -9.300  15.829  69.388  1.00  0.00    -0.268 NA 
HETATM   21  O   UNL     1      -8.186  16.462  68.874  1.00  0.00    -0.218 OA 
HETATM   22  C   UNL     1      -8.528  17.709  68.451  1.00  0.00    -0.287 A  
HETATM   23  C   UNL     1      -9.882  17.897  68.621  1.00  0.00    -0.375 A  
HETATM   24  C   UNL     1     -10.450  19.114  68.204  1.00  0.00    -0.428 A  
HETATM   25  C   UNL     1      -9.595  20.103  67.693  1.00  0.00    -0.534 A  
HETATM   26  C   UNL     1      -8.225  19.871  67.585  1.00  0.00    -0.313 A  
HETATM   27  C   UNL     1      -7.648  18.655  67.936  1.00  0.00    -0.264 A  
HETATM   28  F   UNL     1      -7.437  20.855  67.131  1.00  0.00    -0.360 F  
ENDBRANCH  16  19
ENDBRANCH  12  13
ENDBRANCH  11  12
ENDBRANCH  10  11
ENDBRANCH   9  10
ENDBRANCH   4   9
BRANCH   6  29
HETATM   29  C   UNL     1     -11.390  15.857  64.664  1.00  0.00    -0.322 C  
HETATM   30  O   UNL     1     -12.143  16.041  63.710  1.00  0.00    -0.882 OA 
HETATM   31  C   UNL     1     -10.586  16.994  65.245  1.00  0.00    -0.096 C  
ENDBRANCH   6  29
ENDBRANCH   2   3
TORSDOF 8
ENDMDL
MODEL      121
REMARK 921   NORMALIZED FREE ENERGY PREDICTED BY IDOCK:   -5.63 KCAL/MOL
REMARK 922        TOTAL FREE ENERGY PREDICTED BY IDOCK:   -9.05 KCAL/MOL
REMARK 923 INTER-LIGAND FREE ENERGY PREDICTED BY IDOCK:   -7.79 KCAL/MOL
REMARK 924 INTRA-LIGAND FREE ENERGY PREDICTED BY IDOCK:   -1.27 KCAL/MOL
REMARK 927      BINDING AFFINITY PREDICTED BY RF-SCORE:    0.00 PKD
ROOT
HETATM    1  C   UNL     1     -10.513   7.311  66.723  1.00  0.00    -0.241 C  
HETATM    2  O   UNL     1     -11.055   6.153  67.340  1.00  0.00    -0.331 OA 
ENDROOT
BRANCH   2   3
HETATM    3  C   UNL     1     -10.944   6.053  68.704  1.00  0.00    -0.284 A  
HETATM    4  C   UNL     1      -9.955   5.169  69.177  1.00  0.00    -0.203 A  
HETATM    5  C   UNL     1      -9.775   5.006  70.552  1.00  0.00    -0.273 A  
HETATM    6  C   UNL     1     -11.534   6.606  70.997  1.00  0.00    -0.382 A  
HETATM    7  C   UNL     1     -11.717   6.777  69.619  1.00  0.00    -0.164 A  
HETATM    8  C   UNL     1     -10.552   5.730  71.459  1.00  0.00    -0.304 A  
BRANCH   4   9
HETATM    9  O   UNL     1      -9.245   4.475  68.232  1.00  0.00    -0.118 OA 
BRANCH   9  10
HETATM   10  C   UNL     1      -7.859   4.786  68.077  1.00  0.00    -0.082 C  
BRANCH  10  11
HETATM   11  C   UNL     1      -7.496   6.145  68.685  1.00  0.00    -0.087 C  
BRANCH  11  12
HETATM   12  C   UNL     1      -7.032   7.199  67.663  1.00  0.00    -0.079 C  
BRANCH  12  13
HETATM   13  N   UNL     1      -7.239   8.567  68.151  1.00  0.00    -0.085 NA 
HETATM   14  C   UNL     1      -8.270   8.658  69.192  1.00  0.00    -0.117 C  
HETATM   15  C   UNL     1      -8.286  10.072  69.808  1.00  0.00    -0.191 C  
HETATM   16  C   UNL     1      -8.350  11.200  68.758  1.00  0.00    -0.136 C  
HETATM   17  C   UNL     1      -7.293  10.915  67.677  1.00  0.00    -0.094 C  
HETATM   18  C   UNL     1      -7.492   9.528  67.082  1.00  0.00    -0.091 C  
BRANCH  16  19
HETATM   19  C   UNL     1      -9.714  11.396  68.150  1.00  0.00    -0.192 A  
HETATM   20  N   UNL     1     -10.704  10.519  68.377  1.00  0.00    -0.207 NA 
HETATM   21  O   UNL     1     -11.740  10.887  67.543  1.00  0.00    -0.543 OA 
HETATM   22  C   UNL     1     -11.381  11.991  66.833  1.00  0.00    -0.341 A  
HETATM   23  C   UNL     1     -10.130  12.407  67.232  1.00  0.00    -0.214 A  
HETATM   24  C   UNL     1      -9.587  13.565  66.646  1.00  0.00    -0.282 A  
HETATM   25  C   UNL     1     -10.325  14.205  65.639  1.00  0.00    -0.348 A  
HETATM   26  C   UNL     1     -11.569  13.714  65.248  1.00  0.00    -0.320 A  
HETATM   27  C   UNL     1     -12.152  12.604  65.852  1.00  0.00    -0.459 A  
HETATM   28  F   UNL     1     -12.223  14.329  64.254  1.00  0.00    -0.443 F  
ENDBRANCH  16  19
ENDBRANCH  12  13
ENDBRANCH  11  12
ENDBRANCH  10  11
ENDBRANCH   9  10
ENDBRANCH   4   9
BRANCH   6  29
HETATM   29  C   UNL     1     -12.406   7.379  71.924  1.00  0.00    -0.310 C  
HETATM   30  O   UNL     1     -11.893   8.037  72.827  1.00  0.00    -0.372 OA 
HETATM   31  C   UNL     1     -13.899   7.398  71.705  1.00  0.00    -0.490 C  
ENDBRANCH   6  29
ENDBRANCH   2   3
TORSDOF 8
ENDMDL
MODEL      122
REMARK 921   NORMALIZED FREE ENERGY PREDICTED BY IDOCK:   -5.61 KCAL/MOL
REMARK 922        TOTAL FREE ENERGY PREDICTED BY IDOCK:   -9.03 KCAL/MOL
REMARK 923 INTER-LIGAND FREE ENERGY PREDICTED BY IDOCK:   -7.92 KCAL/MOL
REMARK 924 INTRA-LIGAND FREE ENERGY PREDICTED BY IDOCK:   -1.11 KCAL/MOL
REMARK 927      BINDING AFFINITY PREDICTED BY RF-SCORE:    0.00 PKD
ROOT
HETATM    1  C   UNL     1     -10.763  19.172  67.371  1.00  0.00    -0.481 C  
HETATM    2  O   UNL     1     -10.745  17.777  67.105  1.00  0.00    -0.319 OA 
ENDROOT
BRANCH   2   3
HETATM    3  C   UNL     1     -10.668  16.929  68.181  1.00  0.00    -0.375 A  
HETATM    4  C   UNL     1      -9.370  16.602  68.614  1.00  0.00    -0.247 A  
HETATM    5  C   UNL     1      -9.200  15.743  69.702  1.00  0.00    -0.144 A  
HETATM    6  C   UNL     1     -11.599  15.548  69.953  1.00  0.00    -0.348 A  
HETATM    7  C   UNL     1     -11.775  16.411  68.863  1.00  0.00    -0.059 A  
HETATM    8  C   UNL     1     -10.310  15.228  70.377  1.00  0.00    -0.088 A  
BRANCH   4   9
HETATM    9  O   UNL     1      -8.328  17.125  67.893  1.00  0.00    -0.200 OA 
BRANCH   9  10
HETATM   10  C   UNL     1      -7.043  16.520  68.041  1.00  0.00    -0.143 C  
BRANCH  10  11
HETATM   11  C   UNL     1      -6.900  15.243  67.205  1.00  0.00    -0.108 C  
BRANCH  11  12
HETATM   12  C   UNL     1      -6.199  14.079  67.931  1.00  0.00    -0.156 C  
BRANCH  12  13
HETATM   13  N   UNL     1      -7.079  12.916  68.083  1.00  0.00    -0.095 NA 
HETATM   14  C   UNL     1      -6.574  11.718  67.402  1.00  0.00    -0.118 C  
HETATM   15  C   UNL     1      -7.426  10.489  67.777  1.00  0.00    -0.087 C  
HETATM   16  C   UNL     1      -8.942  10.717  67.608  1.00  0.00    -0.139 C  
HETATM   17  C   UNL     1      -9.307  12.055  68.272  1.00  0.00    -0.197 C  
HETATM   18  C   UNL     1      -8.462  13.187  67.703  1.00  0.00    -0.194 C  
BRANCH  16  19
HETATM   19  C   UNL     1      -9.415  10.670  66.178  1.00  0.00    -0.179 A  
HETATM   20  N   UNL     1      -8.748   9.962  65.254  1.00  0.00    -0.150 NA 
HETATM   21  O   UNL     1      -9.328  10.275  64.042  1.00  0.00    -0.245 OA 
HETATM   22  C   UNL     1     -10.350  11.151  64.239  1.00  0.00    -0.351 A  
HETATM   23  C   UNL     1     -10.502  11.382  65.589  1.00  0.00    -0.316 A  
HETATM   24  C   UNL     1     -11.539  12.233  66.013  1.00  0.00    -0.451 A  
HETATM   25  C   UNL     1     -12.328  12.854  65.034  1.00  0.00    -0.541 A  
HETATM   26  C   UNL     1     -12.100  12.614  63.680  1.00  0.00    -0.547 A  
HETATM   27  C   UNL     1     -11.119  11.733  63.237  1.00  0.00    -0.370 A  
HETATM   28  F   UNL     1     -12.848  13.259  62.775  1.00  0.00    -0.121 F  
ENDBRANCH  16  19
ENDBRANCH  12  13
ENDBRANCH  11  12
ENDBRANCH  10  11
ENDBRANCH   9  10
ENDBRANCH   4   9
BRANCH   6  29
HETATM   29  C   UNL     1     -12.812  15.002  70.621  1.00  0.00    -0.363 C  
HETATM   30  O   UNL     1     -13.850  15.662  70.621  1.00  0.00    -0.346 OA 
HETATM   31  C   UNL     1     -12.773  13.624  71.233  1.00  0.00    -0.443 C  
ENDBRANCH   6  29
ENDBRANCH   2   3
TORSDOF 8
ENDMDL
MODEL      123
REMARK 921   NORMALIZED FREE ENERGY PREDICTED BY IDOCK:   -5.60 KCAL/MOL
REMARK 922        TOTAL FREE ENERGY PREDICTED BY IDOCK:   -9.02 KCAL/MOL
REMARK 923 INTER-LIGAND FREE ENERGY PREDICTED BY IDOCK:   -8.24 KCAL/MOL
REMARK 924 INTRA-LIGAND FREE ENERGY PREDICTED BY IDOCK:   -0.78 KCAL/MOL
REMARK 927      BINDING AFFINITY PREDICTED BY RF-SCORE:    0.00 PKD
ROOT
HETATM    1  C   UNL     1     -11.919  15.434  68.852  1.00  0.00    -0.273 C  
HETATM    2  O   UNL     1     -10.521  15.364  69.087  1.00  0.00    -0.216 OA 
ENDROOT
BRANCH   2   3
HETATM    3  C   UNL     1      -9.751  16.405  68.631  1.00  0.00    -0.239 A  
HETATM    4  C   UNL     1      -8.359  16.241  68.757  1.00  0.00    -0.235 A  
HETATM    5  C   UNL     1      -7.502  17.253  68.320  1.00  0.00    -0.224 A  
HETATM    6  C   UNL     1      -9.395  18.584  67.612  1.00  0.00    -0.295 A  
HETATM    7  C   UNL     1     -10.259  17.570  68.046  1.00  0.00    -0.354 A  
HETATM    8  C   UNL     1      -8.017  18.415  67.738  1.00  0.00    -0.258 A  
BRANCH   4   9
HETATM    9  O   UNL     1      -7.924  15.087  69.355  1.00  0.00    -0.195 OA 
BRANCH   9  10
HETATM   10  C   UNL     1      -6.731  14.484  68.855  1.00  0.00    -0.099 C  
BRANCH  10  11
HETATM   11  C   UNL     1      -6.699  12.970  69.094  1.00  0.00    -0.087 C  
BRANCH  11  12
HETATM   12  C   UNL     1      -6.208  12.143  67.891  1.00  0.00    -0.079 C  
BRANCH  12  13
HETATM   13  N   UNL     1      -7.197  11.145  67.470  1.00  0.00    -0.096 NA 
HETATM   14  C   UNL     1      -6.920  10.582  66.143  1.00  0.00    -0.131 C  
HETATM   15  C   UNL     1      -7.863   9.397  65.855  1.00  0.00    -0.099 C  
HETATM   16  C   UNL     1      -9.351   9.721  66.103  1.00  0.00    -0.243 C  
HETATM   17  C   UNL     1      -9.475  10.401  67.477  1.00  0.00    -0.167 C  
HETATM   18  C   UNL     1      -8.573  11.625  67.555  1.00  0.00    -0.149 C  
BRANCH  16  19
HETATM   19  C   UNL     1      -9.987  10.554  65.021  1.00  0.00    -0.322 A  
HETATM   20  N   UNL     1      -9.644  10.393  63.735  1.00  0.00    -0.299 NA 
HETATM   21  O   UNL     1     -10.264  11.415  63.043  1.00  0.00    -0.324 OA 
HETATM   22  C   UNL     1     -10.990  12.173  63.908  1.00  0.00    -0.402 A  
HETATM   23  C   UNL     1     -10.913  11.629  65.172  1.00  0.00    -0.326 A  
HETATM   24  C   UNL     1     -11.633  12.243  66.213  1.00  0.00    -0.446 A  
HETATM   25  C   UNL     1     -12.345  13.417  65.924  1.00  0.00    -0.493 A  
HETATM   26  C   UNL     1     -12.351  13.944  64.634  1.00  0.00    -0.388 A  
HETATM   27  C   UNL     1     -11.695  13.325  63.575  1.00  0.00    -0.390 A  
HETATM   28  F   UNL     1     -13.008  15.090  64.408  1.00  0.00    -0.255 F  
ENDBRANCH  16  19
ENDBRANCH  12  13
ENDBRANCH  11  12
ENDBRANCH  10  11
ENDBRANCH   9  10
ENDBRANCH   4   9
BRANCH   6  29
HETATM   29  C   UNL     1      -9.993  19.815  67.026  1.00  0.00    -0.408 C  
HETATM   30  O   UNL     1     -10.064  20.835  67.708  1.00  0.00    -0.288 OA 
HETATM   31  C   UNL     1     -10.443  19.815  65.586  1.00  0.00    -0.460 C  
ENDBRANCH   6  29
ENDBRANCH   2   3
TORSDOF 8
ENDMDL
MODEL      124
REMARK 921   NORMALIZED FREE ENERGY PREDICTED BY IDOCK:   -5.59 KCAL/MOL
REMARK 922        TOTAL FREE ENERGY PREDICTED BY IDOCK:   -9.00 KCAL/MOL
REMARK 923 INTER-LIGAND FREE ENERGY PREDICTED BY IDOCK:   -8.47 KCAL/MOL
REMARK 924 INTRA-LIGAND FREE ENERGY PREDICTED BY IDOCK:   -0.53 KCAL/MOL
REMARK 927      BINDING AFFINITY PREDICTED BY RF-SCORE:    0.00 PKD
ROOT
HETATM    1  C   UNL     1     -10.102  10.258  64.825  1.00  0.00    -0.266 C  
HETATM    2  O   UNL     1      -9.112  10.844  65.657  1.00  0.00    -0.192 OA 
ENDROOT
BRANCH   2   3
HETATM    3  C   UNL     1      -8.893  10.264  66.882  1.00  0.00    -0.132 A  
HETATM    4  C   UNL     1      -8.257  11.074  67.840  1.00  0.00    -0.119 A  
HETATM    5  C   UNL     1      -7.993  10.562  69.113  1.00  0.00    -0.145 A  
HETATM    6  C   UNL     1      -9.006   8.452  68.499  1.00  0.00    -0.136 A  
HETATM    7  C   UNL     1      -9.276   8.962  67.222  1.00  0.00    -0.164 A  
HETATM    8  C   UNL     1      -8.377   9.260  69.446  1.00  0.00    -0.127 A  
BRANCH   4   9
HETATM    9  O   UNL     1      -7.888  12.333  67.440  1.00  0.00    -0.152 OA 
BRANCH   9  10
HETATM   10  C   UNL     1      -6.983  13.060  68.271  1.00  0.00    -0.101 C  
BRANCH  10  11
HETATM   11  C   UNL     1      -6.530  14.376  67.627  1.00  0.00    -0.151 C  
BRANCH  11  12
HETATM   12  C   UNL     1      -6.531  15.586  68.579  1.00  0.00    -0.103 C  
BRANCH  12  13
HETATM   13  N   UNL     1      -7.623  16.519  68.281  1.00  0.00    -0.164 NA 
HETATM   14  C   UNL     1      -8.948  15.980  68.607  1.00  0.00    -0.210 C  
HETATM   15  C   UNL     1     -10.022  17.079  68.473  1.00  0.00    -0.293 C  
HETATM   16  C   UNL     1      -9.963  17.837  67.131  1.00  0.00    -0.322 C  
HETATM   17  C   UNL     1      -8.503  18.244  66.870  1.00  0.00    -0.267 C  
HETATM   18  C   UNL     1      -7.589  17.028  66.913  1.00  0.00    -0.209 C  
BRANCH  16  19
HETATM   19  C   UNL     1     -10.533  17.069  65.967  1.00  0.00    -0.274 A  
HETATM   20  N   UNL     1     -10.887  17.695  64.835  1.00  0.00    -0.668 NA 
HETATM   21  O   UNL     1     -11.528  16.750  64.060  1.00  0.00    -1.198 OA 
HETATM   22  C   UNL     1     -11.542  15.558  64.716  1.00  0.00    -0.256 A  
HETATM   23  C   UNL     1     -10.856  15.681  65.905  1.00  0.00    -0.297 A  
HETATM   24  C   UNL     1     -10.715  14.543  66.721  1.00  0.00    -0.291 A  
HETATM   25  C   UNL     1     -11.336  13.353  66.311  1.00  0.00    -0.329 A  
HETATM   26  C   UNL     1     -12.053  13.301  65.117  1.00  0.00    -0.413 A  
HETATM   27  C   UNL     1     -12.158  14.396  64.265  1.00  0.00    -0.461 A  
HETATM   28  F   UNL     1     -12.667  12.158  64.782  1.00  0.00    -0.484 F  
ENDBRANCH  16  19
ENDBRANCH  12  13
ENDBRANCH  11  12
ENDBRANCH  10  11
ENDBRANCH   9  10
ENDBRANCH   4   9
BRANCH   6  29
HETATM   29  C   UNL     1      -9.409   7.050  68.797  1.00  0.00    -0.134 C  
HETATM   30  O   UNL     1      -8.543   6.185  68.912  1.00  0.00    -0.120 OA 
HETATM   31  C   UNL     1     -10.865   6.721  69.015  1.00  0.00    -0.290 C  
ENDBRANCH   6  29
ENDBRANCH   2   3
TORSDOF 8
ENDMDL
MODEL      125
REMARK 921   NORMALIZED FREE ENERGY PREDICTED BY IDOCK:   -5.59 KCAL/MOL
REMARK 922        TOTAL FREE ENERGY PREDICTED BY IDOCK:   -9.00 KCAL/MOL
REMARK 923 INTER-LIGAND FREE ENERGY PREDICTED BY IDOCK:   -7.56 KCAL/MOL
REMARK 924 INTRA-LIGAND FREE ENERGY PREDICTED BY IDOCK:   -1.44 KCAL/MOL
REMARK 927      BINDING AFFINITY PREDICTED BY RF-SCORE:    0.00 PKD
ROOT
HETATM    1  C   UNL     1     -11.744  12.232  69.258  1.00  0.00    -0.330 C  
HETATM    2  O   UNL     1     -11.901  13.578  68.833  1.00  0.00    -0.309 OA 
ENDROOT
BRANCH   2   3
HETATM    3  C   UNL     1     -11.601  13.867  67.526  1.00  0.00    -0.360 A  
HETATM    4  C   UNL     1     -11.234  15.199  67.259  1.00  0.00    -0.324 A  
HETATM    5  C   UNL     1     -10.915  15.580  65.954  1.00  0.00    -0.264 A  
HETATM    6  C   UNL     1     -11.297  13.321  65.176  1.00  0.00    -0.318 A  
HETATM    7  C   UNL     1     -11.616  12.933  66.484  1.00  0.00    -0.425 A  
HETATM    8  C   UNL     1     -10.934  14.643  64.918  1.00  0.00    -0.419 A  
BRANCH   4   9
HETATM    9  O   UNL     1     -11.258  16.070  68.318  1.00  0.00    -0.343 OA 
BRANCH   9  10
HETATM   10  C   UNL     1     -10.056  16.776  68.629  1.00  0.00    -0.279 C  
BRANCH  10  11
HETATM   11  C   UNL     1      -8.811  16.087  68.057  1.00  0.00    -0.175 C  
BRANCH  11  12
HETATM   12  C   UNL     1      -7.618  16.014  69.027  1.00  0.00    -0.209 C  
BRANCH  12  13
HETATM   13  N   UNL     1      -6.844  14.780  68.855  1.00  0.00    -0.099 NA 
HETATM   14  C   UNL     1      -7.296  13.969  67.718  1.00  0.00    -0.167 C  
HETATM   15  C   UNL     1      -6.315  12.808  67.464  1.00  0.00    -0.162 C  
HETATM   16  C   UNL     1      -5.989  11.989  68.730  1.00  0.00    -0.056 C  
HETATM   17  C   UNL     1      -5.640  12.969  69.863  1.00  0.00    -0.114 C  
HETATM   18  C   UNL     1      -6.765  13.975  70.070  1.00  0.00     0.045 C  
BRANCH  16  19
HETATM   19  C   UNL     1      -7.082  11.040  69.146  1.00  0.00    -0.116 A  
HETATM   20  N   UNL     1      -7.099  10.502  70.374  1.00  0.00    -0.250 NA 
HETATM   21  O   UNL     1      -8.106   9.559  70.365  1.00  0.00    -0.163 OA 
HETATM   22  C   UNL     1      -8.704   9.545  69.143  1.00  0.00    -0.146 A  
HETATM   23  C   UNL     1      -8.145  10.520  68.347  1.00  0.00    -0.119 A  
HETATM   24  C   UNL     1      -8.653  10.702  67.048  1.00  0.00    -0.128 A  
HETATM   25  C   UNL     1      -9.665   9.836  66.606  1.00  0.00    -0.257 A  
HETATM   26  C   UNL     1     -10.163   8.840  67.443  1.00  0.00    -0.252 A  
HETATM   27  C   UNL     1      -9.717   8.677  68.751  1.00  0.00    -0.171 A  
HETATM   28  F   UNL     1     -11.099   8.007  66.969  1.00  0.00    -0.336 F  
ENDBRANCH  16  19
ENDBRANCH  12  13
ENDBRANCH  11  12
ENDBRANCH  10  11
ENDBRANCH   9  10
ENDBRANCH   4   9
BRANCH   6  29
HETATM   29  C   UNL     1     -11.360  12.293  64.101  1.00  0.00    -0.376 C  
HETATM   30  O   UNL     1     -12.455  11.875  63.728  1.00  0.00    -0.464 OA 
HETATM   31  C   UNL     1     -10.087  11.823  63.441  1.00  0.00    -0.470 C  
ENDBRANCH   6  29
ENDBRANCH   2   3
TORSDOF 8
ENDMDL
MODEL      126
REMARK 921   NORMALIZED FREE ENERGY PREDICTED BY IDOCK:   -5.55 KCAL/MOL
REMARK 922        TOTAL FREE ENERGY PREDICTED BY IDOCK:   -8.94 KCAL/MOL
REMARK 923 INTER-LIGAND FREE ENERGY PREDICTED BY IDOCK:   -7.87 KCAL/MOL
REMARK 924 INTRA-LIGAND FREE ENERGY PREDICTED BY IDOCK:   -1.07 KCAL/MOL
REMARK 927      BINDING AFFINITY PREDICTED BY RF-SCORE:    0.00 PKD
ROOT
HETATM    1  C   UNL     1      -9.395   2.678  68.116  1.00  0.00    -0.203 C  
HETATM    2  O   UNL     1      -8.834   3.862  68.665  1.00  0.00    -0.095 OA 
ENDROOT
BRANCH   2   3
HETATM    3  C   UNL     1      -9.140   5.049  68.049  1.00  0.00    -0.114 A  
HETATM    4  C   UNL     1     -10.177   5.797  68.635  1.00  0.00    -0.197 A  
HETATM    5  C   UNL     1     -10.554   7.018  68.071  1.00  0.00    -0.260 A  
HETATM    6  C   UNL     1      -8.864   6.774  66.357  1.00  0.00    -0.153 A  
HETATM    7  C   UNL     1      -8.480   5.550  66.921  1.00  0.00    -0.110 A  
HETATM    8  C   UNL     1      -9.892   7.511  66.944  1.00  0.00    -0.295 A  
BRANCH   4   9
HETATM    9  O   UNL     1     -10.797   5.244  69.726  1.00  0.00    -0.235 OA 
BRANCH   9  10
HETATM   10  C   UNL     1     -11.244   6.124  70.758  1.00  0.00    -0.306 C  
BRANCH  10  11
HETATM   11  C   UNL     1     -10.104   6.561  71.685  1.00  0.00    -0.202 C  
BRANCH  11  12
HETATM   12  C   UNL     1     -10.197   8.021  72.167  1.00  0.00    -0.244 C  
BRANCH  12  13
HETATM   13  N   UNL     1     -11.190   8.788  71.409  1.00  0.00    -0.269 NA 
HETATM   14  C   UNL     1     -10.589   9.755  70.483  1.00  0.00    -0.312 C  
HETATM   15  C   UNL     1     -11.671  10.369  69.572  1.00  0.00    -0.259 C  
HETATM   16  C   UNL     1     -12.891  10.912  70.344  1.00  0.00    -0.257 C  
HETATM   17  C   UNL     1     -13.344   9.839  71.348  1.00  0.00    -0.449 C  
HETATM   18  C   UNL     1     -12.191   9.430  72.256  1.00  0.00    -0.176 C  
BRANCH  16  19
HETATM   19  C   UNL     1     -12.648  12.232  71.028  1.00  0.00    -0.257 A  
HETATM   20  N   UNL     1     -13.190  12.500  72.225  1.00  0.00    -0.421 NA 
HETATM   21  O   UNL     1     -12.926  13.831  72.475  1.00  0.00    -0.381 OA 
HETATM   22  C   UNL     1     -12.211  14.354  71.442  1.00  0.00    -0.352 A  
HETATM   23  C   UNL     1     -11.938  13.363  70.524  1.00  0.00    -0.332 A  
HETATM   24  C   UNL     1     -11.168  13.688  69.393  1.00  0.00    -0.252 A  
HETATM   25  C   UNL     1     -10.768  15.023  69.225  1.00  0.00    -0.250 A  
HETATM   26  C   UNL     1     -11.111  15.991  70.167  1.00  0.00    -0.371 A  
HETATM   27  C   UNL     1     -11.822  15.684  71.322  1.00  0.00    -0.473 A  
HETATM   28  F   UNL     1     -10.746  17.261  69.949  1.00  0.00    -0.276 F  
ENDBRANCH  16  19
ENDBRANCH  12  13
ENDBRANCH  11  12
ENDBRANCH  10  11
ENDBRANCH   9  10
ENDBRANCH   4   9
BRANCH   6  29
HETATM   29  C   UNL     1      -8.148   7.244  65.139  1.00  0.00    -0.128 C  
HETATM   30  O   UNL     1      -7.539   6.430  64.446  1.00  0.00    -0.083 OA 
HETATM   31  C   UNL     1      -8.229   8.695  64.737  1.00  0.00    -0.161 C  
ENDBRANCH   6  29
ENDBRANCH   2   3
TORSDOF 8
ENDMDL
MODEL      127
REMARK 921   NORMALIZED FREE ENERGY PREDICTED BY IDOCK:   -5.54 KCAL/MOL
REMARK 922        TOTAL FREE ENERGY PREDICTED BY IDOCK:   -8.93 KCAL/MOL
REMARK 923 INTER-LIGAND FREE ENERGY PREDICTED BY IDOCK:   -7.24 KCAL/MOL
REMARK 924 INTRA-LIGAND FREE ENERGY PREDICTED BY IDOCK:   -1.68 KCAL/MOL
REMARK 927      BINDING AFFINITY PREDICTED BY RF-SCORE:    0.00 PKD
ROOT
HETATM    1  C   UNL     1      -6.840  12.705  67.796  1.00  0.00    -0.128 C  
HETATM    2  O   UNL     1      -6.436  11.362  67.574  1.00  0.00    -0.062 OA 
ENDROOT
BRANCH   2   3
HETATM    3  C   UNL     1      -7.303  10.546  66.891  1.00  0.00    -0.110 A  
HETATM    4  C   UNL     1      -7.273   9.184  67.245  1.00  0.00    -0.083 A  
HETATM    5  C   UNL     1      -8.122   8.283  66.598  1.00  0.00    -0.102 A  
HETATM    6  C   UNL     1      -9.048  10.077  65.264  1.00  0.00    -0.243 A  
HETATM    7  C   UNL     1      -8.201  10.986  65.912  1.00  0.00    -0.100 A  
HETATM    8  C   UNL     1      -9.015   8.729  65.620  1.00  0.00    -0.248 A  
BRANCH   4   9
HETATM    9  O   UNL     1      -6.358   8.813  68.196  1.00  0.00    -0.054 OA 
BRANCH   9  10
HETATM   10  C   UNL     1      -6.849   8.231  69.404  1.00  0.00    -0.043 C  
BRANCH  10  11
HETATM   11  C   UNL     1      -7.642   9.232  70.252  1.00  0.00    -0.125 C  
BRANCH  11  12
HETATM   12  C   UNL     1      -8.871   8.635  70.962  1.00  0.00    -0.191 C  
BRANCH  12  13
HETATM   13  N   UNL     1     -10.129   9.162  70.422  1.00  0.00    -0.202 NA 
HETATM   14  C   UNL     1      -9.934  10.047  69.267  1.00  0.00    -0.213 C  
HETATM   15  C   UNL     1     -11.291  10.391  68.620  1.00  0.00    -0.277 C  
HETATM   16  C   UNL     1     -12.343  10.896  69.629  1.00  0.00    -0.290 C  
HETATM   17  C   UNL     1     -12.359   9.936  70.831  1.00  0.00    -0.403 C  
HETATM   18  C   UNL     1     -10.967   9.801  71.432  1.00  0.00    -0.187 C  
BRANCH  16  19
HETATM   19  C   UNL     1     -12.136  12.321  70.071  1.00  0.00    -0.273 A  
HETATM   20  N   UNL     1     -12.552  12.738  71.276  1.00  0.00    -0.319 NA 
HETATM   21  O   UNL     1     -12.377  14.107  71.289  1.00  0.00    -0.344 OA 
HETATM   22  C   UNL     1     -11.840  14.507  70.104  1.00  0.00    -0.308 A  
HETATM   23  C   UNL     1     -11.594  13.404  69.316  1.00  0.00    -0.365 A  
HETATM   24  C   UNL     1     -10.997  13.597  68.057  1.00  0.00    -0.270 A  
HETATM   25  C   UNL     1     -10.739  14.913  67.642  1.00  0.00    -0.270 A  
HETATM   26  C   UNL     1     -11.049  15.992  68.466  1.00  0.00    -0.347 A  
HETATM   27  C   UNL     1     -11.586  15.824  69.738  1.00  0.00    -0.359 A  
HETATM   28  F   UNL     1     -10.826  17.234  68.016  1.00  0.00    -0.357 F  
ENDBRANCH  16  19
ENDBRANCH  12  13
ENDBRANCH  11  12
ENDBRANCH  10  11
ENDBRANCH   9  10
ENDBRANCH   4   9
BRANCH   6  29
HETATM   29  C   UNL     1      -9.962  10.596  64.209  1.00  0.00    -0.349 C  
HETATM   30  O   UNL     1     -10.954  11.244  64.536  1.00  0.00    -0.310 OA 
HETATM   31  C   UNL     1      -9.626  10.376  62.755  1.00  0.00    -0.311 C  
ENDBRANCH   6  29
ENDBRANCH   2   3
TORSDOF 8
ENDMDL
MODEL      128
REMARK 921   NORMALIZED FREE ENERGY PREDICTED BY IDOCK:   -5.52 KCAL/MOL
REMARK 922        TOTAL FREE ENERGY PREDICTED BY IDOCK:   -8.90 KCAL/MOL
REMARK 923 INTER-LIGAND FREE ENERGY PREDICTED BY IDOCK:   -6.99 KCAL/MOL
REMARK 924 INTRA-LIGAND FREE ENERGY PREDICTED BY IDOCK:   -1.91 KCAL/MOL
REMARK 927      BINDING AFFINITY PREDICTED BY RF-SCORE:    0.00 PKD
ROOT
HETATM    1  C   UNL     1      -7.774   3.293  69.901  1.00  0.00    -0.043 C  
HETATM    2  O   UNL     1      -8.761   3.418  68.887  1.00  0.00    -0.081 OA 
ENDROOT
BRANCH   2   3
HETATM    3  C   UNL     1      -9.622   4.482  68.973  1.00  0.00    -0.175 A  
HETATM    4  C   UNL     1      -9.899   5.148  67.765  1.00  0.00    -0.156 A  
HETATM    5  C   UNL     1     -10.765   6.244  67.762  1.00  0.00    -0.383 A  
HETATM    6  C   UNL     1     -11.103   6.013  70.146  1.00  0.00    -0.432 A  
HETATM    7  C   UNL     1     -10.238   4.911  70.154  1.00  0.00    -0.310 A  
HETATM    8  C   UNL     1     -11.375   6.668  68.945  1.00  0.00    -0.209 A  
BRANCH   4   9
HETATM    9  O   UNL     1      -9.250   4.693  66.646  1.00  0.00    -0.118 OA 
BRANCH   9  10
HETATM   10  C   UNL     1      -9.168   5.567  65.520  1.00  0.00    -0.045 C  
BRANCH  10  11
HETATM   11  C   UNL     1      -7.907   6.440  65.551  1.00  0.00    -0.103 C  
BRANCH  11  12
HETATM   12  C   UNL     1      -7.770   7.406  64.360  1.00  0.00    -0.120 C  
BRANCH  12  13
HETATM   13  N   UNL     1      -7.993   8.801  64.755  1.00  0.00    -0.124 NA 
HETATM   14  C   UNL     1      -7.594   9.080  66.140  1.00  0.00    -0.095 C  
HETATM   15  C   UNL     1      -7.653  10.595  66.421  1.00  0.00    -0.138 C  
HETATM   16  C   UNL     1      -8.989  11.245  66.008  1.00  0.00    -0.209 C  
HETATM   17  C   UNL     1      -9.334  10.780  64.583  1.00  0.00    -0.271 C  
HETATM   18  C   UNL     1      -9.356   9.260  64.504  1.00  0.00     0.112 C  
BRANCH  16  19
HETATM   19  C   UNL     1     -10.124  10.975  66.960  1.00  0.00    -0.196 A  
HETATM   20  N   UNL     1     -11.371  11.385  66.683  1.00  0.00    -0.387 NA 
HETATM   21  O   UNL     1     -12.114  11.144  67.821  1.00  0.00    -0.606 OA 
HETATM   22  C   UNL     1     -11.322  10.574  68.769  1.00  0.00    -0.249 A  
HETATM   23  C   UNL     1     -10.061  10.372  68.252  1.00  0.00    -0.174 A  
HETATM   24  C   UNL     1      -9.094   9.751  69.063  1.00  0.00    -0.157 A  
HETATM   25  C   UNL     1      -9.446   9.424  70.382  1.00  0.00    -0.319 A  
HETATM   26  C   UNL     1     -10.727   9.691  70.862  1.00  0.00    -0.332 A  
HETATM   27  C   UNL     1     -11.718  10.252  70.062  1.00  0.00    -0.330 A  
HETATM   28  F   UNL     1     -11.011   9.403  72.139  1.00  0.00    -0.397 F  
ENDBRANCH  16  19
ENDBRANCH  12  13
ENDBRANCH  11  12
ENDBRANCH  10  11
ENDBRANCH   9  10
ENDBRANCH   4   9
BRANCH   6  29
HETATM   29  C   UNL     1     -11.706   6.444  71.438  1.00  0.00    -0.306 C  
HETATM   30  O   UNL     1     -11.037   6.379  72.467  1.00  0.00    -0.242 OA 
HETATM   31  C   UNL     1     -13.103   7.013  71.458  1.00  0.00    -0.395 C  
ENDBRANCH   6  29
ENDBRANCH   2   3
TORSDOF 8
ENDMDL
MODEL      129
REMARK 921   NORMALIZED FREE ENERGY PREDICTED BY IDOCK:   -5.52 KCAL/MOL
REMARK 922        TOTAL FREE ENERGY PREDICTED BY IDOCK:   -8.90 KCAL/MOL
REMARK 923 INTER-LIGAND FREE ENERGY PREDICTED BY IDOCK:   -8.30 KCAL/MOL
REMARK 924 INTRA-LIGAND FREE ENERGY PREDICTED BY IDOCK:   -0.60 KCAL/MOL
REMARK 927      BINDING AFFINITY PREDICTED BY RF-SCORE:    0.00 PKD
ROOT
HETATM    1  C   UNL     1      -8.738  12.596  67.825  1.00  0.00    -0.179 C  
HETATM    2  O   UNL     1      -9.248  11.688  66.859  1.00  0.00    -0.175 OA 
ENDROOT
BRANCH   2   3
HETATM    3  C   UNL     1     -10.008  12.209  65.842  1.00  0.00    -0.245 A  
HETATM    4  C   UNL     1     -10.420  11.296  64.854  1.00  0.00    -0.314 A  
HETATM    5  C   UNL     1     -11.196  11.743  63.781  1.00  0.00    -0.518 A  
HETATM    6  C   UNL     1     -11.177  13.992  64.673  1.00  0.00    -0.377 A  
HETATM    7  C   UNL     1     -10.402  13.549  65.753  1.00  0.00    -0.296 A  
HETATM    8  C   UNL     1     -11.584  13.083  63.697  1.00  0.00    -0.507 A  
BRANCH   4   9
HETATM    9  O   UNL     1      -9.986  10.003  64.987  1.00  0.00    -0.326 OA 
BRANCH   9  10
HETATM   10  C   UNL     1      -8.989   9.536  64.078  1.00  0.00    -0.188 C  
BRANCH  10  11
HETATM   11  C   UNL     1      -8.221   8.327  64.626  1.00  0.00    -0.145 C  
BRANCH  11  12
HETATM   12  C   UNL     1      -8.061   8.313  66.158  1.00  0.00    -0.111 C  
BRANCH  12  13
HETATM   13  N   UNL     1      -8.744   7.168  66.771  1.00  0.00    -0.122 NA 
HETATM   14  C   UNL     1     -10.204   7.313  66.795  1.00  0.00    -0.235 C  
HETATM   15  C   UNL     1     -10.866   5.997  67.251  1.00  0.00    -0.403 C  
HETATM   16  C   UNL     1     -10.268   5.426  68.553  1.00  0.00    -0.237 C  
HETATM   17  C   UNL     1      -8.736   5.436  68.426  1.00  0.00    -0.098 C  
HETATM   18  C   UNL     1      -8.231   6.834  68.096  1.00  0.00    -0.114 C  
BRANCH  16  19
HETATM   19  C   UNL     1     -10.718   6.142  69.800  1.00  0.00    -0.310 A  
HETATM   20  N   UNL     1     -11.934   6.703  69.874  1.00  0.00    -0.204 NA 
HETATM   21  O   UNL     1     -11.954   7.417  71.055  1.00  0.00    -0.304 OA 
HETATM   22  C   UNL     1     -10.763   7.269  71.696  1.00  0.00    -0.215 A  
HETATM   23  C   UNL     1      -9.962   6.405  70.982  1.00  0.00    -0.205 A  
HETATM   24  C   UNL     1      -8.694   6.082  71.498  1.00  0.00    -0.132 A  
HETATM   25  C   UNL     1      -8.284   6.706  72.686  1.00  0.00    -0.108 A  
HETATM   26  C   UNL     1      -9.123   7.604  73.343  1.00  0.00    -0.241 A  
HETATM   27  C   UNL     1     -10.404   7.896  72.884  1.00  0.00    -0.413 A  
HETATM   28  F   UNL     1      -8.679   8.210  74.452  1.00  0.00    -0.295 F  
ENDBRANCH  16  19
ENDBRANCH  12  13
ENDBRANCH  11  12
ENDBRANCH  10  11
ENDBRANCH   9  10
ENDBRANCH   4   9
BRANCH   6  29
HETATM   29  C   UNL     1     -11.541  15.434  64.613  1.00  0.00    -0.311 C  
HETATM   30  O   UNL     1     -12.415  15.804  63.832  1.00  0.00    -0.744 OA 
HETATM   31  C   UNL     1     -10.880  16.412  65.554  1.00  0.00    -0.224 C  
ENDBRANCH   6  29
ENDBRANCH   2   3
TORSDOF 8
ENDMDL
MODEL      130
REMARK 921   NORMALIZED FREE ENERGY PREDICTED BY IDOCK:   -5.52 KCAL/MOL
REMARK 922        TOTAL FREE ENERGY PREDICTED BY IDOCK:   -8.90 KCAL/MOL
REMARK 923 INTER-LIGAND FREE ENERGY PREDICTED BY IDOCK:   -8.39 KCAL/MOL
REMARK 924 INTRA-LIGAND FREE ENERGY PREDICTED BY IDOCK:   -0.51 KCAL/MOL
REMARK 927      BINDING AFFINITY PREDICTED BY RF-SCORE:    0.00 PKD
ROOT
HETATM    1  C   UNL     1      -7.207   9.005  70.674  1.00  0.00    -0.093 C  
HETATM    2  O   UNL     1      -8.532   8.932  71.180  1.00  0.00    -0.174 OA 
ENDROOT
BRANCH   2   3
HETATM    3  C   UNL     1      -9.318   7.894  70.745  1.00  0.00    -0.157 A  
HETATM    4  C   UNL     1     -10.672   7.948  71.123  1.00  0.00    -0.227 A  
HETATM    5  C   UNL     1     -11.542   6.931  70.725  1.00  0.00    -0.397 A  
HETATM    6  C   UNL     1      -9.740   5.814  69.559  1.00  0.00    -0.199 A  
HETATM    7  C   UNL     1      -8.864   6.833  69.953  1.00  0.00    -0.141 A  
HETATM    8  C   UNL     1     -11.082   5.874  69.936  1.00  0.00    -0.417 A  
BRANCH   4   9
HETATM    9  O   UNL     1     -11.051   9.001  71.915  1.00  0.00    -0.355 OA 
BRANCH   9  10
HETATM   10  C   UNL     1     -12.380   9.503  71.769  1.00  0.00    -0.394 C  
BRANCH  10  11
HETATM   11  C   UNL     1     -12.566  10.286  70.464  1.00  0.00    -0.338 C  
BRANCH  11  12
HETATM   12  C   UNL     1     -11.416  11.253  70.129  1.00  0.00    -0.247 C  
BRANCH  12  13
HETATM   13  N   UNL     1     -10.529  10.714  69.093  1.00  0.00    -0.210 NA 
HETATM   14  C   UNL     1      -9.689  11.740  68.461  1.00  0.00    -0.178 C  
HETATM   15  C   UNL     1      -8.638  11.082  67.544  1.00  0.00    -0.128 C  
HETATM   16  C   UNL     1      -9.238  10.062  66.554  1.00  0.00    -0.182 C  
HETATM   17  C   UNL     1     -10.175   9.125  67.334  1.00  0.00    -0.310 C  
HETATM   18  C   UNL     1     -11.231   9.924  68.086  1.00  0.00    -0.077 C  
BRANCH  16  19
HETATM   19  C   UNL     1      -9.944  10.688  65.380  1.00  0.00    -0.281 A  
HETATM   20  N   UNL     1      -9.724  10.253  64.130  1.00  0.00    -0.310 NA 
HETATM   21  O   UNL     1     -10.372  11.141  63.296  1.00  0.00    -0.356 OA 
HETATM   22  C   UNL     1     -10.994  12.093  64.043  1.00  0.00    -0.380 A  
HETATM   23  C   UNL     1     -10.820  11.814  65.381  1.00  0.00    -0.347 A  
HETATM   24  C   UNL     1     -11.424  12.660  66.328  1.00  0.00    -0.415 A  
HETATM   25  C   UNL     1     -12.123  13.784  65.862  1.00  0.00    -0.464 A  
HETATM   26  C   UNL     1     -12.230  14.038  64.496  1.00  0.00    -0.434 A  
HETATM   27  C   UNL     1     -11.691  13.185  63.538  1.00  0.00    -0.472 A  
HETATM   28  F   UNL     1     -12.870  15.144  64.093  1.00  0.00    -0.364 F  
ENDBRANCH  16  19
ENDBRANCH  12  13
ENDBRANCH  11  12
ENDBRANCH  10  11
ENDBRANCH   9  10
ENDBRANCH   4   9
BRANCH   6  29
HETATM   29  C   UNL     1      -9.196   4.694  68.743  1.00  0.00    -0.129 C  
HETATM   30  O   UNL     1      -9.140   3.565  69.228  1.00  0.00    -0.107 OA 
HETATM   31  C   UNL     1      -8.780   4.943  67.314  1.00  0.00    -0.103 C  
ENDBRANCH   6  29
ENDBRANCH   2   3
TORSDOF 8
ENDMDL
MODEL      131
REMARK 921   NORMALIZED FREE ENERGY PREDICTED BY IDOCK:   -5.52 KCAL/MOL
REMARK 922        TOTAL FREE ENERGY PREDICTED BY IDOCK:   -8.89 KCAL/MOL
REMARK 923 INTER-LIGAND FREE ENERGY PREDICTED BY IDOCK:   -8.28 KCAL/MOL
REMARK 924 INTRA-LIGAND FREE ENERGY PREDICTED BY IDOCK:   -0.61 KCAL/MOL
REMARK 927      BINDING AFFINITY PREDICTED BY RF-SCORE:    0.00 PKD
ROOT
HETATM    1  C   UNL     1     -10.766  19.358  66.222  1.00  0.00    -0.411 C  
HETATM    2  O   UNL     1     -10.155  18.150  65.792  1.00  0.00    -0.563 OA 
ENDROOT
BRANCH   2   3
HETATM    3  C   UNL     1      -9.146  17.641  66.570  1.00  0.00    -0.265 A  
HETATM    4  C   UNL     1      -8.907  16.260  66.440  1.00  0.00    -0.311 A  
HETATM    5  C   UNL     1      -7.899  15.659  67.197  1.00  0.00    -0.253 A  
HETATM    6  C   UNL     1      -7.344  17.792  68.196  1.00  0.00    -0.238 A  
HETATM    7  C   UNL     1      -8.352  18.400  67.437  1.00  0.00    -0.256 A  
HETATM    8  C   UNL     1      -7.112  16.423  68.062  1.00  0.00    -0.146 A  
BRANCH   4   9
HETATM    9  O   UNL     1      -9.731  15.568  65.590  1.00  0.00    -0.336 OA 
BRANCH   9  10
HETATM   10  C   UNL     1     -10.800  14.814  66.162  1.00  0.00    -0.321 C  
BRANCH  10  11
HETATM   11  C   UNL     1     -10.607  13.303  65.986  1.00  0.00    -0.292 C  
BRANCH  11  12
HETATM   12  C   UNL     1     -11.111  12.453  67.167  1.00  0.00    -0.280 C  
BRANCH  12  13
HETATM   13  N   UNL     1     -10.325  11.226  67.336  1.00  0.00    -0.194 NA 
HETATM   14  C   UNL     1     -11.144  10.060  67.689  1.00  0.00    -0.153 C  
HETATM   15  C   UNL     1     -10.295   8.774  67.640  1.00  0.00    -0.317 C  
HETATM   16  C   UNL     1      -8.974   8.878  68.430  1.00  0.00    -0.134 C  
HETATM   17  C   UNL     1      -8.280  10.194  68.041  1.00  0.00    -0.113 C  
HETATM   18  C   UNL     1      -9.210  11.380  68.265  1.00  0.00    -0.183 C  
BRANCH  16  19
HETATM   19  C   UNL     1      -9.142   8.770  69.923  1.00  0.00    -0.157 A  
HETATM   20  N   UNL     1      -8.402   9.516  70.757  1.00  0.00    -0.278 NA 
HETATM   21  O   UNL     1      -8.669   9.049  72.028  1.00  0.00    -0.367 OA 
HETATM   22  C   UNL     1      -9.580   8.040  71.959  1.00  0.00    -0.201 A  
HETATM   23  C   UNL     1      -9.975   7.868  70.650  1.00  0.00    -0.188 A  
HETATM   24  C   UNL     1     -10.950   6.895  70.365  1.00  0.00    -0.315 A  
HETATM   25  C   UNL     1     -11.427   6.105  71.423  1.00  0.00    -0.317 A  
HETATM   26  C   UNL     1     -10.958   6.298  72.721  1.00  0.00    -0.260 A  
HETATM   27  C   UNL     1     -10.037   7.291  73.037  1.00  0.00    -0.294 A  
HETATM   28  F   UNL     1     -11.407   5.495  73.695  1.00  0.00    -0.290 F  
ENDBRANCH  16  19
ENDBRANCH  12  13
ENDBRANCH  11  12
ENDBRANCH  10  11
ENDBRANCH   9  10
ENDBRANCH   4   9
BRANCH   6  29
HETATM   29  C   UNL     1      -6.551  18.643  69.125  1.00  0.00    -0.270 C  
HETATM   30  O   UNL     1      -5.969  18.121  70.073  1.00  0.00    -0.234 OA 
HETATM   31  C   UNL     1      -6.419  20.122  68.855  1.00  0.00    -0.346 C  
ENDBRANCH   6  29
ENDBRANCH   2   3
TORSDOF 8
ENDMDL
MODEL      132
REMARK 921   NORMALIZED FREE ENERGY PREDICTED BY IDOCK:   -5.50 KCAL/MOL
REMARK 922        TOTAL FREE ENERGY PREDICTED BY IDOCK:   -8.87 KCAL/MOL
REMARK 923 INTER-LIGAND FREE ENERGY PREDICTED BY IDOCK:   -6.99 KCAL/MOL
REMARK 924 INTRA-LIGAND FREE ENERGY PREDICTED BY IDOCK:   -1.88 KCAL/MOL
REMARK 927      BINDING AFFINITY PREDICTED BY RF-SCORE:    0.00 PKD
ROOT
HETATM    1  C   UNL     1     -11.916  13.733  66.919  1.00  0.00    -0.421 C  
HETATM    2  O   UNL     1     -11.962  12.347  66.613  1.00  0.00    -0.562 OA 
ENDROOT
BRANCH   2   3
HETATM    3  C   UNL     1     -11.630  11.469  67.614  1.00  0.00    -0.247 A  
HETATM    4  C   UNL     1     -10.699  10.471  67.273  1.00  0.00    -0.277 A  
HETATM    5  C   UNL     1     -10.307   9.534  68.232  1.00  0.00    -0.244 A  
HETATM    6  C   UNL     1     -11.741  10.582  69.876  1.00  0.00    -0.372 A  
HETATM    7  C   UNL     1     -12.134  11.526  68.919  1.00  0.00    -0.270 A  
HETATM    8  C   UNL     1     -10.816   9.596  69.532  1.00  0.00    -0.253 A  
BRANCH   4   9
HETATM    9  O   UNL     1     -10.258  10.455  65.975  1.00  0.00    -0.243 OA 
BRANCH   9  10
HETATM   10  C   UNL     1      -9.089  11.212  65.658  1.00  0.00    -0.205 C  
BRANCH  10  11
HETATM   11  C   UNL     1      -7.797  10.436  65.945  1.00  0.00    -0.148 C  
BRANCH  11  12
HETATM   12  C   UNL     1      -7.523   9.270  64.977  1.00  0.00    -0.106 C  
BRANCH  12  13
HETATM   13  N   UNL     1      -7.258   8.016  65.688  1.00  0.00    -0.070 NA 
HETATM   14  C   UNL     1      -8.480   7.291  66.056  1.00  0.00    -0.145 C  
HETATM   15  C   UNL     1      -8.131   5.892  66.603  1.00  0.00    -0.102 C  
HETATM   16  C   UNL     1      -7.055   5.915  67.709  1.00  0.00    -0.071 C  
HETATM   17  C   UNL     1      -5.889   6.796  67.231  1.00  0.00    -0.014 C  
HETATM   18  C   UNL     1      -6.383   8.183  66.845  1.00  0.00    -0.056 C  
BRANCH  16  19
HETATM   19  C   UNL     1      -7.566   6.367  69.052  1.00  0.00    -0.100 A  
HETATM   20  N   UNL     1      -6.723   6.799  70.002  1.00  0.00    -0.048 NA 
HETATM   21  O   UNL     1      -7.481   6.957  71.144  1.00  0.00    -0.080 OA 
HETATM   22  C   UNL     1      -8.777   6.641  70.876  1.00  0.00    -0.138 A  
HETATM   23  C   UNL     1      -8.907   6.330  69.540  1.00  0.00    -0.135 A  
HETATM   24  C   UNL     1     -10.184   6.013  69.044  1.00  0.00    -0.245 A  
HETATM   25  C   UNL     1     -11.254   5.968  69.951  1.00  0.00    -0.438 A  
HETATM   26  C   UNL     1     -11.054   6.252  71.301  1.00  0.00    -0.289 A  
HETATM   27  C   UNL     1      -9.812   6.624  71.805  1.00  0.00    -0.171 A  
HETATM   28  F   UNL     1     -12.093   6.157  72.141  1.00  0.00    -0.359 F  
ENDBRANCH  16  19
ENDBRANCH  12  13
ENDBRANCH  11  12
ENDBRANCH  10  11
ENDBRANCH   9  10
ENDBRANCH   4   9
BRANCH   6  29
HETATM   29  C   UNL     1     -12.332  10.673  71.239  1.00  0.00    -0.383 C  
HETATM   30  O   UNL     1     -12.235   9.715  72.004  1.00  0.00    -0.354 OA 
HETATM   31  C   UNL     1     -12.986  11.957  71.687  1.00  0.00    -0.447 C  
ENDBRANCH   6  29
ENDBRANCH   2   3
TORSDOF 8
ENDMDL
MODEL      133
REMARK 921   NORMALIZED FREE ENERGY PREDICTED BY IDOCK:   -5.50 KCAL/MOL
REMARK 922        TOTAL FREE ENERGY PREDICTED BY IDOCK:   -8.86 KCAL/MOL
REMARK 923 INTER-LIGAND FREE ENERGY PREDICTED BY IDOCK:   -7.92 KCAL/MOL
REMARK 924 INTRA-LIGAND FREE ENERGY PREDICTED BY IDOCK:   -0.94 KCAL/MOL
REMARK 927      BINDING AFFINITY PREDICTED BY RF-SCORE:    0.00 PKD
ROOT
HETATM    1  C   UNL     1     -11.400  11.421  69.541  1.00  0.00    -0.289 C  
HETATM    2  O   UNL     1     -10.287  11.138  68.706  1.00  0.00    -0.191 OA 
ENDROOT
BRANCH   2   3
HETATM    3  C   UNL     1     -10.227   9.892  68.135  1.00  0.00    -0.179 A  
HETATM    4  C   UNL     1      -9.941   9.860  66.758  1.00  0.00    -0.214 A  
HETATM    5  C   UNL     1      -9.863   8.633  66.096  1.00  0.00    -0.269 A  
HETATM    6  C   UNL     1     -10.329   7.462  68.162  1.00  0.00    -0.235 A  
HETATM    7  C   UNL     1     -10.405   8.691  68.831  1.00  0.00    -0.228 A  
HETATM    8  C   UNL     1     -10.044   7.437  66.797  1.00  0.00    -0.305 A  
BRANCH   4   9
HETATM    9  O   UNL     1      -9.796  11.070  66.129  1.00  0.00    -0.209 OA 
BRANCH   9  10
HETATM   10  C   UNL     1     -10.500  11.273  64.903  1.00  0.00    -0.314 C  
BRANCH  10  11
HETATM   11  C   UNL     1     -11.366  12.537  64.931  1.00  0.00    -0.351 C  
BRANCH  11  12
HETATM   12  C   UNL     1     -11.591  13.127  66.336  1.00  0.00    -0.349 C  
BRANCH  12  13
HETATM   13  N   UNL     1     -11.476  14.589  66.343  1.00  0.00    -0.354 NA 
HETATM   14  C   UNL     1     -10.845  15.124  65.130  1.00  0.00    -0.422 C  
HETATM   15  C   UNL     1     -10.950  16.663  65.105  1.00  0.00    -0.160 C  
HETATM   16  C   UNL     1     -10.473  17.332  66.411  1.00  0.00    -0.263 C  
HETATM   17  C   UNL     1     -11.127  16.602  67.596  1.00  0.00    -0.107 C  
HETATM   18  C   UNL     1     -10.825  15.110  67.541  1.00  0.00    -0.301 C  
BRANCH  16  19
HETATM   19  C   UNL     1      -8.975  17.387  66.561  1.00  0.00    -0.260 A  
HETATM   20  N   UNL     1      -8.175  16.655  65.773  1.00  0.00    -0.221 NA 
HETATM   21  O   UNL     1      -6.901  16.795  66.285  1.00  0.00    -0.161 OA 
HETATM   22  C   UNL     1      -6.934  17.623  67.364  1.00  0.00    -0.168 A  
HETATM   23  C   UNL     1      -8.217  18.092  67.543  1.00  0.00    -0.236 A  
HETATM   24  C   UNL     1      -8.460  19.002  68.588  1.00  0.00    -0.394 A  
HETATM   25  C   UNL     1      -7.393  19.339  69.435  1.00  0.00    -0.213 A  
HETATM   26  C   UNL     1      -6.125  18.799  69.229  1.00  0.00    -0.253 A  
HETATM   27  C   UNL     1      -5.846  17.942  68.169  1.00  0.00    -0.170 A  
HETATM   28  F   UNL     1      -5.143  19.112  70.085  1.00  0.00    -0.181 F  
ENDBRANCH  16  19
ENDBRANCH  12  13
ENDBRANCH  11  12
ENDBRANCH  10  11
ENDBRANCH   9  10
ENDBRANCH   4   9
BRANCH   6  29
HETATM   29  C   UNL     1     -10.557   6.218  68.947  1.00  0.00    -0.268 C  
HETATM   30  O   UNL     1     -11.497   6.168  69.738  1.00  0.00    -0.433 OA 
HETATM   31  C   UNL     1      -9.675   5.016  68.717  1.00  0.00    -0.226 C  
ENDBRANCH   6  29
ENDBRANCH   2   3
TORSDOF 8
ENDMDL
MODEL      134
REMARK 921   NORMALIZED FREE ENERGY PREDICTED BY IDOCK:   -5.49 KCAL/MOL
REMARK 922        TOTAL FREE ENERGY PREDICTED BY IDOCK:   -8.85 KCAL/MOL
REMARK 923 INTER-LIGAND FREE ENERGY PREDICTED BY IDOCK:   -8.69 KCAL/MOL
REMARK 924 INTRA-LIGAND FREE ENERGY PREDICTED BY IDOCK:   -0.16 KCAL/MOL
REMARK 927      BINDING AFFINITY PREDICTED BY RF-SCORE:    0.00 PKD
ROOT
HETATM    1  C   UNL     1      -8.690  12.646  68.012  1.00  0.00    -0.190 C  
HETATM    2  O   UNL     1      -9.489  11.853  67.145  1.00  0.00    -0.174 OA 
ENDROOT
BRANCH   2   3
HETATM    3  C   UNL     1     -10.081  12.484  66.080  1.00  0.00    -0.251 A  
HETATM    4  C   UNL     1     -10.530  11.647  65.042  1.00  0.00    -0.285 A  
HETATM    5  C   UNL     1     -11.144  12.206  63.919  1.00  0.00    -0.470 A  
HETATM    6  C   UNL     1     -10.891  14.423  64.855  1.00  0.00    -0.430 A  
HETATM    7  C   UNL     1     -10.278  13.866  65.986  1.00  0.00    -0.317 A  
HETATM    8  C   UNL     1     -11.334  13.587  63.830  1.00  0.00    -0.225 A  
BRANCH   4   9
HETATM    9  O   UNL     1     -10.291  10.304  65.184  1.00  0.00    -0.286 OA 
BRANCH   9  10
HETATM   10  C   UNL     1      -9.322   9.704  64.325  1.00  0.00    -0.114 C  
BRANCH  10  11
HETATM   11  C   UNL     1      -8.493   8.631  65.041  1.00  0.00    -0.192 C  
BRANCH  11  12
HETATM   12  C   UNL     1      -8.480   8.753  66.576  1.00  0.00    -0.116 C  
BRANCH  12  13
HETATM   13  N   UNL     1      -9.068   7.576  67.226  1.00  0.00    -0.122 NA 
HETATM   14  C   UNL     1     -10.523   7.676  67.393  1.00  0.00    -0.297 C  
HETATM   15  C   UNL     1     -11.100   6.332  67.880  1.00  0.00    -0.360 C  
HETATM   16  C   UNL     1     -10.363   5.753  69.106  1.00  0.00    -0.316 C  
HETATM   17  C   UNL     1      -8.851   5.812  68.833  1.00  0.00    -0.110 C  
HETATM   18  C   UNL     1      -8.421   7.231  68.488  1.00  0.00    -0.125 C  
BRANCH  16  19
HETATM   19  C   UNL     1     -10.710   6.430  70.406  1.00  0.00    -0.262 A  
HETATM   20  N   UNL     1     -10.605   5.777  71.573  1.00  0.00    -0.238 NA 
HETATM   21  O   UNL     1     -11.163   6.605  72.526  1.00  0.00    -0.253 OA 
HETATM   22  C   UNL     1     -11.583   7.757  71.937  1.00  0.00    -0.287 A  
HETATM   23  C   UNL     1     -11.253   7.735  70.599  1.00  0.00    -0.278 A  
HETATM   24  C   UNL     1     -11.564   8.859  69.812  1.00  0.00     0.296 A  
HETATM   25  C   UNL     1     -12.251   9.922  70.417  1.00  0.00    -0.190 A  
HETATM   26  C   UNL     1     -12.596   9.869  71.766  1.00  0.00    -0.414 A  
HETATM   27  C   UNL     1     -12.249   8.795  72.579  1.00  0.00    -0.347 A  
HETATM   28  F   UNL     1     -13.289  10.886  72.295  1.00  0.00    -0.560 F  
ENDBRANCH  16  19
ENDBRANCH  12  13
ENDBRANCH  11  12
ENDBRANCH  10  11
ENDBRANCH   9  10
ENDBRANCH   4   9
BRANCH   6  29
HETATM   29  C   UNL     1     -11.046  15.902  64.795  1.00  0.00    -0.384 C  
HETATM   30  O   UNL     1     -11.687  16.405  63.874  1.00  0.00    -1.085 OA 
HETATM   31  C   UNL     1     -10.471  16.760  65.895  1.00  0.00    -0.311 C  
ENDBRANCH   6  29
ENDBRANCH   2   3
TORSDOF 8
ENDMDL
MODEL      135
REMARK 921   NORMALIZED FREE ENERGY PREDICTED BY IDOCK:   -5.49 KCAL/MOL
REMARK 922        TOTAL FREE ENERGY PREDICTED BY IDOCK:   -8.85 KCAL/MOL
REMARK 923 INTER-LIGAND FREE ENERGY PREDICTED BY IDOCK:   -6.94 KCAL/MOL
REMARK 924 INTRA-LIGAND FREE ENERGY PREDICTED BY IDOCK:   -1.91 KCAL/MOL
REMARK 927      BINDING AFFINITY PREDICTED BY RF-SCORE:    0.00 PKD
ROOT
HETATM    1  C   UNL     1     -11.504  15.493  70.102  1.00  0.00    -0.327 C  
HETATM    2  O   UNL     1     -12.023  14.768  68.996  1.00  0.00    -0.305 OA 
ENDROOT
BRANCH   2   3
HETATM    3  C   UNL     1     -11.850  13.407  68.996  1.00  0.00    -0.335 A  
HETATM    4  C   UNL     1     -11.347  12.851  67.805  1.00  0.00    -0.299 A  
HETATM    5  C   UNL     1     -11.143  11.472  67.718  1.00  0.00    -0.319 A  
HETATM    6  C   UNL     1     -11.910  11.191  69.995  1.00  0.00    -0.441 A  
HETATM    7  C   UNL     1     -12.114  12.574  70.089  1.00  0.00    -0.368 A  
HETATM    8  C   UNL     1     -11.411  10.646  68.812  1.00  0.00    -0.330 A  
BRANCH   4   9
HETATM    9  O   UNL     1     -11.127  13.716  66.765  1.00  0.00    -0.299 OA 
BRANCH   9  10
HETATM   10  C   UNL     1      -9.774  13.990  66.399  1.00  0.00    -0.296 C  
BRANCH  10  11
HETATM   11  C   UNL     1      -8.822  13.926  67.600  1.00  0.00    -0.191 C  
BRANCH  11  12
HETATM   12  C   UNL     1      -7.343  13.704  67.232  1.00  0.00    -0.007 C  
BRANCH  12  13
HETATM   13  N   UNL     1      -6.854  12.398  67.686  1.00  0.00    -0.116 NA 
HETATM   14  C   UNL     1      -6.469  11.510  66.582  1.00  0.00    -0.090 C  
HETATM   15  C   UNL     1      -5.769  10.249  67.127  1.00  0.00    -0.045 C  
HETATM   16  C   UNL     1      -6.555   9.547  68.253  1.00  0.00    -0.057 C  
HETATM   17  C   UNL     1      -6.986  10.611  69.277  1.00  0.00    -0.096 C  
HETATM   18  C   UNL     1      -7.773  11.724  68.599  1.00  0.00    -0.126 C  
BRANCH  16  19
HETATM   19  C   UNL     1      -7.735   8.744  67.771  1.00  0.00    -0.102 A  
HETATM   20  N   UNL     1      -8.140   8.812  66.494  1.00  0.00    -0.102 NA 
HETATM   21  O   UNL     1      -9.329   8.113  66.432  1.00  0.00    -0.187 OA 
HETATM   22  C   UNL     1      -9.625   7.612  67.662  1.00  0.00    -0.145 A  
HETATM   23  C   UNL     1      -8.608   7.918  68.540  1.00  0.00    -0.128 A  
HETATM   24  C   UNL     1      -8.700   7.452  69.864  1.00  0.00    -0.141 A  
HETATM   25  C   UNL     1      -9.856   6.751  70.241  1.00  0.00    -0.185 A  
HETATM   26  C   UNL     1     -10.872   6.508  69.318  1.00  0.00    -0.307 A  
HETATM   27  C   UNL     1     -10.779   6.908  67.989  1.00  0.00    -0.276 A  
HETATM   28  F   UNL     1     -11.977   5.873  69.728  1.00  0.00    -0.187 F  
ENDBRANCH  16  19
ENDBRANCH  12  13
ENDBRANCH  11  12
ENDBRANCH  10  11
ENDBRANCH   9  10
ENDBRANCH   4   9
BRANCH   6  29
HETATM   29  C   UNL     1     -12.238  10.349  71.179  1.00  0.00    -0.394 C  
HETATM   30  O   UNL     1     -13.379  10.371  71.638  1.00  0.00    -0.376 OA 
HETATM   31  C   UNL     1     -11.189   9.434  71.759  1.00  0.00    -0.359 C  
ENDBRANCH   6  29
ENDBRANCH   2   3
TORSDOF 8
ENDMDL
MODEL      136
REMARK 921   NORMALIZED FREE ENERGY PREDICTED BY IDOCK:   -5.46 KCAL/MOL
REMARK 922        TOTAL FREE ENERGY PREDICTED BY IDOCK:   -8.81 KCAL/MOL
REMARK 923 INTER-LIGAND FREE ENERGY PREDICTED BY IDOCK:   -7.84 KCAL/MOL
REMARK 924 INTRA-LIGAND FREE ENERGY PREDICTED BY IDOCK:   -0.97 KCAL/MOL
REMARK 927      BINDING AFFINITY PREDICTED BY RF-SCORE:    0.00 PKD
ROOT
HETATM    1  C   UNL     1      -8.177   7.629  62.497  1.00  0.00    -0.081 C  
HETATM    2  O   UNL     1      -7.380   8.018  63.606  1.00  0.00    -0.094 OA 
ENDROOT
BRANCH   2   3
HETATM    3  C   UNL     1      -7.727   7.524  64.838  1.00  0.00    -0.115 A  
HETATM    4  C   UNL     1      -7.528   8.393  65.927  1.00  0.00    -0.081 A  
HETATM    5  C   UNL     1      -7.853   7.970  67.217  1.00  0.00    -0.109 A  
HETATM    6  C   UNL     1      -8.593   5.833  66.356  1.00  0.00    -0.125 A  
HETATM    7  C   UNL     1      -8.272   6.254  65.059  1.00  0.00    -0.132 A  
HETATM    8  C   UNL     1      -8.395   6.699  67.431  1.00  0.00    -0.121 A  
BRANCH   4   9
HETATM    9  O   UNL     1      -6.974   9.616  65.649  1.00  0.00    -0.088 OA 
BRANCH   9  10
HETATM   10  C   UNL     1      -7.634  10.778  66.149  1.00  0.00    -0.139 C  
BRANCH  10  11
HETATM   11  C   UNL     1      -6.827  11.478  67.250  1.00  0.00    -0.118 C  
BRANCH  11  12
HETATM   12  C   UNL     1      -7.631  11.807  68.521  1.00  0.00    -0.131 C  
BRANCH  12  13
HETATM   13  N   UNL     1      -9.070  11.595  68.332  1.00  0.00    -0.185 NA 
HETATM   14  C   UNL     1      -9.841  12.844  68.323  1.00  0.00    -0.228 C  
HETATM   15  C   UNL     1     -11.301  12.570  67.909  1.00  0.00    -0.343 C  
HETATM   16  C   UNL     1     -11.962  11.427  68.706  1.00  0.00    -0.353 C  
HETATM   17  C   UNL     1     -11.000  10.228  68.723  1.00  0.00    -0.285 C  
HETATM   18  C   UNL     1      -9.640  10.637  69.274  1.00  0.00    -0.144 C  
BRANCH  16  19
HETATM   19  C   UNL     1     -12.379  11.813  70.102  1.00  0.00    -0.195 A  
HETATM   20  N   UNL     1     -12.684  10.879  71.014  1.00  0.00    -0.390 NA 
HETATM   21  O   UNL     1     -13.189  11.559  72.104  1.00  0.00    -0.505 OA 
HETATM   22  C   UNL     1     -13.170  12.896  71.853  1.00  0.00    -0.423 A  
HETATM   23  C   UNL     1     -12.594  13.124  70.623  1.00  0.00    -0.286 A  
HETATM   24  C   UNL     1     -12.439  14.453  70.189  1.00  0.00    -0.395 A  
HETATM   25  C   UNL     1     -12.937  15.479  71.007  1.00  0.00    -0.550 A  
HETATM   26  C   UNL     1     -13.548  15.184  72.224  1.00  0.00    -0.462 A  
HETATM   27  C   UNL     1     -13.662  13.882  72.701  1.00  0.00    -0.582 A  
HETATM   28  F   UNL     1     -14.048  16.189  72.955  1.00  0.00    -0.686 F  
ENDBRANCH  16  19
ENDBRANCH  12  13
ENDBRANCH  11  12
ENDBRANCH  10  11
ENDBRANCH   9  10
ENDBRANCH   4   9
BRANCH   6  29
HETATM   29  C   UNL     1      -9.141   4.460  66.535  1.00  0.00    -0.123 C  
HETATM   30  O   UNL     1      -9.516   3.827  65.549  1.00  0.00    -0.155 OA 
HETATM   31  C   UNL     1      -9.169   3.840  67.909  1.00  0.00    -0.218 C  
ENDBRANCH   6  29
ENDBRANCH   2   3
TORSDOF 8
ENDMDL
MODEL      137
REMARK 921   NORMALIZED FREE ENERGY PREDICTED BY IDOCK:   -5.45 KCAL/MOL
REMARK 922        TOTAL FREE ENERGY PREDICTED BY IDOCK:   -8.80 KCAL/MOL
REMARK 923 INTER-LIGAND FREE ENERGY PREDICTED BY IDOCK:   -7.87 KCAL/MOL
REMARK 924 INTRA-LIGAND FREE ENERGY PREDICTED BY IDOCK:   -0.93 KCAL/MOL
REMARK 927      BINDING AFFINITY PREDICTED BY RF-SCORE:    0.00 PKD
ROOT
HETATM    1  C   UNL     1      -7.981  14.395  68.502  1.00  0.00    -0.144 C  
HETATM    2  O   UNL     1      -8.819  14.065  67.405  1.00  0.00    -0.185 OA 
ENDROOT
BRANCH   2   3
HETATM    3  C   UNL     1      -9.440  15.100  66.751  1.00  0.00    -0.242 A  
HETATM    4  C   UNL     1     -10.318  14.734  65.715  1.00  0.00    -0.340 A  
HETATM    5  C   UNL     1     -10.991  15.725  64.996  1.00  0.00    -0.431 A  
HETATM    6  C   UNL     1      -9.945  17.443  66.340  1.00  0.00    -0.322 A  
HETATM    7  C   UNL     1      -9.271  16.453  67.067  1.00  0.00    -0.236 A  
HETATM    8  C   UNL     1     -10.815  17.074  65.315  1.00  0.00    -0.079 A  
BRANCH   4   9
HETATM    9  O   UNL     1     -10.427  13.395  65.441  1.00  0.00    -0.286 OA 
BRANCH   9  10
HETATM   10  C   UNL     1     -11.663  12.748  65.746  1.00  0.00    -0.402 C  
BRANCH  10  11
HETATM   11  C   UNL     1     -11.517  11.712  66.867  1.00  0.00    -0.320 C  
BRANCH  11  12
HETATM   12  C   UNL     1     -11.555  12.300  68.290  1.00  0.00    -0.331 C  
BRANCH  12  13
HETATM   13  N   UNL     1     -10.885  11.430  69.262  1.00  0.00    -0.219 NA 
HETATM   14  C   UNL     1      -9.708  10.749  68.712  1.00  0.00    -0.192 C  
HETATM   15  C   UNL     1      -8.933  10.026  69.833  1.00  0.00    -0.178 C  
HETATM   16  C   UNL     1      -9.825   9.129  70.716  1.00  0.00    -0.334 C  
HETATM   17  C   UNL     1     -11.067   9.936  71.127  1.00  0.00    -0.359 C  
HETATM   18  C   UNL     1     -11.788  10.477  69.900  1.00  0.00    -0.282 C  
BRANCH  16  19
HETATM   19  C   UNL     1     -10.210   7.823  70.073  1.00  0.00    -0.210 A  
HETATM   20  N   UNL     1     -11.472   7.373  70.126  1.00  0.00    -0.187 NA 
HETATM   21  O   UNL     1     -11.444   6.092  69.611  1.00  0.00    -0.429 OA 
HETATM   22  C   UNL     1     -10.175   5.783  69.233  1.00  0.00    -0.226 A  
HETATM   23  C   UNL     1      -9.357   6.874  69.433  1.00  0.00    -0.146 A  
HETATM   24  C   UNL     1      -8.003   6.776  69.064  1.00  0.00    -0.116 A  
HETATM   25  C   UNL     1      -7.539   5.549  68.568  1.00  0.00    -0.084 A  
HETATM   26  C   UNL     1      -8.405   4.466  68.427  1.00  0.00    -0.089 A  
HETATM   27  C   UNL     1      -9.760   4.555  68.730  1.00  0.00    -0.213 A  
HETATM   28  F   UNL     1      -7.914   3.299  67.989  1.00  0.00    -0.068 F  
ENDBRANCH  16  19
ENDBRANCH  12  13
ENDBRANCH  11  12
ENDBRANCH  10  11
ENDBRANCH   9  10
ENDBRANCH   4   9
BRANCH   6  29
HETATM   29  C   UNL     1      -9.703  18.867  66.700  1.00  0.00    -0.347 C  
HETATM   30  O   UNL     1      -8.866  19.139  67.558  1.00  0.00    -0.289 OA 
HETATM   31  C   UNL     1     -10.438  19.960  65.964  1.00  0.00    -0.580 C  
ENDBRANCH   6  29
ENDBRANCH   2   3
TORSDOF 8
ENDMDL
MODEL      138
REMARK 921   NORMALIZED FREE ENERGY PREDICTED BY IDOCK:   -5.45 KCAL/MOL
REMARK 922        TOTAL FREE ENERGY PREDICTED BY IDOCK:   -8.80 KCAL/MOL
REMARK 923 INTER-LIGAND FREE ENERGY PREDICTED BY IDOCK:   -7.67 KCAL/MOL
REMARK 924 INTRA-LIGAND FREE ENERGY PREDICTED BY IDOCK:   -1.13 KCAL/MOL
REMARK 927      BINDING AFFINITY PREDICTED BY RF-SCORE:    0.00 PKD
ROOT
HETATM    1  C   UNL     1     -10.393  17.696  67.200  1.00  0.00    -0.343 C  
HETATM    2  O   UNL     1     -10.762  16.394  66.771  1.00  0.00    -0.281 OA 
ENDROOT
BRANCH   2   3
HETATM    3  C   UNL     1     -11.265  15.536  67.716  1.00  0.00    -0.302 A  
HETATM    4  C   UNL     1     -11.308  14.177  67.352  1.00  0.00    -0.327 A  
HETATM    5  C   UNL     1     -11.808  13.236  68.255  1.00  0.00    -0.389 A  
HETATM    6  C   UNL     1     -12.202  14.976  69.889  1.00  0.00    -0.351 A  
HETATM    7  C   UNL     1     -11.699  15.924  68.989  1.00  0.00    -0.377 A  
HETATM    8  C   UNL     1     -12.242  13.631  69.523  1.00  0.00    -0.316 A  
BRANCH   4   9
HETATM    9  O   UNL     1     -10.888  13.863  66.086  1.00  0.00    -0.288 OA 
BRANCH   9  10
HETATM   10  C   UNL     1     -11.610  12.860  65.372  1.00  0.00    -0.350 C  
BRANCH  10  11
HETATM   11  C   UNL     1     -10.921  11.492  65.430  1.00  0.00    -0.288 C  
BRANCH  11  12
HETATM   12  C   UNL     1      -9.395  11.554  65.629  1.00  0.00    -0.204 C  
BRANCH  12  13
HETATM   13  N   UNL     1      -9.014  11.324  67.027  1.00  0.00    -0.151 NA 
HETATM   14  C   UNL     1      -7.573  11.104  67.203  1.00  0.00    -0.125 C  
HETATM   15  C   UNL     1      -7.213  11.085  68.702  1.00  0.00    -0.091 C  
HETATM   16  C   UNL     1      -8.101  10.138  69.536  1.00  0.00    -0.176 C  
HETATM   17  C   UNL     1      -9.570  10.405  69.169  1.00  0.00    -0.226 C  
HETATM   18  C   UNL     1      -9.785  10.263  67.668  1.00  0.00    -0.164 C  
BRANCH  16  19
HETATM   19  C   UNL     1      -7.756   8.680  69.383  1.00  0.00    -0.091 A  
HETATM   20  N   UNL     1      -6.640   8.297  68.744  1.00  0.00    -0.052 NA 
HETATM   21  O   UNL     1      -6.719   6.925  68.625  1.00  0.00    -0.055 OA 
HETATM   22  C   UNL     1      -7.867   6.483  69.207  1.00  0.00    -0.110 A  
HETATM   23  C   UNL     1      -8.533   7.548  69.774  1.00  0.00    -0.135 A  
HETATM   24  C   UNL     1      -9.731   7.299  70.467  1.00  0.00    -0.176 A  
HETATM   25  C   UNL     1     -10.221   5.984  70.493  1.00  0.00    -0.262 A  
HETATM   26  C   UNL     1      -9.524   4.955  69.864  1.00  0.00    -0.160 A  
HETATM   27  C   UNL     1      -8.308   5.165  69.221  1.00  0.00    -0.087 A  
HETATM   28  F   UNL     1     -10.047   3.721  69.875  1.00  0.00    -0.248 F  
ENDBRANCH  16  19
ENDBRANCH  12  13
ENDBRANCH  11  12
ENDBRANCH  10  11
ENDBRANCH   9  10
ENDBRANCH   4   9
BRANCH   6  29
HETATM   29  C   UNL     1     -12.678  15.450  71.217  1.00  0.00    -0.436 C  
HETATM   30  O   UNL     1     -13.873  15.695  71.378  1.00  0.00    -0.537 OA 
HETATM   31  C   UNL     1     -11.705  15.562  72.365  1.00  0.00    -0.570 C  
ENDBRANCH   6  29
ENDBRANCH   2   3
TORSDOF 8
ENDMDL
MODEL      139
REMARK 921   NORMALIZED FREE ENERGY PREDICTED BY IDOCK:   -5.45 KCAL/MOL
REMARK 922        TOTAL FREE ENERGY PREDICTED BY IDOCK:   -8.79 KCAL/MOL
REMARK 923 INTER-LIGAND FREE ENERGY PREDICTED BY IDOCK:   -7.48 KCAL/MOL
REMARK 924 INTRA-LIGAND FREE ENERGY PREDICTED BY IDOCK:   -1.31 KCAL/MOL
REMARK 927      BINDING AFFINITY PREDICTED BY RF-SCORE:    0.00 PKD
ROOT
HETATM    1  C   UNL     1     -10.640   6.547  67.213  1.00  0.00    -0.315 C  
HETATM    2  O   UNL     1      -9.665   6.326  68.222  1.00  0.00    -0.119 OA 
ENDROOT
BRANCH   2   3
HETATM    3  C   UNL     1      -9.869   6.927  69.439  1.00  0.00    -0.158 A  
HETATM    4  C   UNL     1      -8.715   7.389  70.097  1.00  0.00    -0.143 A  
HETATM    5  C   UNL     1      -8.832   8.011  71.342  1.00  0.00    -0.170 A  
HETATM    6  C   UNL     1     -11.235   7.740  71.279  1.00  0.00    -0.280 A  
HETATM    7  C   UNL     1     -11.124   7.118  70.028  1.00  0.00    -0.288 A  
HETATM    8  C   UNL     1     -10.088   8.197  71.926  1.00  0.00    -0.285 A  
BRANCH   4   9
HETATM    9  O   UNL     1      -7.514   7.154  69.478  1.00  0.00    -0.090 OA 
BRANCH   9  10
HETATM   10  C   UNL     1      -6.987   8.177  68.634  1.00  0.00    -0.068 C  
BRANCH  10  11
HETATM   11  C   UNL     1      -6.815   9.510  69.372  1.00  0.00    -0.049 C  
BRANCH  11  12
HETATM   12  C   UNL     1      -7.120  10.756  68.520  1.00  0.00    -0.070 C  
BRANCH  12  13
HETATM   13  N   UNL     1      -8.487  10.737  67.987  1.00  0.00    -0.121 NA 
HETATM   14  C   UNL     1      -8.733  11.788  66.993  1.00  0.00    -0.181 C  
HETATM   15  C   UNL     1     -10.106  11.580  66.321  1.00  0.00    -0.261 C  
HETATM   16  C   UNL     1     -11.259  11.381  67.327  1.00  0.00    -0.370 C  
HETATM   17  C   UNL     1     -10.819  10.338  68.367  1.00  0.00    -0.288 C  
HETATM   18  C   UNL     1      -9.511  10.753  69.027  1.00  0.00    -0.166 C  
BRANCH  16  19
HETATM   19  C   UNL     1     -11.720  12.653  67.990  1.00  0.00    -0.350 A  
HETATM   20  N   UNL     1     -11.605  13.836  67.369  1.00  0.00    -0.341 NA 
HETATM   21  O   UNL     1     -11.944  14.793  68.304  1.00  0.00    -0.298 OA 
HETATM   22  C   UNL     1     -12.279  14.186  69.475  1.00  0.00    -0.305 A  
HETATM   23  C   UNL     1     -12.229  12.818  69.313  1.00  0.00    -0.104 A  
HETATM   24  C   UNL     1     -12.584  11.999  70.400  1.00  0.00    -0.128 A  
HETATM   25  C   UNL     1     -12.912  12.618  71.616  1.00  0.00    -0.400 A  
HETATM   26  C   UNL     1     -12.905  14.007  71.731  1.00  0.00    -0.340 A  
HETATM   27  C   UNL     1     -12.613  14.839  70.656  1.00  0.00    -0.414 A  
HETATM   28  F   UNL     1     -13.183  14.558  72.921  1.00  0.00    -0.451 F  
ENDBRANCH  16  19
ENDBRANCH  12  13
ENDBRANCH  11  12
ENDBRANCH  10  11
ENDBRANCH   9  10
ENDBRANCH   4   9
BRANCH   6  29
HETATM   29  C   UNL     1     -12.593   7.890  71.872  1.00  0.00    -0.319 C  
HETATM   30  O   UNL     1     -12.756   8.657  72.819  1.00  0.00    -0.319 OA 
HETATM   31  C   UNL     1     -13.760   7.151  71.265  1.00  0.00    -0.293 C  
ENDBRANCH   6  29
ENDBRANCH   2   3
TORSDOF 8
ENDMDL
MODEL      140
REMARK 921   NORMALIZED FREE ENERGY PREDICTED BY IDOCK:   -5.44 KCAL/MOL
REMARK 922        TOTAL FREE ENERGY PREDICTED BY IDOCK:   -8.78 KCAL/MOL
REMARK 923 INTER-LIGAND FREE ENERGY PREDICTED BY IDOCK:   -8.23 KCAL/MOL
REMARK 924 INTRA-LIGAND FREE ENERGY PREDICTED BY IDOCK:   -0.55 KCAL/MOL
REMARK 927      BINDING AFFINITY PREDICTED BY RF-SCORE:    0.00 PKD
ROOT
HETATM    1  C   UNL     1     -10.486   6.223  67.057  1.00  0.00    -0.278 C  
HETATM    2  O   UNL     1     -11.112   7.130  67.953  1.00  0.00    -0.118 OA 
ENDROOT
BRANCH   2   3
HETATM    3  C   UNL     1     -10.698   7.113  69.261  1.00  0.00    -0.215 A  
HETATM    4  C   UNL     1     -10.412   8.367  69.832  1.00  0.00    -0.222 A  
HETATM    5  C   UNL     1      -9.982   8.441  71.159  1.00  0.00    -0.245 A  
HETATM    6  C   UNL     1     -10.137   6.035  71.368  1.00  0.00    -0.236 A  
HETATM    7  C   UNL     1     -10.572   5.956  70.038  1.00  0.00    -0.364 A  
HETATM    8  C   UNL     1      -9.857   7.281  71.928  1.00  0.00    -0.180 A  
BRANCH   4   9
HETATM    9  O   UNL     1     -10.535   9.460  69.014  1.00  0.00    -0.208 OA 
BRANCH   9  10
HETATM   10  C   UNL     1     -10.975  10.686  69.600  1.00  0.00    -0.278 C  
BRANCH  10  11
HETATM   11  C   UNL     1     -11.802  11.533  68.626  1.00  0.00    -0.382 C  
BRANCH  11  12
HETATM   12  C   UNL     1     -11.671  13.054  68.832  1.00  0.00    -0.328 C  
BRANCH  12  13
HETATM   13  N   UNL     1     -10.877  13.686  67.773  1.00  0.00    -0.250 NA 
HETATM   14  C   UNL     1      -9.526  14.059  68.210  1.00  0.00    -0.216 C  
HETATM   15  C   UNL     1      -8.679  14.515  67.005  1.00  0.00    -0.256 C  
HETATM   16  C   UNL     1      -9.375  15.580  66.132  1.00  0.00    -0.380 C  
HETATM   17  C   UNL     1     -10.810  15.108  65.845  1.00  0.00    -0.342 C  
HETATM   18  C   UNL     1     -11.551  14.817  67.143  1.00  0.00    -0.359 C  
BRANCH  16  19
HETATM   19  C   UNL     1      -9.365  16.964  66.727  1.00  0.00    -0.251 A  
HETATM   20  N   UNL     1     -10.236  17.898  66.318  1.00  0.00    -0.375 NA 
HETATM   21  O   UNL     1      -9.843  19.077  66.919  1.00  0.00    -0.303 OA 
HETATM   22  C   UNL     1      -8.753  18.847  67.700  1.00  0.00    -0.288 A  
HETATM   23  C   UNL     1      -8.447  17.504  67.677  1.00  0.00    -0.215 A  
HETATM   24  C   UNL     1      -7.370  17.047  68.458  1.00  0.00    -0.220 A  
HETATM   25  C   UNL     1      -6.621  17.994  69.174  1.00  0.00    -0.253 A  
HETATM   26  C   UNL     1      -6.953  19.346  69.124  1.00  0.00    -0.355 A  
HETATM   27  C   UNL     1      -8.048  19.816  68.406  1.00  0.00    -0.305 A  
HETATM   28  F   UNL     1      -6.188  20.224  69.788  1.00  0.00    -0.334 F  
ENDBRANCH  16  19
ENDBRANCH  12  13
ENDBRANCH  11  12
ENDBRANCH  10  11
ENDBRANCH   9  10
ENDBRANCH   4   9
BRANCH   6  29
HETATM   29  C   UNL     1      -9.993   4.769  72.138  1.00  0.00    -0.179 C  
HETATM   30  O   UNL     1     -10.935   4.364  72.816  1.00  0.00    -0.172 OA 
HETATM   31  C   UNL     1      -8.719   3.968  72.026  1.00  0.00    -0.124 C  
ENDBRANCH   6  29
ENDBRANCH   2   3
TORSDOF 8
ENDMDL
MODEL      141
REMARK 921   NORMALIZED FREE ENERGY PREDICTED BY IDOCK:   -5.43 KCAL/MOL
REMARK 922        TOTAL FREE ENERGY PREDICTED BY IDOCK:   -8.76 KCAL/MOL
REMARK 923 INTER-LIGAND FREE ENERGY PREDICTED BY IDOCK:   -7.13 KCAL/MOL
REMARK 924 INTRA-LIGAND FREE ENERGY PREDICTED BY IDOCK:   -1.63 KCAL/MOL
REMARK 927      BINDING AFFINITY PREDICTED BY RF-SCORE:    0.00 PKD
ROOT
HETATM    1  C   UNL     1     -11.871  13.057  67.061  1.00  0.00    -0.377 C  
HETATM    2  O   UNL     1     -11.772  11.641  67.068  1.00  0.00    -0.564 OA 
ENDROOT
BRANCH   2   3
HETATM    3  C   UNL     1     -11.350  11.043  68.230  1.00  0.00    -0.299 A  
HETATM    4  C   UNL     1     -10.005  10.629  68.254  1.00  0.00    -0.158 A  
HETATM    5  C   UNL     1      -9.493  10.010  69.396  1.00  0.00    -0.237 A  
HETATM    6  C   UNL     1     -11.634  10.229  70.503  1.00  0.00    -0.424 A  
HETATM    7  C   UNL     1     -12.151  10.854  69.361  1.00  0.00    -0.362 A  
HETATM    8  C   UNL     1     -10.300   9.822  70.522  1.00  0.00    -0.348 A  
BRANCH   4   9
HETATM    9  O   UNL     1      -9.278  10.824  67.108  1.00  0.00    -0.147 OA 
BRANCH   9  10
HETATM   10  C   UNL     1      -8.406   9.776  66.684  1.00  0.00    -0.124 C  
BRANCH  10  11
HETATM   11  C   UNL     1      -9.169   8.597  66.069  1.00  0.00    -0.276 C  
BRANCH  11  12
HETATM   12  C   UNL     1      -8.274   7.448  65.569  1.00  0.00    -0.135 C  
BRANCH  12  13
HETATM   13  N   UNL     1      -8.451   6.227  66.363  1.00  0.00    -0.120 NA 
HETATM   14  C   UNL     1      -9.860   5.892  66.600  1.00  0.00    -0.163 C  
HETATM   15  C   UNL     1      -9.978   4.498  67.248  1.00  0.00    -0.187 C  
HETATM   16  C   UNL     1      -9.071   4.315  68.482  1.00  0.00    -0.175 C  
HETATM   17  C   UNL     1      -7.659   4.806  68.122  1.00  0.00    -0.081 C  
HETATM   18  C   UNL     1      -7.701   6.241  67.615  1.00  0.00    -0.098 C  
BRANCH  16  19
HETATM   19  C   UNL     1      -9.584   4.992  69.727  1.00  0.00    -0.170 A  
HETATM   20  N   UNL     1     -10.846   5.440  69.799  1.00  0.00    -0.230 NA 
HETATM   21  O   UNL     1     -10.931   6.154  70.977  1.00  0.00    -0.267 OA 
HETATM   22  C   UNL     1      -9.732   6.118  71.618  1.00  0.00    -0.158 A  
HETATM   23  C   UNL     1      -8.855   5.329  70.907  1.00  0.00    -0.151 A  
HETATM   24  C   UNL     1      -7.562   5.125  71.423  1.00  0.00    -0.096 A  
HETATM   25  C   UNL     1      -7.211   5.789  72.609  1.00  0.00    -0.090 A  
HETATM   26  C   UNL     1      -8.129   6.609  73.263  1.00  0.00    -0.107 A  
HETATM   27  C   UNL     1      -9.430   6.781  72.803  1.00  0.00    -0.157 A  
HETATM   28  F   UNL     1      -7.741   7.258  74.369  1.00  0.00    -0.124 F  
ENDBRANCH  16  19
ENDBRANCH  12  13
ENDBRANCH  11  12
ENDBRANCH  10  11
ENDBRANCH   9  10
ENDBRANCH   4   9
BRANCH   6  29
HETATM   29  C   UNL     1     -12.541  10.026  71.666  1.00  0.00    -0.427 C  
HETATM   30  O   UNL     1     -13.337  10.912  71.972  1.00  0.00    -0.448 OA 
HETATM   31  C   UNL     1     -12.516   8.716  72.413  1.00  0.00    -0.428 C  
ENDBRANCH   6  29
ENDBRANCH   2   3
TORSDOF 8
ENDMDL
MODEL      142
REMARK 921   NORMALIZED FREE ENERGY PREDICTED BY IDOCK:   -5.43 KCAL/MOL
REMARK 922        TOTAL FREE ENERGY PREDICTED BY IDOCK:   -8.76 KCAL/MOL
REMARK 923 INTER-LIGAND FREE ENERGY PREDICTED BY IDOCK:   -7.43 KCAL/MOL
REMARK 924 INTRA-LIGAND FREE ENERGY PREDICTED BY IDOCK:   -1.33 KCAL/MOL
REMARK 927      BINDING AFFINITY PREDICTED BY RF-SCORE:    0.00 PKD
ROOT
HETATM    1  C   UNL     1      -9.287  15.313  67.864  1.00  0.00    -0.189 C  
HETATM    2  O   UNL     1      -8.520  14.129  68.029  1.00  0.00    -0.151 OA 
ENDROOT
BRANCH   2   3
HETATM    3  C   UNL     1      -8.725  13.114  67.128  1.00  0.00    -0.213 A  
HETATM    4  C   UNL     1      -7.712  12.140  67.060  1.00  0.00    -0.112 A  
HETATM    5  C   UNL     1      -7.839  11.072  66.168  1.00  0.00    -0.117 A  
HETATM    6  C   UNL     1      -9.980  11.918  65.423  1.00  0.00    -0.281 A  
HETATM    7  C   UNL     1      -9.859  12.989  66.318  1.00  0.00    -0.278 A  
HETATM    8  C   UNL     1      -8.974  10.955  65.361  1.00  0.00    -0.209 A  
BRANCH   4   9
HETATM    9  O   UNL     1      -6.618  12.329  67.864  1.00  0.00    -0.069 OA 
BRANCH   9  10
HETATM   10  C   UNL     1      -6.118  11.204  68.587  1.00  0.00    -0.043 C  
BRANCH  10  11
HETATM   11  C   UNL     1      -6.879  10.969  69.898  1.00  0.00    -0.097 C  
BRANCH  11  12
HETATM   12  C   UNL     1      -7.093   9.487  70.256  1.00  0.00    -0.110 C  
BRANCH  12  13
HETATM   13  N   UNL     1      -8.481   9.064  70.041  1.00  0.00    -0.131 NA 
HETATM   14  C   UNL     1      -9.254  10.011  69.229  1.00  0.00    -0.203 C  
HETATM   15  C   UNL     1     -10.626   9.410  68.863  1.00  0.00    -0.231 C  
HETATM   16  C   UNL     1     -11.394   8.850  70.077  1.00  0.00    -0.050 C  
HETATM   17  C   UNL     1     -10.434   7.967  70.892  1.00  0.00    -0.223 C  
HETATM   18  C   UNL     1      -9.185   8.746  71.280  1.00  0.00    -0.241 C  
BRANCH  16  19
HETATM   19  C   UNL     1     -12.032   9.906  70.942  1.00  0.00    -0.345 A  
HETATM   20  N   UNL     1     -12.729   9.573  72.038  1.00  0.00    -0.394 NA 
HETATM   21  O   UNL     1     -13.319  10.738  72.485  1.00  0.00    -0.086 OA 
HETATM   22  C   UNL     1     -12.962  11.768  71.671  1.00  0.00    -0.362 A  
HETATM   23  C   UNL     1     -12.082  11.314  70.714  1.00  0.00    -0.450 A  
HETATM   24  C   UNL     1     -11.556  12.237  69.792  1.00  0.00    -0.314 A  
HETATM   25  C   UNL     1     -12.003  13.566  69.856  1.00  0.00    -0.416 A  
HETATM   26  C   UNL     1     -12.928  13.958  70.822  1.00  0.00    -0.196 A  
HETATM   27  C   UNL     1     -13.419  13.077  71.781  1.00  0.00    -0.401 A  
HETATM   28  F   UNL     1     -13.361  15.225  70.824  1.00  0.00    -0.436 F  
ENDBRANCH  16  19
ENDBRANCH  12  13
ENDBRANCH  11  12
ENDBRANCH  10  11
ENDBRANCH   9  10
ENDBRANCH   4   9
BRANCH   6  29
HETATM   29  C   UNL     1     -11.194  11.852  64.564  1.00  0.00    -0.319 C  
HETATM   30  O   UNL     1     -11.141  11.259  63.488  1.00  0.00    -0.367 OA 
HETATM   31  C   UNL     1     -12.488  12.456  65.051  1.00  0.00    -0.393 C  
ENDBRANCH   6  29
ENDBRANCH   2   3
TORSDOF 8
ENDMDL
MODEL      143
REMARK 921   NORMALIZED FREE ENERGY PREDICTED BY IDOCK:   -5.42 KCAL/MOL
REMARK 922        TOTAL FREE ENERGY PREDICTED BY IDOCK:   -8.75 KCAL/MOL
REMARK 923 INTER-LIGAND FREE ENERGY PREDICTED BY IDOCK:   -8.20 KCAL/MOL
REMARK 924 INTRA-LIGAND FREE ENERGY PREDICTED BY IDOCK:   -0.55 KCAL/MOL
REMARK 927      BINDING AFFINITY PREDICTED BY RF-SCORE:    0.00 PKD
ROOT
HETATM    1  C   UNL     1     -10.718  13.696  65.137  1.00  0.00    -0.353 C  
HETATM    2  O   UNL     1     -11.692  14.036  66.113  1.00  0.00    -0.353 OA 
ENDROOT
BRANCH   2   3
HETATM    3  C   UNL     1     -11.348  14.986  67.042  1.00  0.00    -0.318 A  
HETATM    4  C   UNL     1     -11.675  14.686  68.377  1.00  0.00    -0.320 A  
HETATM    5  C   UNL     1     -11.363  15.599  69.387  1.00  0.00    -0.332 A  
HETATM    6  C   UNL     1     -10.384  17.099  67.761  1.00  0.00    -0.347 A  
HETATM    7  C   UNL     1     -10.691  16.186  66.745  1.00  0.00    -0.235 A  
HETATM    8  C   UNL     1     -10.709  16.796  69.083  1.00  0.00    -0.329 A  
BRANCH   4   9
HETATM    9  O   UNL     1     -12.336  13.506  68.602  1.00  0.00    -0.232 OA 
BRANCH   9  10
HETATM   10  C   UNL     1     -11.692  12.525  69.416  1.00  0.00    -0.322 C  
BRANCH  10  11
HETATM   11  C   UNL     1     -10.520  11.848  68.696  1.00  0.00    -0.231 C  
BRANCH  11  12
HETATM   12  C   UNL     1     -10.817  10.425  68.189  1.00  0.00    -0.264 C  
BRANCH  12  13
HETATM   13  N   UNL     1      -9.919   9.430  68.785  1.00  0.00    -0.173 NA 
HETATM   14  C   UNL     1     -10.319   8.047  68.500  1.00  0.00    -0.199 C  
HETATM   15  C   UNL     1      -9.226   7.065  68.968  1.00  0.00    -0.137 C  
HETATM   16  C   UNL     1      -8.769   7.301  70.423  1.00  0.00    -0.146 C  
HETATM   17  C   UNL     1      -8.490   8.803  70.604  1.00  0.00    -0.193 C  
HETATM   18  C   UNL     1      -9.710   9.627  70.217  1.00  0.00    -0.259 C  
BRANCH  16  19
HETATM   19  C   UNL     1      -9.737   6.795  71.460  1.00  0.00    -0.163 A  
HETATM   20  N   UNL     1     -10.437   7.647  72.225  1.00  0.00    -0.222 NA 
HETATM   21  O   UNL     1     -11.075   6.873  73.172  1.00  0.00    -0.268 OA 
HETATM   22  C   UNL     1     -10.776   5.562  72.965  1.00  0.00    -0.256 A  
HETATM   23  C   UNL     1      -9.987   5.443  71.842  1.00  0.00    -0.233 A  
HETATM   24  C   UNL     1      -9.598   4.157  71.427  1.00  0.00    -0.238 A  
HETATM   25  C   UNL     1      -9.982   3.062  72.215  1.00  0.00    -0.237 A  
HETATM   26  C   UNL     1     -10.746   3.248  73.366  1.00  0.00    -0.202 A  
HETATM   27  C   UNL     1     -11.192   4.504  73.766  1.00  0.00    -0.275 A  
HETATM   28  F   UNL     1     -11.057   2.181  74.114  1.00  0.00    -0.205 F  
ENDBRANCH  16  19
ENDBRANCH  12  13
ENDBRANCH  11  12
ENDBRANCH  10  11
ENDBRANCH   9  10
ENDBRANCH   4   9
BRANCH   6  29
HETATM   29  C   UNL     1      -9.712  18.373  67.383  1.00  0.00    -0.299 C  
HETATM   30  O   UNL     1      -8.490  18.391  67.239  1.00  0.00    -0.248 OA 
HETATM   31  C   UNL     1     -10.540  19.606  67.119  1.00  0.00    -0.611 C  
ENDBRANCH   6  29
ENDBRANCH   2   3
TORSDOF 8
ENDMDL
MODEL      144
REMARK 921   NORMALIZED FREE ENERGY PREDICTED BY IDOCK:   -5.41 KCAL/MOL
REMARK 922        TOTAL FREE ENERGY PREDICTED BY IDOCK:   -8.74 KCAL/MOL
REMARK 923 INTER-LIGAND FREE ENERGY PREDICTED BY IDOCK:   -7.42 KCAL/MOL
REMARK 924 INTRA-LIGAND FREE ENERGY PREDICTED BY IDOCK:   -1.31 KCAL/MOL
REMARK 927      BINDING AFFINITY PREDICTED BY RF-SCORE:    0.00 PKD
ROOT
HETATM    1  C   UNL     1     -11.947  13.037  69.368  1.00  0.00    -0.281 C  
HETATM    2  O   UNL     1     -11.906  14.244  68.622  1.00  0.00    -0.323 OA 
ENDROOT
BRANCH   2   3
HETATM    3  C   UNL     1     -11.492  14.166  67.316  1.00  0.00    -0.350 A  
HETATM    4  C   UNL     1     -10.792  15.283  66.824  1.00  0.00    -0.312 A  
HETATM    5  C   UNL     1     -10.336  15.288  65.504  1.00  0.00    -0.408 A  
HETATM    6  C   UNL     1     -11.244  13.072  65.158  1.00  0.00    -0.321 A  
HETATM    7  C   UNL     1     -11.701  13.061  66.483  1.00  0.00    -0.437 A  
HETATM    8  C   UNL     1     -10.550  14.182  64.677  1.00  0.00    -0.391 A  
BRANCH   4   9
HETATM    9  O   UNL     1     -10.637  16.341  67.682  1.00  0.00    -0.299 OA 
BRANCH   9  10
HETATM   10  C   UNL     1      -9.461  16.379  68.490  1.00  0.00    -0.227 C  
BRANCH  10  11
HETATM   11  C   UNL     1      -8.299  15.597  67.865  1.00  0.00    -0.150 C  
BRANCH  11  12
HETATM   12  C   UNL     1      -7.436  14.819  68.875  1.00  0.00    -0.137 C  
BRANCH  12  13
HETATM   13  N   UNL     1      -7.235  13.425  68.467  1.00  0.00    -0.104 NA 
HETATM   14  C   UNL     1      -8.069  13.031  67.326  1.00  0.00    -0.161 C  
HETATM   15  C   UNL     1      -7.658  11.636  66.816  1.00  0.00    -0.104 C  
HETATM   16  C   UNL     1      -7.575  10.573  67.932  1.00  0.00    -0.092 C  
HETATM   17  C   UNL     1      -6.768  11.161  69.101  1.00  0.00    -0.092 C  
HETATM   18  C   UNL     1      -7.377  12.477  69.568  1.00  0.00     0.477 C  
BRANCH  16  19
HETATM   19  C   UNL     1      -8.915  10.063  68.394  1.00  0.00    -0.121 A  
HETATM   20  N   UNL     1     -10.016  10.238  67.648  1.00  0.00    -0.173 NA 
HETATM   21  O   UNL     1     -11.077   9.826  68.428  1.00  0.00    -0.187 OA 
HETATM   22  C   UNL     1     -10.613   9.388  69.630  1.00  0.00    -0.225 A  
HETATM   23  C   UNL     1      -9.236   9.444  69.639  1.00  0.00    -0.195 A  
HETATM   24  C   UNL     1      -8.553   8.993  70.783  1.00  0.00    -0.259 A  
HETATM   25  C   UNL     1      -9.312   8.565  71.883  1.00  0.00    -0.337 A  
HETATM   26  C   UNL     1     -10.704   8.570  71.830  1.00  0.00    -0.303 A  
HETATM   27  C   UNL     1     -11.403   8.957  70.691  1.00  0.00    -0.299 A  
HETATM   28  F   UNL     1     -11.393   8.194  72.916  1.00  0.00    -0.431 F  
ENDBRANCH  16  19
ENDBRANCH  12  13
ENDBRANCH  11  12
ENDBRANCH  10  11
ENDBRANCH   9  10
ENDBRANCH   4   9
BRANCH   6  29
HETATM   29  C   UNL     1     -11.521  11.881  64.308  1.00  0.00    -0.346 C  
HETATM   30  O   UNL     1     -10.775  10.906  64.375  1.00  0.00    -0.340 OA 
HETATM   31  C   UNL     1     -12.745  11.860  63.426  1.00  0.00    -0.496 C  
ENDBRANCH   6  29
ENDBRANCH   2   3
TORSDOF 8
ENDMDL
MODEL      145
REMARK 921   NORMALIZED FREE ENERGY PREDICTED BY IDOCK:   -5.41 KCAL/MOL
REMARK 922        TOTAL FREE ENERGY PREDICTED BY IDOCK:   -8.73 KCAL/MOL
REMARK 923 INTER-LIGAND FREE ENERGY PREDICTED BY IDOCK:   -8.62 KCAL/MOL
REMARK 924 INTRA-LIGAND FREE ENERGY PREDICTED BY IDOCK:   -0.11 KCAL/MOL
REMARK 927      BINDING AFFINITY PREDICTED BY RF-SCORE:    0.00 PKD
ROOT
HETATM    1  C   UNL     1     -11.242   6.839  71.138  1.00  0.00    -0.283 C  
HETATM    2  O   UNL     1     -11.149   7.418  69.844  1.00  0.00    -0.251 OA 
ENDROOT
BRANCH   2   3
HETATM    3  C   UNL     1     -10.634   6.638  68.839  1.00  0.00    -0.230 A  
HETATM    4  C   UNL     1     -10.475   7.270  67.592  1.00  0.00    -0.242 A  
HETATM    5  C   UNL     1      -9.959   6.549  66.513  1.00  0.00    -0.154 A  
HETATM    6  C   UNL     1      -9.734   4.582  67.904  1.00  0.00    -0.195 A  
HETATM    7  C   UNL     1     -10.249   5.302  68.991  1.00  0.00    -0.269 A  
HETATM    8  C   UNL     1      -9.578   5.213  66.671  1.00  0.00    -0.162 A  
BRANCH   4   9
HETATM    9  O   UNL     1     -10.889   8.574  67.502  1.00  0.00    -0.198 OA 
BRANCH   9  10
HETATM   10  C   UNL     1      -9.926   9.555  67.116  1.00  0.00    -0.204 C  
BRANCH  10  11
HETATM   11  C   UNL     1     -10.576  10.794  66.489  1.00  0.00    -0.279 C  
BRANCH  11  12
HETATM   12  C   UNL     1      -9.587  11.914  66.115  1.00  0.00    -0.234 C  
BRANCH  12  13
HETATM   13  N   UNL     1      -9.869  13.159  66.837  1.00  0.00    -0.243 NA 
HETATM   14  C   UNL     1      -9.302  13.181  68.191  1.00  0.00    -0.217 C  
HETATM   15  C   UNL     1      -9.447  14.586  68.810  1.00  0.00    -0.183 C  
HETATM   16  C   UNL     1     -10.878  15.155  68.717  1.00  0.00    -0.247 C  
HETATM   17  C   UNL     1     -11.380  14.966  67.276  1.00  0.00    -0.355 C  
HETATM   18  C   UNL     1     -11.287  13.504  66.860  1.00  0.00    -0.326 C  
BRANCH  16  19
HETATM   19  C   UNL     1     -11.840  14.563  69.713  1.00  0.00    -0.315 A  
HETATM   20  N   UNL     1     -12.625  15.349  70.466  1.00  0.00    -0.419 NA 
HETATM   21  O   UNL     1     -13.236  14.515  71.380  1.00  0.00    -0.325 OA 
HETATM   22  C   UNL     1     -12.835  13.233  71.164  1.00  0.00    -0.280 A  
HETATM   23  C   UNL     1     -12.003  13.190  70.067  1.00  0.00    -0.391 A  
HETATM   24  C   UNL     1     -11.508  11.943  69.646  1.00  0.00    -0.337 A  
HETATM   25  C   UNL     1     -11.837  10.809  70.406  1.00  0.00    -0.450 A  
HETATM   26  C   UNL     1     -12.650  10.921  71.532  1.00  0.00    -0.375 A  
HETATM   27  C   UNL     1     -13.199  12.134  71.935  1.00  0.00    -0.474 A  
HETATM   28  F   UNL     1     -12.907   9.822  72.254  1.00  0.00    -0.447 F  
ENDBRANCH  16  19
ENDBRANCH  12  13
ENDBRANCH  11  12
ENDBRANCH  10  11
ENDBRANCH   9  10
ENDBRANCH   4   9
BRANCH   6  29
HETATM   29  C   UNL     1      -9.370   3.154  68.115  1.00  0.00    -0.191 C  
HETATM   30  O   UNL     1      -9.122   2.444  67.142  1.00  0.00    -0.147 OA 
HETATM   31  C   UNL     1      -9.247   2.613  69.518  1.00  0.00    -0.197 C  
ENDBRANCH   6  29
ENDBRANCH   2   3
TORSDOF 8
ENDMDL
MODEL      146
REMARK 921   NORMALIZED FREE ENERGY PREDICTED BY IDOCK:   -5.39 KCAL/MOL
REMARK 922        TOTAL FREE ENERGY PREDICTED BY IDOCK:   -8.70 KCAL/MOL
REMARK 923 INTER-LIGAND FREE ENERGY PREDICTED BY IDOCK:   -8.00 KCAL/MOL
REMARK 924 INTRA-LIGAND FREE ENERGY PREDICTED BY IDOCK:   -0.70 KCAL/MOL
REMARK 927      BINDING AFFINITY PREDICTED BY RF-SCORE:    0.00 PKD
ROOT
HETATM    1  C   UNL     1     -12.770  13.946  64.956  1.00  0.00    -0.336 C  
HETATM    2  O   UNL     1     -11.443  14.265  64.562  1.00  0.00    -0.374 OA 
ENDROOT
BRANCH   2   3
HETATM    3  C   UNL     1     -10.654  14.919  65.475  1.00  0.00    -0.357 A  
HETATM    4  C   UNL     1      -9.656  14.142  66.092  1.00  0.00    -0.254 A  
HETATM    5  C   UNL     1      -8.808  14.727  67.035  1.00  0.00    -0.258 A  
HETATM    6  C   UNL     1      -9.918  16.858  66.744  1.00  0.00    -0.291 A  
HETATM    7  C   UNL     1     -10.768  16.276  65.795  1.00  0.00    -0.264 A  
HETATM    8  C   UNL     1      -8.930  16.083  67.352  1.00  0.00    -0.202 A  
BRANCH   4   9
HETATM    9  O   UNL     1      -9.607  12.815  65.751  1.00  0.00    -0.207 OA 
BRANCH   9  10
HETATM   10  C   UNL     1      -9.231  11.879  66.762  1.00  0.00    -0.194 C  
BRANCH  10  11
HETATM   11  C   UNL     1      -8.861  10.510  66.179  1.00  0.00    -0.172 C  
BRANCH  11  12
HETATM   12  C   UNL     1      -8.125   9.577  67.158  1.00  0.00    -0.106 C  
BRANCH  12  13
HETATM   13  N   UNL     1      -8.722   8.238  67.196  1.00  0.00    -0.122 NA 
HETATM   14  C   UNL     1     -10.188   8.257  67.112  1.00  0.00    -0.295 C  
HETATM   15  C   UNL     1     -10.734   6.826  66.941  1.00  0.00    -0.394 C  
HETATM   16  C   UNL     1     -10.176   5.826  67.975  1.00  0.00    -0.231 C  
HETATM   17  C   UNL     1      -8.649   5.994  68.033  1.00  0.00    -0.114 C  
HETATM   18  C   UNL     1      -8.276   7.439  68.334  1.00  0.00    -0.125 C  
BRANCH  16  19
HETATM   19  C   UNL     1     -10.792   5.950  69.344  1.00  0.00    -0.352 A  
HETATM   20  N   UNL     1     -11.731   6.875  69.597  1.00  0.00    -0.098 NA 
HETATM   21  O   UNL     1     -11.943   6.840  70.960  1.00  0.00    -0.352 OA 
HETATM   22  C   UNL     1     -11.150   5.887  71.520  1.00  0.00    -0.250 A  
HETATM   23  C   UNL     1     -10.449   5.234  70.529  1.00  0.00    -0.312 A  
HETATM   24  C   UNL     1      -9.596   4.177  70.894  1.00  0.00    -0.250 A  
HETATM   25  C   UNL     1      -9.456   3.880  72.259  1.00  0.00    -0.185 A  
HETATM   26  C   UNL     1     -10.160   4.604  73.219  1.00  0.00    -0.160 A  
HETATM   27  C   UNL     1     -11.053   5.615  72.880  1.00  0.00    -0.337 A  
HETATM   28  F   UNL     1      -9.966   4.318  74.514  1.00  0.00    -0.145 F  
ENDBRANCH  16  19
ENDBRANCH  12  13
ENDBRANCH  11  12
ENDBRANCH  10  11
ENDBRANCH   9  10
ENDBRANCH   4   9
BRANCH   6  29
HETATM   29  C   UNL     1     -10.106  18.299  67.068  1.00  0.00    -0.360 C  
HETATM   30  O   UNL     1      -9.884  18.694  68.211  1.00  0.00    -0.331 OA 
HETATM   31  C   UNL     1     -10.501  19.265  65.979  1.00  0.00    -0.573 C  
ENDBRANCH   6  29
ENDBRANCH   2   3
TORSDOF 8
ENDMDL
MODEL      147
REMARK 921   NORMALIZED FREE ENERGY PREDICTED BY IDOCK:   -5.38 KCAL/MOL
REMARK 922        TOTAL FREE ENERGY PREDICTED BY IDOCK:   -8.69 KCAL/MOL
REMARK 923 INTER-LIGAND FREE ENERGY PREDICTED BY IDOCK:   -8.12 KCAL/MOL
REMARK 924 INTRA-LIGAND FREE ENERGY PREDICTED BY IDOCK:   -0.57 KCAL/MOL
REMARK 927      BINDING AFFINITY PREDICTED BY RF-SCORE:    0.00 PKD
ROOT
HETATM    1  C   UNL     1      -6.680   7.871  69.499  1.00  0.00    -0.042 C  
HETATM    2  O   UNL     1      -8.063   8.190  69.544  1.00  0.00    -0.114 OA 
ENDROOT
BRANCH   2   3
HETATM    3  C   UNL     1      -8.919   7.389  68.831  1.00  0.00    -0.130 A  
HETATM    4  C   UNL     1     -10.053   8.027  68.293  1.00  0.00    -0.196 A  
HETATM    5  C   UNL     1     -10.978   7.286  67.555  1.00  0.00    -0.221 A  
HETATM    6  C   UNL     1      -9.652   5.284  67.858  1.00  0.00    -0.161 A  
HETATM    7  C   UNL     1      -8.719   6.024  68.597  1.00  0.00    -0.110 A  
HETATM    8  C   UNL     1     -10.773   5.922  67.327  1.00  0.00    -0.380 A  
BRANCH   4   9
HETATM    9  O   UNL     1     -10.203   9.361  68.574  1.00  0.00    -0.185 OA 
BRANCH   9  10
HETATM   10  C   UNL     1     -10.946   9.719  69.739  1.00  0.00    -0.256 C  
BRANCH  10  11
HETATM   11  C   UNL     1     -12.121  10.650  69.417  1.00  0.00    -0.250 C  
BRANCH  11  12
HETATM   12  C   UNL     1     -11.844  12.142  69.679  1.00  0.00    -0.322 C  
BRANCH  12  13
HETATM   13  N   UNL     1     -11.403  12.840  68.467  1.00  0.00    -0.268 NA 
HETATM   14  C   UNL     1      -9.946  12.816  68.285  1.00  0.00    -0.230 C  
HETATM   15  C   UNL     1      -9.570  13.373  66.898  1.00  0.00    -0.257 C  
HETATM   16  C   UNL     1     -10.221  14.736  66.584  1.00  0.00    -0.271 C  
HETATM   17  C   UNL     1     -11.718  14.646  66.923  1.00  0.00    -0.366 C  
HETATM   18  C   UNL     1     -11.918  14.202  68.366  1.00  0.00    -0.331 C  
BRANCH  16  19
HETATM   19  C   UNL     1      -9.572  15.902  67.283  1.00  0.00    -0.217 A  
HETATM   20  N   UNL     1      -8.805  15.716  68.369  1.00  0.00    -0.179 NA 
HETATM   21  O   UNL     1      -8.524  16.976  68.858  1.00  0.00    -0.253 OA 
HETATM   22  C   UNL     1      -9.102  17.913  68.059  1.00  0.00    -0.267 A  
HETATM   23  C   UNL     1      -9.720  17.292  66.996  1.00  0.00    -0.267 A  
HETATM   24  C   UNL     1     -10.348  18.090  66.023  1.00  0.00    -0.333 A  
HETATM   25  C   UNL     1     -10.365  19.480  66.217  1.00  0.00    -0.601 A  
HETATM   26  C   UNL     1      -9.758  20.049  67.335  1.00  0.00    -0.417 A  
HETATM   27  C   UNL     1      -9.082  19.285  68.282  1.00  0.00    -0.394 A  
HETATM   28  F   UNL     1      -9.834  21.375  67.506  1.00  0.00    -0.567 F  
ENDBRANCH  16  19
ENDBRANCH  12  13
ENDBRANCH  11  12
ENDBRANCH  10  11
ENDBRANCH   9  10
ENDBRANCH   4   9
BRANCH   6  29
HETATM   29  C   UNL     1      -9.404   3.829  67.667  1.00  0.00    -0.195 C  
HETATM   30  O   UNL     1      -9.506   3.068  68.628  1.00  0.00    -0.181 OA 
HETATM   31  C   UNL     1      -9.093   3.298  66.290  1.00  0.00    -0.161 C  
ENDBRANCH   6  29
ENDBRANCH   2   3
TORSDOF 8
ENDMDL
MODEL      148
REMARK 921   NORMALIZED FREE ENERGY PREDICTED BY IDOCK:   -5.36 KCAL/MOL
REMARK 922        TOTAL FREE ENERGY PREDICTED BY IDOCK:   -8.66 KCAL/MOL
REMARK 923 INTER-LIGAND FREE ENERGY PREDICTED BY IDOCK:   -6.55 KCAL/MOL
REMARK 924 INTRA-LIGAND FREE ENERGY PREDICTED BY IDOCK:   -2.12 KCAL/MOL
REMARK 927      BINDING AFFINITY PREDICTED BY RF-SCORE:    0.00 PKD
ROOT
HETATM    1  C   UNL     1     -13.840   8.899  72.689  1.00  0.00    -0.326 C  
HETATM    2  O   UNL     1     -13.616   8.964  71.288  1.00  0.00    -0.283 OA 
ENDROOT
BRANCH   2   3
HETATM    3  C   UNL     1     -12.319   9.117  70.863  1.00  0.00    -0.142 A  
HETATM    4  C   UNL     1     -11.953  10.414  70.460  1.00  0.00    -0.334 A  
HETATM    5  C   UNL     1     -10.653  10.658  70.012  1.00  0.00    -0.150 A  
HETATM    6  C   UNL     1     -10.067   8.339  70.379  1.00  0.00    -0.199 A  
HETATM    7  C   UNL     1     -11.369   8.090  70.833  1.00  0.00    -0.291 A  
HETATM    8  C   UNL     1      -9.710   9.628  69.982  1.00  0.00    -0.280 A  
BRANCH   4   9
HETATM    9  O   UNL     1     -12.934  11.372  70.494  1.00  0.00    -0.112 OA 
BRANCH   9  10
HETATM   10  C   UNL     1     -12.821  12.409  71.468  1.00  0.00    -0.274 C  
BRANCH  10  11
HETATM   11  C   UNL     1     -11.951  13.574  70.981  1.00  0.00    -0.081 C  
BRANCH  11  12
HETATM   12  C   UNL     1     -12.624  14.480  69.934  1.00  0.00    -0.180 C  
BRANCH  12  13
HETATM   13  N   UNL     1     -11.919  14.451  68.648  1.00  0.00    -0.320 NA 
HETATM   14  C   UNL     1     -12.160  13.220  67.886  1.00  0.00    -0.228 C  
HETATM   15  C   UNL     1     -11.571  13.344  66.466  1.00  0.00    -0.394 C  
HETATM   16  C   UNL     1     -10.103  13.820  66.448  1.00  0.00    -0.297 C  
HETATM   17  C   UNL     1      -9.981  15.044  67.370  1.00  0.00    -0.226 C  
HETATM   18  C   UNL     1     -10.490  14.719  68.768  1.00  0.00    -0.250 C  
BRANCH  16  19
HETATM   19  C   UNL     1      -9.108  12.753  66.821  1.00  0.00    -0.209 A  
HETATM   20  N   UNL     1      -7.878  13.075  67.249  1.00  0.00    -0.158 NA 
HETATM   21  O   UNL     1      -7.177  11.889  67.327  1.00  0.00    -0.127 OA 
HETATM   22  C   UNL     1      -7.988  10.858  66.965  1.00  0.00    -0.132 A  
HETATM   23  C   UNL     1      -9.253  11.338  66.705  1.00  0.00    -0.186 A  
HETATM   24  C   UNL     1     -10.260  10.422  66.353  1.00  0.00    -0.292 A  
HETATM   25  C   UNL     1      -9.910   9.069  66.224  1.00  0.00    -0.361 A  
HETATM   26  C   UNL     1      -8.602   8.648  66.460  1.00  0.00    -0.116 A  
HETATM   27  C   UNL     1      -7.602   9.526  66.865  1.00  0.00    -0.095 A  
HETATM   28  F   UNL     1      -8.299   7.355  66.285  1.00  0.00    -0.108 F  
ENDBRANCH  16  19
ENDBRANCH  12  13
ENDBRANCH  11  12
ENDBRANCH  10  11
ENDBRANCH   9  10
ENDBRANCH   4   9
BRANCH   6  29
HETATM   29  C   UNL     1      -9.106   7.203  70.340  1.00  0.00    -0.156 C  
HETATM   30  O   UNL     1      -8.257   7.099  71.223  1.00  0.00    -0.107 OA 
HETATM   31  C   UNL     1      -9.225   6.160  69.256  1.00  0.00    -0.134 C  
ENDBRANCH   6  29
ENDBRANCH   2   3
TORSDOF 8
ENDMDL
MODEL      149
REMARK 921   NORMALIZED FREE ENERGY PREDICTED BY IDOCK:   -5.36 KCAL/MOL
REMARK 922        TOTAL FREE ENERGY PREDICTED BY IDOCK:   -8.66 KCAL/MOL
REMARK 923 INTER-LIGAND FREE ENERGY PREDICTED BY IDOCK:   -7.24 KCAL/MOL
REMARK 924 INTRA-LIGAND FREE ENERGY PREDICTED BY IDOCK:   -1.42 KCAL/MOL
REMARK 927      BINDING AFFINITY PREDICTED BY RF-SCORE:    0.00 PKD
ROOT
HETATM    1  C   UNL     1     -10.646   7.818  67.050  1.00  0.00    -0.326 C  
HETATM    2  O   UNL     1     -11.135   6.574  67.528  1.00  0.00    -0.341 OA 
ENDROOT
BRANCH   2   3
HETATM    3  C   UNL     1     -10.871   6.252  68.835  1.00  0.00    -0.333 A  
HETATM    4  C   UNL     1     -10.113   5.083  69.039  1.00  0.00    -0.168 A  
HETATM    5  C   UNL     1      -9.800   4.681  70.340  1.00  0.00    -0.306 A  
HETATM    6  C   UNL     1     -10.965   6.601  71.240  1.00  0.00    -0.296 A  
HETATM    7  C   UNL     1     -11.279   7.011  69.938  1.00  0.00    -0.286 A  
HETATM    8  C   UNL     1     -10.213   5.443  71.436  1.00  0.00    -0.279 A  
BRANCH   4   9
HETATM    9  O   UNL     1      -9.760   4.373  67.921  1.00  0.00    -0.163 OA 
BRANCH   9  10
HETATM   10  C   UNL     1      -8.369   4.242  67.625  1.00  0.00    -0.098 C  
BRANCH  10  11
HETATM   11  C   UNL     1      -7.759   5.547  67.102  1.00  0.00    -0.100 C  
BRANCH  11  12
HETATM   12  C   UNL     1      -7.281   5.488  65.640  1.00  0.00    -0.068 C  
BRANCH  12  13
HETATM   13  N   UNL     1      -6.990   6.822  65.102  1.00  0.00    -0.054 NA 
HETATM   14  C   UNL     1      -6.356   7.713  66.081  1.00  0.00    -0.042 C  
HETATM   15  C   UNL     1      -5.886   9.013  65.397  1.00  0.00    -0.051 C  
HETATM   16  C   UNL     1      -6.979   9.689  64.544  1.00  0.00    -0.117 C  
HETATM   17  C   UNL     1      -7.627   8.619  63.651  1.00  0.00    -0.127 C  
HETATM   18  C   UNL     1      -8.151   7.461  64.490  1.00  0.00    -0.079 C  
BRANCH  16  19
HETATM   19  C   UNL     1      -8.016  10.429  65.349  1.00  0.00    -0.147 A  
HETATM   20  N   UNL     1      -7.926  10.506  66.686  1.00  0.00    -0.120 NA 
HETATM   21  O   UNL     1      -9.105  11.082  67.115  1.00  0.00    -0.145 OA 
HETATM   22  C   UNL     1      -9.889  11.367  66.040  1.00  0.00    -0.223 A  
HETATM   23  C   UNL     1      -9.217  11.043  64.882  1.00  0.00    -0.210 A  
HETATM   24  C   UNL     1      -9.840  11.301  63.648  1.00  0.00    -0.377 A  
HETATM   25  C   UNL     1     -11.144  11.818  63.660  1.00  0.00    -0.518 A  
HETATM   26  C   UNL     1     -11.791  12.087  64.865  1.00  0.00    -0.238 A  
HETATM   27  C   UNL     1     -11.174  11.895  66.098  1.00  0.00    -0.387 A  
HETATM   28  F   UNL     1     -13.051  12.541  64.835  1.00  0.00    -0.551 F  
ENDBRANCH  16  19
ENDBRANCH  12  13
ENDBRANCH  11  12
ENDBRANCH  10  11
ENDBRANCH   9  10
ENDBRANCH   4   9
BRANCH   6  29
HETATM   29  C   UNL     1     -11.452   7.431  72.376  1.00  0.00    -0.300 C  
HETATM   30  O   UNL     1     -10.887   7.353  73.466  1.00  0.00    -0.379 OA 
HETATM   31  C   UNL     1     -12.587   8.401  72.160  1.00  0.00    -0.412 C  
ENDBRANCH   6  29
ENDBRANCH   2   3
TORSDOF 8
ENDMDL
MODEL      150
REMARK 921   NORMALIZED FREE ENERGY PREDICTED BY IDOCK:   -5.34 KCAL/MOL
REMARK 922        TOTAL FREE ENERGY PREDICTED BY IDOCK:   -8.63 KCAL/MOL
REMARK 923 INTER-LIGAND FREE ENERGY PREDICTED BY IDOCK:   -9.10 KCAL/MOL
REMARK 924 INTRA-LIGAND FREE ENERGY PREDICTED BY IDOCK:    0.48 KCAL/MOL
REMARK 927      BINDING AFFINITY PREDICTED BY RF-SCORE:    0.00 PKD
ROOT
HETATM    1  C   UNL     1     -10.623   8.083  73.072  1.00  0.00    -0.262 C  
HETATM    2  O   UNL     1     -11.438   7.777  71.950  1.00  0.00    -0.255 OA 
ENDROOT
BRANCH   2   3
HETATM    3  C   UNL     1     -10.812   7.299  70.827  1.00  0.00    -0.241 A  
HETATM    4  C   UNL     1     -10.730   8.192  69.742  1.00  0.00    -0.229 A  
HETATM    5  C   UNL     1     -10.110   7.786  68.558  1.00  0.00    -0.216 A  
HETATM    6  C   UNL     1      -9.631   5.620  69.524  1.00  0.00    -0.192 A  
HETATM    7  C   UNL     1     -10.249   6.023  70.715  1.00  0.00    -0.258 A  
HETATM    8  C   UNL     1      -9.552   6.509  68.453  1.00  0.00    -0.122 A  
BRANCH   4   9
HETATM    9  O   UNL     1     -11.317   9.419  69.906  1.00  0.00    -0.202 OA 
BRANCH   9  10
HETATM   10  C   UNL     1     -10.489  10.577  69.794  1.00  0.00    -0.200 C  
BRANCH  10  11
HETATM   11  C   UNL     1     -10.897  11.474  68.620  1.00  0.00    -0.253 C  
BRANCH  11  12
HETATM   12  C   UNL     1     -10.197  11.143  67.289  1.00  0.00    -0.193 C  
BRANCH  12  13
HETATM   13  N   UNL     1     -10.800  11.857  66.158  1.00  0.00    -0.281 NA 
HETATM   14  C   UNL     1      -9.808  12.444  65.251  1.00  0.00    -0.161 C  
HETATM   15  C   UNL     1     -10.496  12.988  63.983  1.00  0.00    -0.337 C  
HETATM   16  C   UNL     1     -11.698  13.907  64.281  1.00  0.00    -0.406 C  
HETATM   17  C   UNL     1     -12.591  13.213  65.323  1.00  0.00    -0.531 C  
HETATM   18  C   UNL     1     -11.788  12.852  66.565  1.00  0.00    -0.407 C  
BRANCH  16  19
HETATM   19  C   UNL     1     -11.315  15.294  64.727  1.00  0.00    -0.391 A  
HETATM   20  N   UNL     1     -11.547  16.360  63.947  1.00  0.00    -1.054 NA 
HETATM   21  O   UNL     1     -10.923  17.427  64.560  1.00  0.00    -0.850 OA 
HETATM   22  C   UNL     1     -10.334  17.007  65.713  1.00  0.00    -0.261 A  
HETATM   23  C   UNL     1     -10.614  15.673  65.912  1.00  0.00    -0.354 A  
HETATM   24  C   UNL     1     -10.130  15.051  67.077  1.00  0.00    -0.244 A  
HETATM   25  C   UNL     1      -9.333  15.808  67.949  1.00  0.00    -0.200 A  
HETATM   26  C   UNL     1      -9.049  17.144  67.673  1.00  0.00    -0.227 A  
HETATM   27  C   UNL     1      -9.563  17.797  66.558  1.00  0.00    -0.315 A  
HETATM   28  F   UNL     1      -8.249  17.820  68.509  1.00  0.00    -0.263 F  
ENDBRANCH  16  19
ENDBRANCH  12  13
ENDBRANCH  11  12
ENDBRANCH  10  11
ENDBRANCH   9  10
ENDBRANCH   4   9
BRANCH   6  29
HETATM   29  C   UNL     1      -9.076   4.240  69.451  1.00  0.00    -0.117 C  
HETATM   30  O   UNL     1      -9.832   3.278  69.579  1.00  0.00    -0.028 OA 
HETATM   31  C   UNL     1      -7.610   4.038  69.158  1.00  0.00    -0.054 C  
ENDBRANCH   6  29
ENDBRANCH   2   3
TORSDOF 8
ENDMDL
MODEL      151
REMARK 921   NORMALIZED FREE ENERGY PREDICTED BY IDOCK:   -5.33 KCAL/MOL
REMARK 922        TOTAL FREE ENERGY PREDICTED BY IDOCK:   -8.61 KCAL/MOL
REMARK 923 INTER-LIGAND FREE ENERGY PREDICTED BY IDOCK:   -6.82 KCAL/MOL
REMARK 924 INTRA-LIGAND FREE ENERGY PREDICTED BY IDOCK:   -1.80 KCAL/MOL
REMARK 927      BINDING AFFINITY PREDICTED BY RF-SCORE:    0.00 PKD
ROOT
HETATM    1  C   UNL     1     -10.698   7.593  67.326  1.00  0.00    -0.274 C  
HETATM    2  O   UNL     1     -10.658   6.173  67.311  1.00  0.00    -0.214 OA 
ENDROOT
BRANCH   2   3
HETATM    3  C   UNL     1     -10.325   5.538  68.481  1.00  0.00    -0.178 A  
HETATM    4  C   UNL     1      -9.361   4.519  68.374  1.00  0.00    -0.142 A  
HETATM    5  C   UNL     1      -8.965   3.819  69.516  1.00  0.00    -0.168 A  
HETATM    6  C   UNL     1     -10.458   5.150  70.878  1.00  0.00    -0.258 A  
HETATM    7  C   UNL     1     -10.857   5.856  69.736  1.00  0.00    -0.447 A  
HETATM    8  C   UNL     1      -9.502   4.141  70.766  1.00  0.00    -0.242 A  
BRANCH   4   9
HETATM    9  O   UNL     1      -8.893   4.241  67.116  1.00  0.00    -0.107 OA 
BRANCH   9  10
HETATM   10  C   UNL     1      -7.520   4.519  66.838  1.00  0.00    -0.082 C  
BRANCH  10  11
HETATM   11  C   UNL     1      -7.029   5.791  67.539  1.00  0.00    -0.069 C  
BRANCH  11  12
HETATM   12  C   UNL     1      -7.056   7.055  66.660  1.00  0.00    -0.078 C  
BRANCH  12  13
HETATM   13  N   UNL     1      -7.102   8.282  67.463  1.00  0.00    -0.082 NA 
HETATM   14  C   UNL     1      -7.536   8.050  68.846  1.00  0.00    -0.099 C  
HETATM   15  C   UNL     1      -7.358   9.331  69.686  1.00  0.00    -0.068 C  
HETATM   16  C   UNL     1      -7.976  10.585  69.034  1.00  0.00    -0.136 C  
HETATM   17  C   UNL     1      -7.524  10.639  67.565  1.00  0.00    -0.093 C  
HETATM   18  C   UNL     1      -7.884   9.347  66.843  1.00  0.00    -0.105 C  
BRANCH  16  19
HETATM   19  C   UNL     1      -9.476  10.660  69.148  1.00  0.00    -0.170 A  
HETATM   20  N   UNL     1     -10.195  11.420  68.308  1.00  0.00    -0.186 NA 
HETATM   21  O   UNL     1     -11.487  11.407  68.792  1.00  0.00    -0.235 OA 
HETATM   22  C   UNL     1     -11.547  10.628  69.906  1.00  0.00    -0.316 A  
HETATM   23  C   UNL     1     -10.312  10.064  70.139  1.00  0.00    -0.321 A  
HETATM   24  C   UNL     1     -10.169   9.184  71.227  1.00  0.00    -0.400 A  
HETATM   25  C   UNL     1     -11.279   8.974  72.059  1.00  0.00    -0.379 A  
HETATM   26  C   UNL     1     -12.493   9.607  71.797  1.00  0.00    -0.402 A  
HETATM   27  C   UNL     1     -12.676  10.436  70.695  1.00  0.00    -0.417 A  
HETATM   28  F   UNL     1     -13.517   9.413  72.640  1.00  0.00    -0.474 F  
ENDBRANCH  16  19
ENDBRANCH  12  13
ENDBRANCH  11  12
ENDBRANCH  10  11
ENDBRANCH   9  10
ENDBRANCH   4   9
BRANCH   6  29
HETATM   29  C   UNL     1     -11.080   5.510  72.182  1.00  0.00    -0.210 C  
HETATM   30  O   UNL     1     -12.257   5.864  72.211  1.00  0.00    -0.245 OA 
HETATM   31  C   UNL     1     -10.281   5.377  73.454  1.00  0.00    -0.219 C  
ENDBRANCH   6  29
ENDBRANCH   2   3
TORSDOF 8
ENDMDL
MODEL      152
REMARK 921   NORMALIZED FREE ENERGY PREDICTED BY IDOCK:   -5.32 KCAL/MOL
REMARK 922        TOTAL FREE ENERGY PREDICTED BY IDOCK:   -8.61 KCAL/MOL
REMARK 923 INTER-LIGAND FREE ENERGY PREDICTED BY IDOCK:   -7.53 KCAL/MOL
REMARK 924 INTRA-LIGAND FREE ENERGY PREDICTED BY IDOCK:   -1.08 KCAL/MOL
REMARK 927      BINDING AFFINITY PREDICTED BY RF-SCORE:    0.00 PKD
ROOT
HETATM    1  C   UNL     1     -10.273   8.999  66.474  1.00  0.00    -0.248 C  
HETATM    2  O   UNL     1      -9.444   9.862  67.238  1.00  0.00    -0.149 OA 
ENDROOT
BRANCH   2   3
HETATM    3  C   UNL     1      -9.163   9.489  68.528  1.00  0.00    -0.131 A  
HETATM    4  C   UNL     1      -7.939   9.948  69.048  1.00  0.00    -0.101 A  
HETATM    5  C   UNL     1      -7.573   9.613  70.354  1.00  0.00    -0.176 A  
HETATM    6  C   UNL     1      -9.639   8.386  70.643  1.00  0.00    -0.195 A  
HETATM    7  C   UNL     1     -10.012   8.723  69.335  1.00  0.00    -0.196 A  
HETATM    8  C   UNL     1      -8.425   8.846  71.153  1.00  0.00    -0.250 A  
BRANCH   4   9
HETATM    9  O   UNL     1      -7.143  10.677  68.203  1.00  0.00    -0.079 OA 
BRANCH   9  10
HETATM   10  C   UNL     1      -6.583  11.894  68.697  1.00  0.00    -0.066 C  
BRANCH  10  11
HETATM   11  C   UNL     1      -6.740  13.053  67.706  1.00  0.00    -0.143 C  
BRANCH  11  12
HETATM   12  C   UNL     1      -7.062  14.411  68.356  1.00  0.00    -0.106 C  
BRANCH  12  13
HETATM   13  N   UNL     1      -8.419  14.866  68.036  1.00  0.00    -0.146 NA 
HETATM   14  C   UNL     1      -8.884  15.954  68.905  1.00  0.00    -0.225 C  
HETATM   15  C   UNL     1     -10.217  16.525  68.383  1.00  0.00    -0.266 C  
HETATM   16  C   UNL     1     -11.282  15.445  68.103  1.00  0.00    -0.326 C  
HETATM   17  C   UNL     1     -10.628  14.323  67.280  1.00  0.00    -0.278 C  
HETATM   18  C   UNL     1      -9.395  13.781  67.992  1.00  0.00    -0.199 C  
BRANCH  16  19
HETATM   19  C   UNL     1     -11.944  14.899  69.342  1.00  0.00    -0.301 A  
HETATM   20  N   UNL     1     -12.289  15.709  70.353  1.00  0.00    -0.407 NA 
HETATM   21  O   UNL     1     -12.694  14.884  71.383  1.00  0.00    -0.296 OA 
HETATM   22  C   UNL     1     -12.609  13.586  70.984  1.00  0.00    -0.359 A  
HETATM   23  C   UNL     1     -12.209  13.535  69.667  1.00  0.00    -0.304 A  
HETATM   24  C   UNL     1     -12.099  12.278  69.045  1.00  0.00    -0.197 A  
HETATM   25  C   UNL     1     -12.343  11.133  69.819  1.00  0.00    -0.315 A  
HETATM   26  C   UNL     1     -12.705  11.246  71.160  1.00  0.00    -0.390 A  
HETATM   27  C   UNL     1     -12.876  12.479  71.782  1.00  0.00    -0.347 A  
HETATM   28  F   UNL     1     -12.888  10.128  71.875  1.00  0.00    -0.437 F  
ENDBRANCH  16  19
ENDBRANCH  12  13
ENDBRANCH  11  12
ENDBRANCH  10  11
ENDBRANCH   9  10
ENDBRANCH   4   9
BRANCH   6  29
HETATM   29  C   UNL     1     -10.567   7.543  71.445  1.00  0.00    -0.210 C  
HETATM   30  O   UNL     1     -11.290   6.729  70.872  1.00  0.00    -0.277 OA 
HETATM   31  C   UNL     1     -10.565   7.651  72.950  1.00  0.00    -0.411 C  
ENDBRANCH   6  29
ENDBRANCH   2   3
TORSDOF 8
ENDMDL
MODEL      153
REMARK 921   NORMALIZED FREE ENERGY PREDICTED BY IDOCK:   -5.31 KCAL/MOL
REMARK 922        TOTAL FREE ENERGY PREDICTED BY IDOCK:   -8.59 KCAL/MOL
REMARK 923 INTER-LIGAND FREE ENERGY PREDICTED BY IDOCK:   -7.82 KCAL/MOL
REMARK 924 INTRA-LIGAND FREE ENERGY PREDICTED BY IDOCK:   -0.77 KCAL/MOL
REMARK 927      BINDING AFFINITY PREDICTED BY RF-SCORE:    0.00 PKD
ROOT
HETATM    1  C   UNL     1      -9.927   9.798  65.483  1.00  0.00    -0.259 C  
HETATM    2  O   UNL     1      -9.051   8.941  66.200  1.00  0.00    -0.174 OA 
ENDROOT
BRANCH   2   3
HETATM    3  C   UNL     1      -9.058   9.032  67.569  1.00  0.00    -0.132 A  
HETATM    4  C   UNL     1      -7.801   9.198  68.181  1.00  0.00    -0.099 A  
HETATM    5  C   UNL     1      -7.717   9.298  69.571  1.00  0.00    -0.084 A  
HETATM    6  C   UNL     1     -10.121   9.094  69.755  1.00  0.00    -0.211 A  
HETATM    7  C   UNL     1     -10.211   8.996  68.361  1.00  0.00    -0.232 A  
HETATM    8  C   UNL     1      -8.873   9.259  70.355  1.00  0.00    -0.271 A  
BRANCH   4   9
HETATM    9  O   UNL     1      -6.708   9.206  67.353  1.00  0.00    -0.067 OA 
BRANCH   9  10
HETATM   10  C   UNL     1      -6.196  10.472  66.935  1.00  0.00    -0.066 C  
BRANCH  10  11
HETATM   11  C   UNL     1      -6.175  11.497  68.075  1.00  0.00    -0.046 C  
BRANCH  11  12
HETATM   12  C   UNL     1      -6.496  12.940  67.644  1.00  0.00    -0.157 C  
BRANCH  12  13
HETATM   13  N   UNL     1      -7.854  13.339  68.029  1.00  0.00    -0.133 NA 
HETATM   14  C   UNL     1      -8.840  13.135  66.961  1.00  0.00    -0.210 C  
HETATM   15  C   UNL     1     -10.267  13.369  67.496  1.00  0.00    -0.226 C  
HETATM   16  C   UNL     1     -10.428  14.702  68.255  1.00  0.00    -0.236 C  
HETATM   17  C   UNL     1      -9.270  14.830  69.259  1.00  0.00    -0.035 C  
HETATM   18  C   UNL     1      -7.928  14.700  68.552  1.00  0.00    -0.136 C  
BRANCH  16  19
HETATM   19  C   UNL     1     -10.512  15.912  67.361  1.00  0.00    -0.306 A  
HETATM   20  N   UNL     1     -10.665  15.780  66.035  1.00  0.00    -0.323 NA 
HETATM   21  O   UNL     1     -10.523  17.047  65.506  1.00  0.00    -0.572 OA 
HETATM   22  C   UNL     1     -10.305  17.937  66.512  1.00  0.00    -0.362 A  
HETATM   23  C   UNL     1     -10.363  17.284  67.724  1.00  0.00    -0.356 A  
HETATM   24  C   UNL     1     -10.204  18.036  68.902  1.00  0.00    -0.320 A  
HETATM   25  C   UNL     1      -9.932  19.407  68.780  1.00  0.00    -0.522 A  
HETATM   26  C   UNL     1      -9.844  20.005  67.525  1.00  0.00    -0.416 A  
HETATM   27  C   UNL     1     -10.054  19.295  66.347  1.00  0.00    -0.507 A  
HETATM   28  F   UNL     1      -9.541  21.309  67.451  1.00  0.00    -0.583 F  
ENDBRANCH  16  19
ENDBRANCH  12  13
ENDBRANCH  11  12
ENDBRANCH  10  11
ENDBRANCH   9  10
ENDBRANCH   4   9
BRANCH   6  29
HETATM   29  C   UNL     1     -11.378   9.018  70.549  1.00  0.00    -0.243 C  
HETATM   30  O   UNL     1     -12.019   7.969  70.565  1.00  0.00    -0.118 OA 
HETATM   31  C   UNL     1     -11.815  10.204  71.373  1.00  0.00    -0.414 C  
ENDBRANCH   6  29
ENDBRANCH   2   3
TORSDOF 8
ENDMDL
MODEL      154
REMARK 921   NORMALIZED FREE ENERGY PREDICTED BY IDOCK:   -5.31 KCAL/MOL
REMARK 922        TOTAL FREE ENERGY PREDICTED BY IDOCK:   -8.58 KCAL/MOL
REMARK 923 INTER-LIGAND FREE ENERGY PREDICTED BY IDOCK:   -8.50 KCAL/MOL
REMARK 924 INTRA-LIGAND FREE ENERGY PREDICTED BY IDOCK:   -0.08 KCAL/MOL
REMARK 927      BINDING AFFINITY PREDICTED BY RF-SCORE:    0.00 PKD
ROOT
HETATM    1  C   UNL     1     -13.981   8.839  72.543  1.00  0.00    -0.363 C  
HETATM    2  O   UNL     1     -13.122   9.940  72.285  1.00  0.00    -0.418 OA 
ENDROOT
BRANCH   2   3
HETATM    3  C   UNL     1     -12.315   9.865  71.178  1.00  0.00    -0.370 A  
HETATM    4  C   UNL     1     -12.180  11.051  70.434  1.00  0.00    -0.373 A  
HETATM    5  C   UNL     1     -11.378  11.062  69.291  1.00  0.00    -0.350 A  
HETATM    6  C   UNL     1     -10.821   8.732  69.629  1.00  0.00    -0.175 A  
HETATM    7  C   UNL     1     -11.622   8.716  70.778  1.00  0.00    -0.273 A  
HETATM    8  C   UNL     1     -10.691   9.911  68.896  1.00  0.00    -0.244 A  
BRANCH   4   9
HETATM    9  O   UNL     1     -12.898  12.136  70.865  1.00  0.00    -0.228 OA 
BRANCH   9  10
HETATM   10  C   UNL     1     -12.256  13.411  70.851  1.00  0.00    -0.282 C  
BRANCH  10  11
HETATM   11  C   UNL     1     -12.620  14.233  69.609  1.00  0.00    -0.095 C  
BRANCH  11  12
HETATM   12  C   UNL     1     -11.434  14.974  68.963  1.00  0.00    -0.304 C  
BRANCH  12  13
HETATM   13  N   UNL     1     -11.442  14.855  67.501  1.00  0.00    -0.346 NA 
HETATM   14  C   UNL     1     -12.391  13.850  67.009  1.00  0.00    -0.249 C  
HETATM   15  C   UNL     1     -12.504  13.925  65.473  1.00  0.00    -0.541 C  
HETATM   16  C   UNL     1     -11.140  13.908  64.754  1.00  0.00    -0.386 C  
HETATM   17  C   UNL     1     -10.217  14.927  65.442  1.00  0.00    -0.409 C  
HETATM   18  C   UNL     1     -10.114  14.639  66.934  1.00  0.00    -0.255 C  
BRANCH  16  19
HETATM   19  C   UNL     1     -10.498  12.547  64.689  1.00  0.00    -0.319 A  
HETATM   20  N   UNL     1     -10.855  11.659  63.749  1.00  0.00    -0.391 NA 
HETATM   21  O   UNL     1     -10.223  10.477  64.079  1.00  0.00    -0.319 OA 
HETATM   22  C   UNL     1      -9.474  10.661  65.200  1.00  0.00    -0.227 A  
HETATM   23  C   UNL     1      -9.549  11.979  65.592  1.00  0.00    -0.205 A  
HETATM   24  C   UNL     1      -8.808  12.391  66.714  1.00  0.00    -0.189 A  
HETATM   25  C   UNL     1      -8.076  11.421  67.417  1.00  0.00    -0.142 A  
HETATM   26  C   UNL     1      -8.072  10.092  66.996  1.00  0.00    -0.117 A  
HETATM   27  C   UNL     1      -8.750   9.671  65.857  1.00  0.00    -0.163 A  
HETATM   28  F   UNL     1      -7.395   9.189  67.718  1.00  0.00    -0.080 F  
ENDBRANCH  16  19
ENDBRANCH  12  13
ENDBRANCH  11  12
ENDBRANCH  10  11
ENDBRANCH   9  10
ENDBRANCH   4   9
BRANCH   6  29
HETATM   29  C   UNL     1     -10.133   7.473  69.234  1.00  0.00    -0.188 C  
HETATM   30  O   UNL     1      -9.042   7.200  69.732  1.00  0.00    -0.142 OA 
HETATM   31  C   UNL     1     -10.808   6.519  68.279  1.00  0.00    -0.359 C  
ENDBRANCH   6  29
ENDBRANCH   2   3
TORSDOF 8
ENDMDL
MODEL      155
REMARK 921   NORMALIZED FREE ENERGY PREDICTED BY IDOCK:   -5.30 KCAL/MOL
REMARK 922        TOTAL FREE ENERGY PREDICTED BY IDOCK:   -8.57 KCAL/MOL
REMARK 923 INTER-LIGAND FREE ENERGY PREDICTED BY IDOCK:   -7.50 KCAL/MOL
REMARK 924 INTRA-LIGAND FREE ENERGY PREDICTED BY IDOCK:   -1.07 KCAL/MOL
REMARK 927      BINDING AFFINITY PREDICTED BY RF-SCORE:    0.00 PKD
ROOT
HETATM    1  C   UNL     1     -11.792  12.914  69.254  1.00  0.00    -0.309 C  
HETATM    2  O   UNL     1     -11.857  14.240  68.749  1.00  0.00    -0.316 OA 
ENDROOT
BRANCH   2   3
HETATM    3  C   UNL     1     -11.385  14.454  67.478  1.00  0.00    -0.328 A  
HETATM    4  C   UNL     1     -10.311  15.356  67.366  1.00  0.00    -0.262 A  
HETATM    5  C   UNL     1      -9.770  15.634  66.108  1.00  0.00    -0.348 A  
HETATM    6  C   UNL     1     -11.340  14.113  65.071  1.00  0.00    -0.350 A  
HETATM    7  C   UNL     1     -11.884  13.828  66.330  1.00  0.00    -0.434 A  
HETATM    8  C   UNL     1     -10.274  15.006  64.966  1.00  0.00    -0.349 A  
BRANCH   4   9
HETATM    9  O   UNL     1      -9.881  15.952  68.523  1.00  0.00    -0.203 OA 
BRANCH   9  10
HETATM   10  C   UNL     1      -8.833  15.313  69.254  1.00  0.00    -0.242 C  
BRANCH  10  11
HETATM   11  C   UNL     1      -7.970  14.410  68.365  1.00  0.00    -0.141 C  
BRANCH  11  12
HETATM   12  C   UNL     1      -7.427  13.152  69.068  1.00  0.00     0.093 C  
BRANCH  12  13
HETATM   13  N   UNL     1      -7.268  12.029  68.139  1.00  0.00    -0.083 NA 
HETATM   14  C   UNL     1      -8.263  12.027  67.060  1.00  0.00    -0.169 C  
HETATM   15  C   UNL     1      -7.912  10.956  66.008  1.00  0.00    -0.132 C  
HETATM   16  C   UNL     1      -7.640   9.564  66.615  1.00  0.00    -0.097 C  
HETATM   17  C   UNL     1      -6.671   9.733  67.797  1.00  0.00    -0.069 C  
HETATM   18  C   UNL     1      -7.222  10.731  68.807  1.00  0.00    -0.091 C  
BRANCH  16  19
HETATM   19  C   UNL     1      -8.883   8.821  67.029  1.00  0.00    -0.127 A  
HETATM   20  N   UNL     1     -10.099   9.245  66.652  1.00  0.00    -0.263 NA 
HETATM   21  O   UNL     1     -11.006   8.463  67.338  1.00  0.00    -0.114 OA 
HETATM   22  C   UNL     1     -10.338   7.562  68.108  1.00  0.00    -0.200 A  
HETATM   23  C   UNL     1      -8.983   7.691  67.895  1.00  0.00    -0.128 A  
HETATM   24  C   UNL     1      -8.111   6.818  68.569  1.00  0.00    -0.120 A  
HETATM   25  C   UNL     1      -8.662   5.897  69.473  1.00  0.00    -0.116 A  
HETATM   26  C   UNL     1     -10.040   5.841  69.678  1.00  0.00    -0.212 A  
HETATM   27  C   UNL     1     -10.928   6.655  68.982  1.00  0.00    -0.332 A  
HETATM   28  F   UNL     1     -10.523   4.978  70.581  1.00  0.00    -0.309 F  
ENDBRANCH  16  19
ENDBRANCH  12  13
ENDBRANCH  11  12
ENDBRANCH  10  11
ENDBRANCH   9  10
ENDBRANCH   4   9
BRANCH   6  29
HETATM   29  C   UNL     1     -11.930  13.440  63.881  1.00  0.00    -0.465 C  
HETATM   30  O   UNL     1     -12.774  14.031  63.210  1.00  0.00    -0.750 OA 
HETATM   31  C   UNL     1     -11.441  12.071  63.477  1.00  0.00    -0.536 C  
ENDBRANCH   6  29
ENDBRANCH   2   3
TORSDOF 8
ENDMDL
MODEL      156
REMARK 921   NORMALIZED FREE ENERGY PREDICTED BY IDOCK:   -5.30 KCAL/MOL
REMARK 922        TOTAL FREE ENERGY PREDICTED BY IDOCK:   -8.57 KCAL/MOL
REMARK 923 INTER-LIGAND FREE ENERGY PREDICTED BY IDOCK:   -8.65 KCAL/MOL
REMARK 924 INTRA-LIGAND FREE ENERGY PREDICTED BY IDOCK:    0.07 KCAL/MOL
REMARK 927      BINDING AFFINITY PREDICTED BY RF-SCORE:    0.00 PKD
ROOT
HETATM    1  C   UNL     1      -8.482  18.185  68.854  1.00  0.00    -0.117 C  
HETATM    2  O   UNL     1      -9.900  18.248  68.802  1.00  0.00    -0.354 OA 
ENDROOT
BRANCH   2   3
HETATM    3  C   UNL     1     -10.593  17.098  69.083  1.00  0.00    -0.259 A  
HETATM    4  C   UNL     1     -10.899  16.280  67.980  1.00  0.00    -0.339 A  
HETATM    5  C   UNL     1     -11.604  15.090  68.176  1.00  0.00    -0.360 A  
HETATM    6  C   UNL     1     -11.689  15.505  70.558  1.00  0.00    -0.377 A  
HETATM    7  C   UNL     1     -10.978  16.698  70.368  1.00  0.00    -0.014 A  
HETATM    8  C   UNL     1     -11.988  14.698  69.461  1.00  0.00    -0.361 A  
BRANCH   4   9
HETATM    9  O   UNL     1     -10.512  16.736  66.747  1.00  0.00    -0.301 OA 
BRANCH   9  10
HETATM   10  C   UNL     1      -9.857  15.818  65.870  1.00  0.00    -0.349 C  
BRANCH  10  11
HETATM   11  C   UNL     1     -10.803  15.256  64.803  1.00  0.00    -0.379 C  
BRANCH  11  12
HETATM   12  C   UNL     1     -11.483  13.928  65.187  1.00  0.00    -0.321 C  
BRANCH  12  13
HETATM   13  N   UNL     1     -10.519  12.828  65.293  1.00  0.00    -0.287 NA 
HETATM   14  C   UNL     1     -11.136  11.504  65.142  1.00  0.00    -0.194 C  
HETATM   15  C   UNL     1     -10.049  10.414  65.049  1.00  0.00    -0.379 C  
HETATM   16  C   UNL     1      -8.999  10.495  66.176  1.00  0.00    -0.178 C  
HETATM   17  C   UNL     1      -8.524  11.952  66.291  1.00  0.00     0.031 C  
HETATM   18  C   UNL     1      -9.706  12.889  66.504  1.00  0.00    -0.257 C  
BRANCH  16  19
HETATM   19  C   UNL     1      -9.481   9.970  67.503  1.00  0.00    -0.148 A  
HETATM   20  N   UNL     1      -9.300  10.674  68.631  1.00  0.00    -0.169 NA 
HETATM   21  O   UNL     1      -9.685   9.845  69.665  1.00  0.00    -0.204 OA 
HETATM   22  C   UNL     1     -10.113   8.657  69.159  1.00  0.00    -0.199 A  
HETATM   23  C   UNL     1     -10.079   8.704  67.782  1.00  0.00    -0.266 A  
HETATM   24  C   UNL     1     -10.525   7.583  67.059  1.00  0.00    -0.409 A  
HETATM   25  C   UNL     1     -10.925   6.447  67.779  1.00  0.00    -0.425 A  
HETATM   26  C   UNL     1     -10.899   6.444  69.172  1.00  0.00    -0.322 A  
HETATM   27  C   UNL     1     -10.517   7.559  69.911  1.00  0.00    -0.232 A  
HETATM   28  F   UNL     1     -11.249   5.325  69.821  1.00  0.00    -0.259 F  
ENDBRANCH  16  19
ENDBRANCH  12  13
ENDBRANCH  11  12
ENDBRANCH  10  11
ENDBRANCH   9  10
ENDBRANCH   4   9
BRANCH   6  29
HETATM   29  C   UNL     1     -12.100  15.144  71.943  1.00  0.00    -0.378 C  
HETATM   30  O   UNL     1     -12.494  14.004  72.178  1.00  0.00    -0.244 OA 
HETATM   31  C   UNL     1     -11.966  16.160  73.051  1.00  0.00    -0.593 C  
ENDBRANCH   6  29
ENDBRANCH   2   3
TORSDOF 8
ENDMDL
MODEL      157
REMARK 921   NORMALIZED FREE ENERGY PREDICTED BY IDOCK:   -5.30 KCAL/MOL
REMARK 922        TOTAL FREE ENERGY PREDICTED BY IDOCK:   -8.57 KCAL/MOL
REMARK 923 INTER-LIGAND FREE ENERGY PREDICTED BY IDOCK:   -7.58 KCAL/MOL
REMARK 924 INTRA-LIGAND FREE ENERGY PREDICTED BY IDOCK:   -0.98 KCAL/MOL
REMARK 927      BINDING AFFINITY PREDICTED BY RF-SCORE:    0.00 PKD
ROOT
HETATM    1  C   UNL     1      -8.027   3.697  66.185  1.00  0.00    -0.089 C  
HETATM    2  O   UNL     1      -7.808   4.891  66.922  1.00  0.00    -0.097 OA 
ENDROOT
BRANCH   2   3
HETATM    3  C   UNL     1      -8.287   6.061  66.387  1.00  0.00    -0.118 A  
HETATM    4  C   UNL     1      -9.257   6.734  67.153  1.00  0.00    -0.134 A  
HETATM    5  C   UNL     1      -9.800   7.932  66.682  1.00  0.00    -0.311 A  
HETATM    6  C   UNL     1      -8.410   7.812  64.705  1.00  0.00    -0.051 A  
HETATM    7  C   UNL     1      -7.860   6.612  65.175  1.00  0.00    -0.115 A  
HETATM    8  C   UNL     1      -9.370   8.476  65.469  1.00  0.00    -0.039 A  
BRANCH   4   9
HETATM    9  O   UNL     1      -9.649   6.134  68.321  1.00  0.00    -0.120 OA 
BRANCH   9  10
HETATM   10  C   UNL     1     -10.161   6.967  69.362  1.00  0.00    -0.182 C  
BRANCH  10  11
HETATM   11  C   UNL     1      -9.051   7.533  70.255  1.00  0.00    -0.154 C  
BRANCH  11  12
HETATM   12  C   UNL     1      -9.377   8.896  70.894  1.00  0.00    -0.238 C  
BRANCH  12  13
HETATM   13  N   UNL     1     -10.443   9.599  70.173  1.00  0.00    -0.252 NA 
HETATM   14  C   UNL     1      -9.938  10.497  69.128  1.00  0.00    -0.220 C  
HETATM   15  C   UNL     1     -11.104  11.036  68.274  1.00  0.00    -0.316 C  
HETATM   16  C   UNL     1     -12.256  11.630  69.111  1.00  0.00    -0.201 C  
HETATM   17  C   UNL     1     -12.605  10.633  70.229  1.00  0.00    -0.333 C  
HETATM   18  C   UNL     1     -11.371  10.299  71.057  1.00  0.00    -0.226 C  
BRANCH  16  19
HETATM   19  C   UNL     1     -11.967  12.998  69.669  1.00  0.00    -0.302 A  
HETATM   20  N   UNL     1     -10.994  13.764  69.152  1.00  0.00    -0.237 NA 
HETATM   21  O   UNL     1     -10.875  14.851  69.994  1.00  0.00    -0.239 OA 
HETATM   22  C   UNL     1     -11.785  14.748  71.000  1.00  0.00    -0.306 A  
HETATM   23  C   UNL     1     -12.561  13.627  70.805  1.00  0.00    -0.397 A  
HETATM   24  C   UNL     1     -13.596  13.358  71.718  1.00  0.00    -0.407 A  
HETATM   25  C   UNL     1     -13.748  14.215  72.819  1.00  0.00    -0.447 A  
HETATM   26  C   UNL     1     -12.905  15.312  72.986  1.00  0.00    -0.469 A  
HETATM   27  C   UNL     1     -11.910  15.632  72.067  1.00  0.00    -0.548 A  
HETATM   28  F   UNL     1     -13.055  16.082  74.072  1.00  0.00    -0.585 F  
ENDBRANCH  16  19
ENDBRANCH  12  13
ENDBRANCH  11  12
ENDBRANCH  10  11
ENDBRANCH   9  10
ENDBRANCH   4   9
BRANCH   6  29
HETATM   29  C   UNL     1      -7.939   8.336  63.394  1.00  0.00    -0.155 C  
HETATM   30  O   UNL     1      -8.687   9.046  62.724  1.00  0.00    -0.216 OA 
HETATM   31  C   UNL     1      -6.533   8.044  62.932  1.00  0.00    -0.081 C  
ENDBRANCH   6  29
ENDBRANCH   2   3
TORSDOF 8
ENDMDL
MODEL      158
REMARK 921   NORMALIZED FREE ENERGY PREDICTED BY IDOCK:   -5.29 KCAL/MOL
REMARK 922        TOTAL FREE ENERGY PREDICTED BY IDOCK:   -8.55 KCAL/MOL
REMARK 923 INTER-LIGAND FREE ENERGY PREDICTED BY IDOCK:   -6.68 KCAL/MOL
REMARK 924 INTRA-LIGAND FREE ENERGY PREDICTED BY IDOCK:   -1.87 KCAL/MOL
REMARK 927      BINDING AFFINITY PREDICTED BY RF-SCORE:    0.00 PKD
ROOT
HETATM    1  C   UNL     1     -10.719   4.217  65.412  1.00  0.00    -0.053 C  
HETATM    2  O   UNL     1     -10.622   5.567  65.842  1.00  0.00    -0.031 OA 
ENDROOT
BRANCH   2   3
HETATM    3  C   UNL     1      -9.888   5.818  66.974  1.00  0.00    -0.151 A  
HETATM    4  C   UNL     1      -8.569   6.263  66.766  1.00  0.00    -0.116 A  
HETATM    5  C   UNL     1      -7.751   6.540  67.864  1.00  0.00    -0.104 A  
HETATM    6  C   UNL     1      -9.547   5.958  69.378  1.00  0.00    -0.171 A  
HETATM    7  C   UNL     1     -10.373   5.683  68.280  1.00  0.00    -0.253 A  
HETATM    8  C   UNL     1      -8.241   6.400  69.165  1.00  0.00    -0.111 A  
BRANCH   4   9
HETATM    9  O   UNL     1      -8.147   6.357  65.465  1.00  0.00    -0.116 OA 
BRANCH   9  10
HETATM   10  C   UNL     1      -6.816   6.815  65.226  1.00  0.00    -0.051 C  
BRANCH  10  11
HETATM   11  C   UNL     1      -6.783   8.235  64.649  1.00  0.00    -0.068 C  
BRANCH  11  12
HETATM   12  C   UNL     1      -8.154   8.776  64.204  1.00  0.00    -0.162 C  
BRANCH  12  13
HETATM   13  N   UNL     1      -8.508  10.017  64.900  1.00  0.00    -0.156 NA 
HETATM   14  C   UNL     1      -7.964  10.091  66.261  1.00  0.00    -0.111 C  
HETATM   15  C   UNL     1      -8.188  11.497  66.853  1.00  0.00    -0.167 C  
HETATM   16  C   UNL     1      -9.644  11.992  66.729  1.00  0.00    -0.215 C  
HETATM   17  C   UNL     1     -10.114  11.754  65.285  1.00  0.00    -0.300 C  
HETATM   18  C   UNL     1      -9.942  10.292  64.896  1.00  0.00    -0.323 C  
BRANCH  16  19
HETATM   19  C   UNL     1     -10.590  11.370  67.722  1.00  0.00    -0.195 A  
HETATM   20  N   UNL     1     -11.913  11.578  67.639  1.00  0.00    -0.634 NA 
HETATM   21  O   UNL     1     -12.459  11.029  68.781  1.00  0.00    -0.468 OA 
HETATM   22  C   UNL     1     -11.471  10.477  69.536  1.00  0.00    -0.272 A  
HETATM   23  C   UNL     1     -10.268  10.596  68.877  1.00  0.00    -0.216 A  
HETATM   24  C   UNL     1      -9.117  10.048  69.472  1.00  0.00    -0.236 A  
HETATM   25  C   UNL     1      -9.244   9.461  70.740  1.00  0.00    -0.278 A  
HETATM   26  C   UNL     1     -10.482   9.407  71.378  1.00  0.00    -0.288 A  
HETATM   27  C   UNL     1     -11.644   9.890  70.785  1.00  0.00    -0.430 A  
HETATM   28  F   UNL     1     -10.553   8.875  72.606  1.00  0.00    -0.321 F  
ENDBRANCH  16  19
ENDBRANCH  12  13
ENDBRANCH  11  12
ENDBRANCH  10  11
ENDBRANCH   9  10
ENDBRANCH   4   9
BRANCH   6  29
HETATM   29  C   UNL     1     -10.106   5.767  70.745  1.00  0.00    -0.202 C  
HETATM   30  O   UNL     1     -11.250   6.147  70.987  1.00  0.00    -0.296 OA 
HETATM   31  C   UNL     1      -9.289   5.055  71.794  1.00  0.00    -0.184 C  
ENDBRANCH   6  29
ENDBRANCH   2   3
TORSDOF 8
ENDMDL
MODEL      159
REMARK 921   NORMALIZED FREE ENERGY PREDICTED BY IDOCK:   -5.28 KCAL/MOL
REMARK 922        TOTAL FREE ENERGY PREDICTED BY IDOCK:   -8.55 KCAL/MOL
REMARK 923 INTER-LIGAND FREE ENERGY PREDICTED BY IDOCK:   -9.02 KCAL/MOL
REMARK 924 INTRA-LIGAND FREE ENERGY PREDICTED BY IDOCK:    0.47 KCAL/MOL
REMARK 927      BINDING AFFINITY PREDICTED BY RF-SCORE:    0.00 PKD
ROOT
HETATM    1  C   UNL     1     -11.984   8.233  71.108  1.00  0.00    -0.265 C  
HETATM    2  O   UNL     1     -11.223   9.397  71.394  1.00  0.00    -0.330 OA 
ENDROOT
BRANCH   2   3
HETATM    3  C   UNL     1     -10.200   9.710  70.533  1.00  0.00    -0.287 A  
HETATM    4  C   UNL     1     -10.499  10.668  69.547  1.00  0.00    -0.204 A  
HETATM    5  C   UNL     1      -9.517  11.044  68.628  1.00  0.00    -0.197 A  
HETATM    6  C   UNL     1      -7.933   9.542  69.672  1.00  0.00    -0.120 A  
HETATM    7  C   UNL     1      -8.914   9.164  70.598  1.00  0.00    -0.292 A  
HETATM    8  C   UNL     1      -8.235  10.493  68.697  1.00  0.00    -0.130 A  
BRANCH   4   9
HETATM    9  O   UNL     1     -11.782  11.151  69.523  1.00  0.00    -0.273 OA 
BRANCH   9  10
HETATM   10  C   UNL     1     -12.170  12.067  70.548  1.00  0.00    -0.325 C  
BRANCH  10  11
HETATM   11  C   UNL     1     -12.418  13.479  70.003  1.00  0.00    -0.231 C  
BRANCH  11  12
HETATM   12  C   UNL     1     -11.629  14.589  70.722  1.00  0.00    -0.205 C  
BRANCH  12  13
HETATM   13  N   UNL     1     -10.781  15.347  69.796  1.00  0.00    -0.271 NA 
HETATM   14  C   UNL     1     -11.475  16.482  69.175  1.00  0.00    -0.084 C  
HETATM   15  C   UNL     1     -10.477  17.355  68.388  1.00  0.00    -0.384 C  
HETATM   16  C   UNL     1      -9.589  16.551  67.416  1.00  0.00    -0.238 C  
HETATM   17  C   UNL     1      -9.019  15.339  68.171  1.00  0.00    -0.173 C  
HETATM   18  C   UNL     1     -10.140  14.511  68.785  1.00  0.00    -0.239 C  
BRANCH  16  19
HETATM   19  C   UNL     1     -10.291  16.127  66.152  1.00  0.00    -0.339 A  
HETATM   20  N   UNL     1     -10.508  17.000  65.157  1.00  0.00    -0.655 NA 
HETATM   21  O   UNL     1     -11.317  16.349  64.247  1.00  0.00    -0.892 OA 
HETATM   22  C   UNL     1     -11.567  15.085  64.685  1.00  0.00    -0.386 A  
HETATM   23  C   UNL     1     -10.878  14.860  65.856  1.00  0.00    -0.336 A  
HETATM   24  C   UNL     1     -10.968  13.591  66.457  1.00  0.00    -0.295 A  
HETATM   25  C   UNL     1     -11.807  12.636  65.862  1.00  0.00    -0.499 A  
HETATM   26  C   UNL     1     -12.512  12.935  64.699  1.00  0.00    -0.434 A  
HETATM   27  C   UNL     1     -12.396  14.163  64.055  1.00  0.00    -0.315 A  
HETATM   28  F   UNL     1     -13.335  12.010  64.186  1.00  0.00    -0.486 F  
ENDBRANCH  16  19
ENDBRANCH  12  13
ENDBRANCH  11  12
ENDBRANCH  10  11
ENDBRANCH   9  10
ENDBRANCH   4   9
BRANCH   6  29
HETATM   29  C   UNL     1      -6.590   8.906  69.769  1.00  0.00    -0.041 C  
HETATM   30  O   UNL     1      -6.008   8.565  68.741  1.00  0.00    -0.042 OA 
HETATM   31  C   UNL     1      -5.935   8.746  71.118  1.00  0.00    -0.045 C  
ENDBRANCH   6  29
ENDBRANCH   2   3
TORSDOF 8
ENDMDL
MODEL      160
REMARK 921   NORMALIZED FREE ENERGY PREDICTED BY IDOCK:   -5.28 KCAL/MOL
REMARK 922        TOTAL FREE ENERGY PREDICTED BY IDOCK:   -8.54 KCAL/MOL
REMARK 923 INTER-LIGAND FREE ENERGY PREDICTED BY IDOCK:   -7.55 KCAL/MOL
REMARK 924 INTRA-LIGAND FREE ENERGY PREDICTED BY IDOCK:   -0.99 KCAL/MOL
REMARK 927      BINDING AFFINITY PREDICTED BY RF-SCORE:    0.00 PKD
ROOT
HETATM    1  C   UNL     1     -10.545  16.774  65.371  1.00  0.00    -0.203 C  
HETATM    2  O   UNL     1     -10.713  17.718  66.418  1.00  0.00    -0.247 OA 
ENDROOT
BRANCH   2   3
HETATM    3  C   UNL     1      -9.587  18.341  66.894  1.00  0.00    -0.296 A  
HETATM    4  C   UNL     1      -9.385  18.268  68.284  1.00  0.00    -0.308 A  
HETATM    5  C   UNL     1      -8.264  18.877  68.853  1.00  0.00    -0.279 A  
HETATM    6  C   UNL     1      -7.527  19.614  66.669  1.00  0.00    -0.270 A  
HETATM    7  C   UNL     1      -8.648  19.002  66.094  1.00  0.00    -0.208 A  
HETATM    8  C   UNL     1      -7.331  19.537  68.048  1.00  0.00    -0.317 A  
BRANCH   4   9
HETATM    9  O   UNL     1     -10.349  17.624  69.016  1.00  0.00    -0.360 OA 
BRANCH   9  10
HETATM   10  C   UNL     1     -10.014  16.366  69.601  1.00  0.00    -0.087 C  
BRANCH  10  11
HETATM   11  C   UNL     1     -10.569  15.184  68.798  1.00  0.00    -0.236 C  
BRANCH  11  12
HETATM   12  C   UNL     1      -9.509  14.396  68.006  1.00  0.00    -0.209 C  
BRANCH  12  13
HETATM   13  N   UNL     1      -9.931  13.016  67.744  1.00  0.00    -0.221 NA 
HETATM   14  C   UNL     1     -11.333  12.764  68.099  1.00  0.00    -0.288 C  
HETATM   15  C   UNL     1     -11.770  11.371  67.604  1.00  0.00    -0.246 C  
HETATM   16  C   UNL     1     -10.803  10.241  68.015  1.00  0.00    -0.325 C  
HETATM   17  C   UNL     1      -9.369  10.687  67.686  1.00  0.00    -0.156 C  
HETATM   18  C   UNL     1      -9.053  12.020  68.351  1.00  0.00    -0.158 C  
BRANCH  16  19
HETATM   19  C   UNL     1     -10.928   9.822  69.457  1.00  0.00    -0.227 A  
HETATM   20  N   UNL     1     -11.672  10.530  70.320  1.00  0.00    -0.305 NA 
HETATM   21  O   UNL     1     -11.427   9.991  71.567  1.00  0.00    -0.332 OA 
HETATM   22  C   UNL     1     -10.555   8.953  71.450  1.00  0.00    -0.303 A  
HETATM   23  C   UNL     1     -10.260   8.749  70.120  1.00  0.00    -0.207 A  
HETATM   24  C   UNL     1      -9.402   7.688  69.777  1.00  0.00    -0.150 A  
HETATM   25  C   UNL     1      -8.841   6.928  70.814  1.00  0.00    -0.150 A  
HETATM   26  C   UNL     1      -9.145   7.209  72.145  1.00  0.00    -0.129 A  
HETATM   27  C   UNL     1     -10.034   8.215  72.507  1.00  0.00    -0.372 A  
HETATM   28  F   UNL     1      -8.555   6.487  73.108  1.00  0.00    -0.121 F  
ENDBRANCH  16  19
ENDBRANCH  12  13
ENDBRANCH  11  12
ENDBRANCH  10  11
ENDBRANCH   9  10
ENDBRANCH   4   9
BRANCH   6  29
HETATM   29  C   UNL     1      -6.578  20.329  65.773  1.00  0.00    -0.247 C  
HETATM   30  O   UNL     1      -6.670  20.182  64.555  1.00  0.00    -0.280 OA 
HETATM   31  C   UNL     1      -5.559  21.272  66.363  1.00  0.00    -0.312 C  
ENDBRANCH   6  29
ENDBRANCH   2   3
TORSDOF 8
ENDMDL
MODEL      161
REMARK 921   NORMALIZED FREE ENERGY PREDICTED BY IDOCK:   -5.27 KCAL/MOL
REMARK 922        TOTAL FREE ENERGY PREDICTED BY IDOCK:   -8.53 KCAL/MOL
REMARK 923 INTER-LIGAND FREE ENERGY PREDICTED BY IDOCK:   -6.86 KCAL/MOL
REMARK 924 INTRA-LIGAND FREE ENERGY PREDICTED BY IDOCK:   -1.67 KCAL/MOL
REMARK 927      BINDING AFFINITY PREDICTED BY RF-SCORE:    0.00 PKD
ROOT
HETATM    1  C   UNL     1     -11.646   6.359  70.548  1.00  0.00    -0.358 C  
HETATM    2  O   UNL     1     -10.517   5.497  70.530  1.00  0.00    -0.250 OA 
ENDROOT
BRANCH   2   3
HETATM    3  C   UNL     1      -9.298   6.060  70.245  1.00  0.00    -0.159 A  
HETATM    4  C   UNL     1      -8.396   5.246  69.535  1.00  0.00    -0.095 A  
HETATM    5  C   UNL     1      -7.132   5.740  69.205  1.00  0.00    -0.065 A  
HETATM    6  C   UNL     1      -7.656   7.854  70.259  1.00  0.00    -0.086 A  
HETATM    7  C   UNL     1      -8.927   7.365  70.590  1.00  0.00    -0.155 A  
HETATM    8  C   UNL     1      -6.767   7.043  69.555  1.00  0.00    -0.049 A  
BRANCH   4   9
HETATM    9  O   UNL     1      -8.811   3.972  69.244  1.00  0.00    -0.082 OA 
BRANCH   9  10
HETATM   10  C   UNL     1      -9.665   3.790  68.115  1.00  0.00    -0.046 C  
BRANCH  10  11
HETATM   11  C   UNL     1      -8.929   4.003  66.787  1.00  0.00    -0.137 C  
BRANCH  11  12
HETATM   12  C   UNL     1      -9.554   5.075  65.874  1.00  0.00    -0.164 C  
BRANCH  12  13
HETATM   13  N   UNL     1      -9.224   6.434  66.316  1.00  0.00    -0.157 NA 
HETATM   14  C   UNL     1     -10.401   7.212  66.720  1.00  0.00    -0.227 C  
HETATM   15  C   UNL     1      -9.969   8.541  67.370  1.00  0.00    -0.275 C  
HETATM   16  C   UNL     1      -8.949   9.334  66.528  1.00  0.00    -0.178 C  
HETATM   17  C   UNL     1      -7.834   8.372  66.086  1.00  0.00    -0.101 C  
HETATM   18  C   UNL     1      -8.417   7.173  65.350  1.00  0.00    -0.082 C  
BRANCH  16  19
HETATM   19  C   UNL     1      -9.552  10.051  65.348  1.00  0.00    -0.279 A  
HETATM   20  N   UNL     1      -9.148   9.783  64.097  1.00  0.00    -0.248 NA 
HETATM   21  O   UNL     1      -9.756  10.723  63.289  1.00  0.00    -0.299 OA 
HETATM   22  C   UNL     1     -10.536  11.538  64.049  1.00  0.00    -0.379 A  
HETATM   23  C   UNL     1     -10.506  11.112  65.359  1.00  0.00    -0.321 A  
HETATM   24  C   UNL     1     -11.286  11.799  66.308  1.00  0.00    -0.370 A  
HETATM   25  C   UNL     1     -12.008  12.924  65.882  1.00  0.00    -0.504 A  
HETATM   26  C   UNL     1     -11.966  13.332  64.550  1.00  0.00    -0.400 A  
HETATM   27  C   UNL     1     -11.249  12.637  63.582  1.00  0.00    -0.525 A  
HETATM   28  F   UNL     1     -12.635  14.437  64.192  1.00  0.00    -0.449 F  
ENDBRANCH  16  19
ENDBRANCH  12  13
ENDBRANCH  11  12
ENDBRANCH  10  11
ENDBRANCH   9  10
ENDBRANCH   4   9
BRANCH   6  29
HETATM   29  C   UNL     1      -7.304   9.238  70.678  1.00  0.00    -0.123 C  
HETATM   30  O   UNL     1      -7.196   9.497  71.875  1.00  0.00    -0.182 OA 
HETATM   31  C   UNL     1      -7.022  10.288  69.631  1.00  0.00    -0.114 C  
ENDBRANCH   6  29
ENDBRANCH   2   3
TORSDOF 8
ENDMDL
MODEL      162
REMARK 921   NORMALIZED FREE ENERGY PREDICTED BY IDOCK:   -5.27 KCAL/MOL
REMARK 922        TOTAL FREE ENERGY PREDICTED BY IDOCK:   -8.53 KCAL/MOL
REMARK 923 INTER-LIGAND FREE ENERGY PREDICTED BY IDOCK:   -7.21 KCAL/MOL
REMARK 924 INTRA-LIGAND FREE ENERGY PREDICTED BY IDOCK:   -1.32 KCAL/MOL
REMARK 927      BINDING AFFINITY PREDICTED BY RF-SCORE:    0.00 PKD
ROOT
HETATM    1  C   UNL     1     -14.409   8.363  71.951  1.00  0.00    -0.473 C  
HETATM    2  O   UNL     1     -13.421   9.170  72.575  1.00  0.00    -0.464 OA 
ENDROOT
BRANCH   2   3
HETATM    3  C   UNL     1     -12.732  10.052  71.780  1.00  0.00    -0.428 A  
HETATM    4  C   UNL     1     -11.643   9.517  71.069  1.00  0.00    -0.344 A  
HETATM    5  C   UNL     1     -10.885  10.346  70.238  1.00  0.00    -0.308 A  
HETATM    6  C   UNL     1     -12.295  12.232  70.794  1.00  0.00    -0.383 A  
HETATM    7  C   UNL     1     -13.060  11.404  71.627  1.00  0.00    -0.498 A  
HETATM    8  C   UNL     1     -11.217  11.695  70.091  1.00  0.00     0.056 A  
BRANCH   4   9
HETATM    9  O   UNL     1     -11.360   8.192  71.277  1.00  0.00    -0.254 OA 
BRANCH   9  10
HETATM   10  C   UNL     1     -11.056   7.387  70.137  1.00  0.00    -0.246 C  
BRANCH  10  11
HETATM   11  C   UNL     1      -9.548   7.288  69.878  1.00  0.00    -0.163 C  
BRANCH  11  12
HETATM   12  C   UNL     1      -9.169   6.560  68.576  1.00  0.00    -0.125 C  
BRANCH  12  13
HETATM   13  N   UNL     1      -8.694   7.488  67.545  1.00  0.00    -0.125 NA 
HETATM   14  C   UNL     1      -7.893   8.592  68.087  1.00  0.00    -0.103 C  
HETATM   15  C   UNL     1      -7.252   9.402  66.942  1.00  0.00    -0.087 C  
HETATM   16  C   UNL     1      -8.256   9.829  65.852  1.00  0.00    -0.117 C  
HETATM   17  C   UNL     1      -9.096   8.602  65.461  1.00  0.00    -0.190 C  
HETATM   18  C   UNL     1      -9.763   7.992  66.687  1.00  0.00    -0.243 C  
BRANCH  16  19
HETATM   19  C   UNL     1      -9.134  10.988  66.247  1.00  0.00    -0.182 A  
HETATM   20  N   UNL     1     -10.425  11.030  65.887  1.00  0.00    -0.254 NA 
HETATM   21  O   UNL     1     -10.881  12.283  66.243  1.00  0.00    -0.260 OA 
HETATM   22  C   UNL     1      -9.873  12.983  66.831  1.00  0.00    -0.240 A  
HETATM   23  C   UNL     1      -8.756  12.183  66.930  1.00  0.00    -0.194 A  
HETATM   24  C   UNL     1      -7.607  12.706  67.550  1.00  0.00    -0.160 A  
HETATM   25  C   UNL     1      -7.638  14.041  67.983  1.00  0.00    -0.143 A  
HETATM   26  C   UNL     1      -8.785  14.815  67.817  1.00  0.00    -0.172 A  
HETATM   27  C   UNL     1      -9.951  14.303  67.259  1.00  0.00    -0.252 A  
HETATM   28  F   UNL     1      -8.759  16.097  68.205  1.00  0.00    -0.167 F  
ENDBRANCH  16  19
ENDBRANCH  12  13
ENDBRANCH  11  12
ENDBRANCH  10  11
ENDBRANCH   9  10
ENDBRANCH   4   9
BRANCH   6  29
HETATM   29  C   UNL     1     -12.672  13.668  70.693  1.00  0.00    -0.233 C  
HETATM   30  O   UNL     1     -12.905  14.154  69.588  1.00  0.00    -0.042 OA 
HETATM   31  C   UNL     1     -12.823  14.492  71.948  1.00  0.00    -0.410 C  
ENDBRANCH   6  29
ENDBRANCH   2   3
TORSDOF 8
ENDMDL
MODEL      163
REMARK 921   NORMALIZED FREE ENERGY PREDICTED BY IDOCK:   -5.24 KCAL/MOL
REMARK 922        TOTAL FREE ENERGY PREDICTED BY IDOCK:   -8.49 KCAL/MOL
REMARK 923 INTER-LIGAND FREE ENERGY PREDICTED BY IDOCK:   -7.92 KCAL/MOL
REMARK 924 INTRA-LIGAND FREE ENERGY PREDICTED BY IDOCK:   -0.56 KCAL/MOL
REMARK 927      BINDING AFFINITY PREDICTED BY RF-SCORE:    0.00 PKD
ROOT
HETATM    1  C   UNL     1      -6.806  15.425  67.650  1.00  0.00    -0.182 C  
HETATM    2  O   UNL     1      -7.868  14.916  66.857  1.00  0.00    -0.155 OA 
ENDROOT
BRANCH   2   3
HETATM    3  C   UNL     1      -8.832  15.803  66.447  1.00  0.00    -0.336 A  
HETATM    4  C   UNL     1      -9.836  15.277  65.613  1.00  0.00    -0.348 A  
HETATM    5  C   UNL     1     -10.855  16.111  65.148  1.00  0.00    -0.376 A  
HETATM    6  C   UNL     1      -9.902  17.984  66.347  1.00  0.00    -0.340 A  
HETATM    7  C   UNL     1      -8.880  17.150  66.820  1.00  0.00    -0.270 A  
HETATM    8  C   UNL     1     -10.896  17.457  65.523  1.00  0.00     0.001 A  
BRANCH   4   9
HETATM    9  O   UNL     1      -9.723  13.955  65.267  1.00  0.00    -0.177 OA 
BRANCH   9  10
HETATM   10  C   UNL     1     -10.662  13.427  64.330  1.00  0.00    -0.408 C  
BRANCH  10  11
HETATM   11  C   UNL     1     -10.210  12.084  63.746  1.00  0.00    -0.447 C  
BRANCH  11  12
HETATM   12  C   UNL     1     -10.600  10.856  64.589  1.00  0.00    -0.262 C  
BRANCH  12  13
HETATM   13  N   UNL     1      -9.882  10.816  65.867  1.00  0.00    -0.227 NA 
HETATM   14  C   UNL     1      -9.277   9.509  66.150  1.00  0.00    -0.177 C  
HETATM   15  C   UNL     1      -8.366   9.596  67.391  1.00  0.00    -0.114 C  
HETATM   16  C   UNL     1      -9.047  10.251  68.610  1.00  0.00    -0.152 C  
HETATM   17  C   UNL     1      -9.727  11.549  68.144  1.00  0.00    -0.192 C  
HETATM   18  C   UNL     1     -10.688  11.272  66.996  1.00  0.00    -0.260 C  
BRANCH  16  19
HETATM   19  C   UNL     1     -10.020   9.351  69.326  1.00  0.00    -0.181 A  
HETATM   20  N   UNL     1     -11.066   9.859  69.995  1.00  0.00    -0.268 NA 
HETATM   21  O   UNL     1     -11.637   8.801  70.672  1.00  0.00    -0.270 OA 
HETATM   22  C   UNL     1     -10.948   7.661  70.397  1.00  0.00    -0.247 A  
HETATM   23  C   UNL     1      -9.953   7.935  69.485  1.00  0.00    -0.189 A  
HETATM   24  C   UNL     1      -9.146   6.876  69.031  1.00  0.00    -0.138 A  
HETATM   25  C   UNL     1      -9.356   5.601  69.580  1.00  0.00    -0.165 A  
HETATM   26  C   UNL     1     -10.353   5.393  70.531  1.00  0.00    -0.274 A  
HETATM   27  C   UNL     1     -11.201   6.412  70.953  1.00  0.00    -0.384 A  
HETATM   28  F   UNL     1     -10.494   4.170  71.061  1.00  0.00    -0.166 F  
ENDBRANCH  16  19
ENDBRANCH  12  13
ENDBRANCH  11  12
ENDBRANCH  10  11
ENDBRANCH   9  10
ENDBRANCH   4   9
BRANCH   6  29
HETATM   29  C   UNL     1      -9.886  19.416  66.752  1.00  0.00    -0.362 C  
HETATM   30  O   UNL     1      -9.504  20.266  65.950  1.00  0.00    -0.295 OA 
HETATM   31  C   UNL     1     -10.397  19.814  68.115  1.00  0.00    -0.561 C  
ENDBRANCH   6  29
ENDBRANCH   2   3
TORSDOF 8
ENDMDL
MODEL      164
REMARK 921   NORMALIZED FREE ENERGY PREDICTED BY IDOCK:   -5.24 KCAL/MOL
REMARK 922        TOTAL FREE ENERGY PREDICTED BY IDOCK:   -8.48 KCAL/MOL
REMARK 923 INTER-LIGAND FREE ENERGY PREDICTED BY IDOCK:   -6.29 KCAL/MOL
REMARK 924 INTRA-LIGAND FREE ENERGY PREDICTED BY IDOCK:   -2.19 KCAL/MOL
REMARK 927      BINDING AFFINITY PREDICTED BY RF-SCORE:    0.00 PKD
ROOT
HETATM    1  C   UNL     1      -7.794   8.843  71.328  1.00  0.00    -0.125 C  
HETATM    2  O   UNL     1      -7.927   8.719  69.920  1.00  0.00    -0.097 OA 
ENDROOT
BRANCH   2   3
HETATM    3  C   UNL     1      -9.004   9.332  69.331  1.00  0.00    -0.147 A  
HETATM    4  C   UNL     1      -9.023   9.323  67.924  1.00  0.00    -0.127 A  
HETATM    5  C   UNL     1     -10.082   9.927  67.243  1.00  0.00    -0.264 A  
HETATM    6  C   UNL     1     -11.119  10.532  69.344  1.00  0.00    -0.310 A  
HETATM    7  C   UNL     1     -10.060   9.925  70.032  1.00  0.00    -0.308 A  
HETATM    8  C   UNL     1     -11.133  10.518  67.949  1.00  0.00    -0.367 A  
BRANCH   4   9
HETATM    9  O   UNL     1      -7.950   8.745  67.296  1.00  0.00    -0.097 OA 
BRANCH   9  10
HETATM   10  C   UNL     1      -7.893   8.816  65.871  1.00  0.00    -0.102 C  
BRANCH  10  11
HETATM   11  C   UNL     1      -8.235   7.477  65.206  1.00  0.00    -0.130 C  
BRANCH  11  12
HETATM   12  C   UNL     1      -7.308   6.313  65.602  1.00  0.00    -0.080 C  
BRANCH  12  13
HETATM   13  N   UNL     1      -7.985   5.342  66.469  1.00  0.00    -0.104 NA 
HETATM   14  C   UNL     1      -9.361   5.728  66.803  1.00  0.00    -0.133 C  
HETATM   15  C   UNL     1     -10.081   4.574  67.530  1.00  0.00    -0.096 C  
HETATM   16  C   UNL     1      -9.281   4.002  68.719  1.00  0.00    -0.211 C  
HETATM   17  C   UNL     1      -7.837   3.749  68.253  1.00  0.00    -0.072 C  
HETATM   18  C   UNL     1      -7.228   5.018  67.674  1.00  0.00    -0.070 C  
BRANCH  16  19
HETATM   19  C   UNL     1      -9.313   4.866  69.953  1.00  0.00    -0.141 A  
HETATM   20  N   UNL     1      -8.373   4.748  70.902  1.00  0.00    -0.096 NA 
HETATM   21  O   UNL     1      -8.792   5.536  71.955  1.00  0.00    -0.134 OA 
HETATM   22  C   UNL     1      -9.968   6.138  71.631  1.00  0.00    -0.177 A  
HETATM   23  C   UNL     1     -10.312   5.809  70.338  1.00  0.00    -0.310 A  
HETATM   24  C   UNL     1     -11.482   6.365  69.791  1.00  0.00    -0.468 A  
HETATM   25  C   UNL     1     -12.275   7.181  70.613  1.00  0.00    -0.245 A  
HETATM   26  C   UNL     1     -11.897   7.446  71.928  1.00  0.00    -0.297 A  
HETATM   27  C   UNL     1     -10.715   6.954  72.474  1.00  0.00    -0.263 A  
HETATM   28  F   UNL     1     -12.702   8.195  72.693  1.00  0.00    -0.297 F  
ENDBRANCH  16  19
ENDBRANCH  12  13
ENDBRANCH  11  12
ENDBRANCH  10  11
ENDBRANCH   9  10
ENDBRANCH   4   9
BRANCH   6  29
HETATM   29  C   UNL     1     -12.201  11.173  70.141  1.00  0.00    -0.337 C  
HETATM   30  O   UNL     1     -13.140  10.490  70.544  1.00  0.00    -0.322 OA 
HETATM   31  C   UNL     1     -12.099  12.636  70.498  1.00  0.00    -0.360 C  
ENDBRANCH   6  29
ENDBRANCH   2   3
TORSDOF 8
ENDMDL
MODEL      165
REMARK 921   NORMALIZED FREE ENERGY PREDICTED BY IDOCK:   -5.23 KCAL/MOL
REMARK 922        TOTAL FREE ENERGY PREDICTED BY IDOCK:   -8.47 KCAL/MOL
REMARK 923 INTER-LIGAND FREE ENERGY PREDICTED BY IDOCK:   -7.50 KCAL/MOL
REMARK 924 INTRA-LIGAND FREE ENERGY PREDICTED BY IDOCK:   -0.97 KCAL/MOL
REMARK 927      BINDING AFFINITY PREDICTED BY RF-SCORE:    0.00 PKD
ROOT
HETATM    1  C   UNL     1      -8.039  16.021  68.555  1.00  0.00    -0.169 C  
HETATM    2  O   UNL     1      -8.630  14.758  68.285  1.00  0.00    -0.151 OA 
ENDROOT
BRANCH   2   3
HETATM    3  C   UNL     1      -9.917  14.558  68.719  1.00  0.00    -0.232 A  
HETATM    4  C   UNL     1     -10.704  13.699  67.931  1.00  0.00    -0.247 A  
HETATM    5  C   UNL     1     -12.027  13.441  68.299  1.00  0.00    -0.352 A  
HETATM    6  C   UNL     1     -11.789  14.866  70.240  1.00  0.00    -0.358 A  
HETATM    7  C   UNL     1     -10.461  15.125  69.877  1.00  0.00    -0.234 A  
HETATM    8  C   UNL     1     -12.564  14.013  69.456  1.00  0.00     0.007 A  
BRANCH   4   9
HETATM    9  O   UNL     1     -10.121  13.191  66.799  1.00  0.00    -0.243 OA 
BRANCH   9  10
HETATM   10  C   UNL     1     -10.164  11.777  66.603  1.00  0.00    -0.210 C  
BRANCH  10  11
HETATM   11  C   UNL     1      -9.859  11.001  67.889  1.00  0.00    -0.186 C  
BRANCH  11  12
HETATM   12  C   UNL     1     -10.342   9.538  67.883  1.00  0.00    -0.227 C  
BRANCH  12  13
HETATM   13  N   UNL     1     -11.015   9.177  69.135  1.00  0.00    -0.104 NA 
HETATM   14  C   UNL     1     -10.733  10.110  70.232  1.00  0.00    -0.293 C  
HETATM   15  C   UNL     1     -11.632   9.799  71.445  1.00  0.00    -0.452 C  
HETATM   16  C   UNL     1     -11.611   8.313  71.861  1.00  0.00    -0.377 C  
HETATM   17  C   UNL     1     -11.809   7.455  70.600  1.00  0.00    -0.245 C  
HETATM   18  C   UNL     1     -10.766   7.799  69.546  1.00  0.00    -0.198 C  
BRANCH  16  19
HETATM   19  C   UNL     1     -10.372   7.903  72.612  1.00  0.00    -0.308 A  
HETATM   20  N   UNL     1      -9.367   8.769  72.810  1.00  0.00    -0.232 NA 
HETATM   21  O   UNL     1      -8.333   8.037  73.357  1.00  0.00    -0.178 OA 
HETATM   22  C   UNL     1      -8.722   6.741  73.504  1.00  0.00    -0.127 A  
HETATM   23  C   UNL     1     -10.038   6.611  73.117  1.00  0.00    -0.213 A  
HETATM   24  C   UNL     1     -10.651   5.350  73.231  1.00  0.00    -0.288 A  
HETATM   25  C   UNL     1      -9.870   4.272  73.677  1.00  0.00    -0.156 A  
HETATM   26  C   UNL     1      -8.531   4.457  74.015  1.00  0.00    -0.099 A  
HETATM   27  C   UNL     1      -7.918   5.705  73.965  1.00  0.00    -0.102 A  
HETATM   28  F   UNL     1      -7.809   3.395  74.396  1.00  0.00    -0.058 F  
ENDBRANCH  16  19
ENDBRANCH  12  13
ENDBRANCH  11  12
ENDBRANCH  10  11
ENDBRANCH   9  10
ENDBRANCH   4   9
BRANCH   6  29
HETATM   29  C   UNL     1     -12.324  15.521  71.466  1.00  0.00    -0.401 C  
HETATM   30  O   UNL     1     -11.573  16.199  72.164  1.00  0.00    -0.450 OA 
HETATM   31  C   UNL     1     -13.790  15.398  71.800  1.00  0.00    -0.620 C  
ENDBRANCH   6  29
ENDBRANCH   2   3
TORSDOF 8
ENDMDL
MODEL      166
REMARK 921   NORMALIZED FREE ENERGY PREDICTED BY IDOCK:   -5.19 KCAL/MOL
REMARK 922        TOTAL FREE ENERGY PREDICTED BY IDOCK:   -8.41 KCAL/MOL
REMARK 923 INTER-LIGAND FREE ENERGY PREDICTED BY IDOCK:   -7.78 KCAL/MOL
REMARK 924 INTRA-LIGAND FREE ENERGY PREDICTED BY IDOCK:   -0.63 KCAL/MOL
REMARK 927      BINDING AFFINITY PREDICTED BY RF-SCORE:    0.00 PKD
ROOT
HETATM    1  C   UNL     1      -9.278  13.616  68.156  1.00  0.00    -0.204 C  
HETATM    2  O   UNL     1      -9.484  13.445  66.761  1.00  0.00    -0.247 OA 
ENDROOT
BRANCH   2   3
HETATM    3  C   UNL     1     -10.111  14.461  66.085  1.00  0.00    -0.309 A  
HETATM    4  C   UNL     1     -11.016  14.066  65.083  1.00  0.00    -0.353 A  
HETATM    5  C   UNL     1     -11.697  15.037  64.345  1.00  0.00    -0.320 A  
HETATM    6  C   UNL     1     -10.605  16.793  65.602  1.00  0.00    -0.258 A  
HETATM    7  C   UNL     1      -9.922  15.823  66.348  1.00  0.00    -0.294 A  
HETATM    8  C   UNL     1     -11.502  16.395  64.611  1.00  0.00    -0.092 A  
BRANCH   4   9
HETATM    9  O   UNL     1     -11.143  12.720  64.860  1.00  0.00    -0.279 OA 
BRANCH   9  10
HETATM   10  C   UNL     1     -10.236  12.106  63.943  1.00  0.00    -0.400 C  
BRANCH  10  11
HETATM   11  C   UNL     1      -9.780  10.720  64.414  1.00  0.00    -0.356 C  
BRANCH  11  12
HETATM   12  C   UNL     1     -10.468  10.223  65.698  1.00  0.00    -0.082 C  
BRANCH  12  13
HETATM   13  N   UNL     1      -9.641   9.254  66.425  1.00  0.00    -0.217 NA 
HETATM   14  C   UNL     1     -10.407   8.115  66.943  1.00  0.00    -0.331 C  
HETATM   15  C   UNL     1      -9.456   7.038  67.504  1.00  0.00    -0.144 C  
HETATM   16  C   UNL     1      -8.411   7.596  68.492  1.00  0.00    -0.129 C  
HETATM   17  C   UNL     1      -7.769   8.844  67.865  1.00  0.00    -0.101 C  
HETATM   18  C   UNL     1      -8.835   9.862  67.480  1.00  0.00    -0.128 C  
BRANCH  16  19
HETATM   19  C   UNL     1      -8.960   7.894  69.863  1.00  0.00    -0.146 A  
HETATM   20  N   UNL     1      -8.788   9.098  70.429  1.00  0.00    -0.200 NA 
HETATM   21  O   UNL     1      -9.243   8.979  71.726  1.00  0.00    -0.329 OA 
HETATM   22  C   UNL     1      -9.704   7.716  71.932  1.00  0.00    -0.164 A  
HETATM   23  C   UNL     1      -9.620   6.999  70.758  1.00  0.00    -0.164 A  
HETATM   24  C   UNL     1     -10.088   5.673  70.744  1.00  0.00    -0.270 A  
HETATM   25  C   UNL     1     -10.562   5.126  71.947  1.00  0.00    -0.256 A  
HETATM   26  C   UNL     1     -10.583   5.887  73.114  1.00  0.00    -0.245 A  
HETATM   27  C   UNL     1     -10.179   7.218  73.140  1.00  0.00    -0.344 A  
HETATM   28  F   UNL     1     -11.003   5.314  74.250  1.00  0.00    -0.297 F  
ENDBRANCH  16  19
ENDBRANCH  12  13
ENDBRANCH  11  12
ENDBRANCH  10  11
ENDBRANCH   9  10
ENDBRANCH   4   9
BRANCH   6  29
HETATM   29  C   UNL     1     -10.342  18.227  65.904  1.00  0.00    -0.284 C  
HETATM   30  O   UNL     1     -10.897  19.096  65.234  1.00  0.00    -0.528 OA 
HETATM   31  C   UNL     1      -9.452  18.595  67.065  1.00  0.00    -0.309 C  
ENDBRANCH   6  29
ENDBRANCH   2   3
TORSDOF 8
ENDMDL
MODEL      167
REMARK 921   NORMALIZED FREE ENERGY PREDICTED BY IDOCK:   -5.18 KCAL/MOL
REMARK 922        TOTAL FREE ENERGY PREDICTED BY IDOCK:   -8.39 KCAL/MOL
REMARK 923 INTER-LIGAND FREE ENERGY PREDICTED BY IDOCK:   -6.58 KCAL/MOL
REMARK 924 INTRA-LIGAND FREE ENERGY PREDICTED BY IDOCK:   -1.81 KCAL/MOL
REMARK 927      BINDING AFFINITY PREDICTED BY RF-SCORE:    0.00 PKD
ROOT
HETATM    1  C   UNL     1      -9.079  10.256  66.313  1.00  0.00    -0.154 C  
HETATM    2  O   UNL     1      -8.036   9.855  67.190  1.00  0.00    -0.115 OA 
ENDROOT
BRANCH   2   3
HETATM    3  C   UNL     1      -7.403  10.838  67.909  1.00  0.00    -0.088 A  
HETATM    4  C   UNL     1      -6.506  10.394  68.898  1.00  0.00    -0.052 A  
HETATM    5  C   UNL     1      -5.820  11.328  69.678  1.00  0.00    -0.080 A  
HETATM    6  C   UNL     1      -6.891  13.143  68.489  1.00  0.00    -0.099 A  
HETATM    7  C   UNL     1      -7.579  12.210  67.702  1.00  0.00    -0.140 A  
HETATM    8  C   UNL     1      -6.002  12.697  69.467  1.00  0.00    -0.113 A  
BRANCH   4   9
HETATM    9  O   UNL     1      -6.393   9.038  69.066  1.00  0.00    -0.043 OA 
BRANCH   9  10
HETATM   10  C   UNL     1      -6.571   8.511  70.381  1.00  0.00    -0.036 C  
BRANCH  10  11
HETATM   11  C   UNL     1      -7.880   7.726  70.522  1.00  0.00    -0.096 C  
BRANCH  11  12
HETATM   12  C   UNL     1      -8.824   8.248  71.621  1.00  0.00    -0.172 C  
BRANCH  12  13
HETATM   13  N   UNL     1     -10.139   8.616  71.086  1.00  0.00    -0.208 NA 
HETATM   14  C   UNL     1     -10.065   9.593  69.993  1.00  0.00    -0.252 C  
HETATM   15  C   UNL     1     -11.450   9.772  69.339  1.00  0.00    -0.015 C  
HETATM   16  C   UNL     1     -12.578  10.048  70.354  1.00  0.00    -0.142 C  
HETATM   17  C   UNL     1     -12.466   9.021  71.493  1.00  0.00    -0.395 C  
HETATM   18  C   UNL     1     -11.077   9.056  72.115  1.00  0.00    -0.201 C  
BRANCH  16  19
HETATM   19  C   UNL     1     -12.594  11.456  70.888  1.00  0.00    -0.356 A  
HETATM   20  N   UNL     1     -13.202  11.748  72.048  1.00  0.00    -0.464 NA 
HETATM   21  O   UNL     1     -13.189  13.125  72.150  1.00  0.00    -0.451 OA 
HETATM   22  C   UNL     1     -12.559  13.655  71.067  1.00  0.00    -0.363 A  
HETATM   23  C   UNL     1     -12.091  12.637  70.264  1.00  0.00    -0.372 A  
HETATM   24  C   UNL     1     -11.368  12.973  69.105  1.00  0.00    -0.328 A  
HETATM   25  C   UNL     1     -11.213  14.332  68.792  1.00  0.00    -0.286 A  
HETATM   26  C   UNL     1     -11.746  15.317  69.621  1.00  0.00    -0.334 A  
HETATM   27  C   UNL     1     -12.415  15.012  70.802  1.00  0.00    -0.411 A  
HETATM   28  F   UNL     1     -11.613  16.602  69.264  1.00  0.00    -0.213 F  
ENDBRANCH  16  19
ENDBRANCH  12  13
ENDBRANCH  11  12
ENDBRANCH  10  11
ENDBRANCH   9  10
ENDBRANCH   4   9
BRANCH   6  29
HETATM   29  C   UNL     1      -7.140  14.590  68.245  1.00  0.00    -0.113 C  
HETATM   30  O   UNL     1      -6.811  15.086  67.168  1.00  0.00    -0.260 OA 
HETATM   31  C   UNL     1      -7.848  15.414  69.292  1.00  0.00    -0.225 C  
ENDBRANCH   6  29
ENDBRANCH   2   3
TORSDOF 8
ENDMDL
MODEL      168
REMARK 921   NORMALIZED FREE ENERGY PREDICTED BY IDOCK:   -5.17 KCAL/MOL
REMARK 922        TOTAL FREE ENERGY PREDICTED BY IDOCK:   -8.39 KCAL/MOL
REMARK 923 INTER-LIGAND FREE ENERGY PREDICTED BY IDOCK:   -8.18 KCAL/MOL
REMARK 924 INTRA-LIGAND FREE ENERGY PREDICTED BY IDOCK:   -0.21 KCAL/MOL
REMARK 927      BINDING AFFINITY PREDICTED BY RF-SCORE:    0.00 PKD
ROOT
HETATM    1  C   UNL     1      -9.760   7.198  74.201  1.00  0.00    -0.223 C  
HETATM    2  O   UNL     1     -10.810   6.779  73.343  1.00  0.00    -0.291 OA 
ENDROOT
BRANCH   2   3
HETATM    3  C   UNL     1     -10.484   5.935  72.311  1.00  0.00    -0.205 A  
HETATM    4  C   UNL     1     -10.506   6.502  71.023  1.00  0.00    -0.222 A  
HETATM    5  C   UNL     1     -10.188   5.713  69.915  1.00  0.00    -0.320 A  
HETATM    6  C   UNL     1      -9.804   3.806  71.353  1.00  0.00    -0.226 A  
HETATM    7  C   UNL     1     -10.119   4.594  72.469  1.00  0.00    -0.229 A  
HETATM    8  C   UNL     1      -9.827   4.374  70.080  1.00  0.00    -0.294 A  
BRANCH   4   9
HETATM    9  O   UNL     1     -10.890   7.815  70.932  1.00  0.00    -0.230 OA 
BRANCH   9  10
HETATM   10  C   UNL     1      -9.872   8.814  70.986  1.00  0.00    -0.230 C  
BRANCH  10  11
HETATM   11  C   UNL     1     -10.302  10.121  70.308  1.00  0.00    -0.234 C  
BRANCH  11  12
HETATM   12  C   UNL     1      -9.670  10.361  68.924  1.00  0.00    -0.198 C  
BRANCH  12  13
HETATM   13  N   UNL     1     -10.246  11.530  68.252  1.00  0.00    -0.190 NA 
HETATM   14  C   UNL     1      -9.269  12.601  68.018  1.00  0.00    -0.208 C  
HETATM   15  C   UNL     1      -9.881  13.700  67.126  1.00  0.00    -0.242 C  
HETATM   16  C   UNL     1     -11.255  14.198  67.619  1.00  0.00    -0.315 C  
HETATM   17  C   UNL     1     -12.132  12.973  67.926  1.00  0.00    -0.234 C  
HETATM   18  C   UNL     1     -11.437  12.049  68.918  1.00  0.00    -0.301 C  
BRANCH  16  19
HETATM   19  C   UNL     1     -11.183  15.129  68.801  1.00  0.00    -0.284 A  
HETATM   20  N   UNL     1     -10.165  15.992  68.939  1.00  0.00    -0.219 NA 
HETATM   21  O   UNL     1     -10.306  16.551  70.193  1.00  0.00    -0.070 OA 
HETATM   22  C   UNL     1     -11.413  16.041  70.796  1.00  0.00    -0.414 A  
HETATM   23  C   UNL     1     -12.056  15.186  69.929  1.00  0.00    -0.373 A  
HETATM   24  C   UNL     1     -13.255  14.580  70.346  1.00  0.00    -0.012 A  
HETATM   25  C   UNL     1     -13.704  14.830  71.652  1.00  0.00    -0.512 A  
HETATM   26  C   UNL     1     -12.988  15.673  72.499  1.00  0.00    -0.452 A  
HETATM   27  C   UNL     1     -11.831  16.329  72.091  1.00  0.00    -0.585 A  
HETATM   28  F   UNL     1     -13.427  15.853  73.752  1.00  0.00    -0.543 F  
ENDBRANCH  16  19
ENDBRANCH  12  13
ENDBRANCH  11  12
ENDBRANCH  10  11
ENDBRANCH   9  10
ENDBRANCH   4   9
BRANCH   6  29
HETATM   29  C   UNL     1      -9.453   2.377  71.578  1.00  0.00    -0.136 C  
HETATM   30  O   UNL     1     -10.347   1.564  71.806  1.00  0.00    -0.147 OA 
HETATM   31  C   UNL     1      -8.016   1.933  71.460  1.00  0.00    -0.040 C  
ENDBRANCH   6  29
ENDBRANCH   2   3
TORSDOF 8
ENDMDL
MODEL      169
REMARK 921   NORMALIZED FREE ENERGY PREDICTED BY IDOCK:   -5.17 KCAL/MOL
REMARK 922        TOTAL FREE ENERGY PREDICTED BY IDOCK:   -8.38 KCAL/MOL
REMARK 923 INTER-LIGAND FREE ENERGY PREDICTED BY IDOCK:   -7.43 KCAL/MOL
REMARK 924 INTRA-LIGAND FREE ENERGY PREDICTED BY IDOCK:   -0.95 KCAL/MOL
REMARK 927      BINDING AFFINITY PREDICTED BY RF-SCORE:    0.00 PKD
ROOT
HETATM    1  C   UNL     1     -10.686   8.151  69.008  1.00  0.00    -0.080 C  
HETATM    2  O   UNL     1     -10.010   8.405  67.785  1.00  0.00    -0.166 OA 
ENDROOT
BRANCH   2   3
HETATM    3  C   UNL     1      -9.137   7.446  67.336  1.00  0.00    -0.122 A  
HETATM    4  C   UNL     1      -7.794   7.847  67.212  1.00  0.00    -0.113 A  
HETATM    5  C   UNL     1      -6.839   6.934  66.760  1.00  0.00    -0.064 A  
HETATM    6  C   UNL     1      -8.534   5.218  66.572  1.00  0.00    -0.112 A  
HETATM    7  C   UNL     1      -9.495   6.129  67.029  1.00  0.00    -0.141 A  
HETATM    8  C   UNL     1      -7.204   5.621  66.452  1.00  0.00    -0.077 A  
BRANCH   4   9
HETATM    9  O   UNL     1      -7.510   9.155  67.510  1.00  0.00    -0.087 OA 
BRANCH   9  10
HETATM   10  C   UNL     1      -6.951   9.969  66.478  1.00  0.00    -0.095 C  
BRANCH  10  11
HETATM   11  C   UNL     1      -7.914  11.069  66.017  1.00  0.00    -0.094 C  
BRANCH  11  12
HETATM   12  C   UNL     1      -9.181  10.554  65.310  1.00  0.00    -0.200 C  
BRANCH  12  13
HETATM   13  N   UNL     1     -10.362  11.359  65.643  1.00  0.00    -0.248 NA 
HETATM   14  C   UNL     1     -10.955  12.023  64.476  1.00  0.00    -0.318 C  
HETATM   15  C   UNL     1     -12.302  12.670  64.855  1.00  0.00    -0.563 C  
HETATM   16  C   UNL     1     -12.226  13.558  66.114  1.00  0.00    -0.484 C  
HETATM   17  C   UNL     1     -11.488  12.776  67.213  1.00  0.00    -0.393 C  
HETATM   18  C   UNL     1     -10.123  12.313  66.721  1.00  0.00    -0.209 C  
BRANCH  16  19
HETATM   19  C   UNL     1     -11.590  14.903  65.879  1.00  0.00    -0.228 A  
HETATM   20  N   UNL     1     -11.425  15.382  64.637  1.00  0.00    -0.387 NA 
HETATM   21  O   UNL     1     -10.664  16.526  64.766  1.00  0.00    -0.719 OA 
HETATM   22  C   UNL     1     -10.389  16.743  66.081  1.00  0.00    -0.330 A  
HETATM   23  C   UNL     1     -11.017  15.784  66.845  1.00  0.00    -0.207 A  
HETATM   24  C   UNL     1     -10.894  15.853  68.245  1.00  0.00    -0.315 A  
HETATM   25  C   UNL     1     -10.085  16.862  68.789  1.00  0.00    -0.295 A  
HETATM   26  C   UNL     1      -9.441  17.780  67.962  1.00  0.00    -0.281 A  
HETATM   27  C   UNL     1      -9.593  17.768  66.579  1.00  0.00    -0.315 A  
HETATM   28  F   UNL     1      -8.644  18.702  68.518  1.00  0.00    -0.323 F  
ENDBRANCH  16  19
ENDBRANCH  12  13
ENDBRANCH  11  12
ENDBRANCH  10  11
ENDBRANCH   9  10
ENDBRANCH   4   9
BRANCH   6  29
HETATM   29  C   UNL     1      -8.977   3.838  66.230  1.00  0.00    -0.136 C  
HETATM   30  O   UNL     1      -9.299   3.578  65.072  1.00  0.00    -0.143 OA 
HETATM   31  C   UNL     1      -8.965   2.765  67.290  1.00  0.00    -0.183 C  
ENDBRANCH   6  29
ENDBRANCH   2   3
TORSDOF 8
ENDMDL
MODEL      170
REMARK 921   NORMALIZED FREE ENERGY PREDICTED BY IDOCK:   -5.15 KCAL/MOL
REMARK 922        TOTAL FREE ENERGY PREDICTED BY IDOCK:   -8.35 KCAL/MOL
REMARK 923 INTER-LIGAND FREE ENERGY PREDICTED BY IDOCK:   -7.39 KCAL/MOL
REMARK 924 INTRA-LIGAND FREE ENERGY PREDICTED BY IDOCK:   -0.96 KCAL/MOL
REMARK 927      BINDING AFFINITY PREDICTED BY RF-SCORE:    0.00 PKD
ROOT
HETATM    1  C   UNL     1     -10.849   7.057  67.134  1.00  0.00    -0.357 C  
HETATM    2  O   UNL     1     -11.241   6.497  68.379  1.00  0.00    -0.283 OA 
ENDROOT
BRANCH   2   3
HETATM    3  C   UNL     1     -10.306   6.477  69.384  1.00  0.00    -0.205 A  
HETATM    4  C   UNL     1     -10.592   7.280  70.505  1.00  0.00    -0.222 A  
HETATM    5  C   UNL     1      -9.694   7.320  71.573  1.00  0.00    -0.168 A  
HETATM    6  C   UNL     1      -8.237   5.756  70.439  1.00  0.00    -0.107 A  
HETATM    7  C   UNL     1      -9.137   5.709  69.366  1.00  0.00    -0.134 A  
HETATM    8  C   UNL     1      -8.527   6.552  71.547  1.00  0.00    -0.125 A  
BRANCH   4   9
HETATM    9  O   UNL     1     -11.743   8.023  70.455  1.00  0.00    -0.154 OA 
BRANCH   9  10
HETATM   10  C   UNL     1     -11.982   8.956  71.509  1.00  0.00    -0.333 C  
BRANCH  10  11
HETATM   11  C   UNL     1     -12.864  10.127  71.062  1.00  0.00    -0.474 C  
BRANCH  11  12
HETATM   12  C   UNL     1     -12.090  11.404  70.687  1.00  0.00    -0.372 C  
BRANCH  12  13
HETATM   13  N   UNL     1     -11.829  11.485  69.246  1.00  0.00    -0.329 NA 
HETATM   14  C   UNL     1     -10.558  10.864  68.854  1.00  0.00    -0.210 C  
HETATM   15  C   UNL     1     -10.446  10.792  67.318  1.00  0.00    -0.282 C  
HETATM   16  C   UNL     1     -10.733  12.136  66.617  1.00  0.00    -0.281 C  
HETATM   17  C   UNL     1     -12.029  12.720  67.202  1.00  0.00    -0.351 C  
HETATM   18  C   UNL     1     -11.930  12.842  68.717  1.00  0.00    -0.240 C  
BRANCH  16  19
HETATM   19  C   UNL     1      -9.600  13.126  66.702  1.00  0.00    -0.260 A  
HETATM   20  N   UNL     1      -8.403  12.766  67.189  1.00  0.00    -0.183 NA 
HETATM   21  O   UNL     1      -7.668  13.929  67.296  1.00  0.00    -0.164 OA 
HETATM   22  C   UNL     1      -8.414  14.979  66.858  1.00  0.00    -0.236 A  
HETATM   23  C   UNL     1      -9.628  14.520  66.396  1.00  0.00    -0.324 A  
HETATM   24  C   UNL     1     -10.537  15.448  65.857  1.00  0.00    -0.349 A  
HETATM   25  C   UNL     1     -10.185  16.806  65.874  1.00  0.00    -0.345 A  
HETATM   26  C   UNL     1      -8.959  17.216  66.394  1.00  0.00    -0.260 A  
HETATM   27  C   UNL     1      -8.019  16.312  66.880  1.00  0.00    -0.278 A  
HETATM   28  F   UNL     1      -8.678  18.525  66.430  1.00  0.00    -0.273 F  
ENDBRANCH  16  19
ENDBRANCH  12  13
ENDBRANCH  11  12
ENDBRANCH  10  11
ENDBRANCH   9  10
ENDBRANCH   4   9
BRANCH   6  29
HETATM   29  C   UNL     1      -6.994   4.942  70.351  1.00  0.00    -0.045 C  
HETATM   30  O   UNL     1      -6.981   3.808  70.827  1.00  0.00    -0.032 OA 
HETATM   31  C   UNL     1      -5.791   5.490  69.625  1.00  0.00    -0.017 C  
ENDBRANCH   6  29
ENDBRANCH   2   3
TORSDOF 8
ENDMDL
MODEL      171
REMARK 921   NORMALIZED FREE ENERGY PREDICTED BY IDOCK:   -5.14 KCAL/MOL
REMARK 922        TOTAL FREE ENERGY PREDICTED BY IDOCK:   -8.34 KCAL/MOL
REMARK 923 INTER-LIGAND FREE ENERGY PREDICTED BY IDOCK:   -7.23 KCAL/MOL
REMARK 924 INTRA-LIGAND FREE ENERGY PREDICTED BY IDOCK:   -1.11 KCAL/MOL
REMARK 927      BINDING AFFINITY PREDICTED BY RF-SCORE:    0.00 PKD
ROOT
HETATM    1  C   UNL     1     -10.471   9.702  67.090  1.00  0.00    -0.249 C  
HETATM    2  O   UNL     1     -11.647  10.491  67.206  1.00  0.00    -0.327 OA 
ENDROOT
BRANCH   2   3
HETATM    3  C   UNL     1     -11.489  11.817  67.522  1.00  0.00    -0.303 A  
HETATM    4  C   UNL     1     -11.868  12.187  68.826  1.00  0.00    -0.303 A  
HETATM    5  C   UNL     1     -11.741  13.518  69.231  1.00  0.00    -0.382 A  
HETATM    6  C   UNL     1     -10.845  14.117  67.065  1.00  0.00    -0.295 A  
HETATM    7  C   UNL     1     -10.966  12.783  66.655  1.00  0.00    -0.300 A  
HETATM    8  C   UNL     1     -11.221  14.477  68.359  1.00  0.00    -0.290 A  
BRANCH   4   9
HETATM    9  O   UNL     1     -12.390  11.200  69.621  1.00  0.00    -0.296 OA 
BRANCH   9  10
HETATM   10  C   UNL     1     -11.546  10.633  70.623  1.00  0.00    -0.336 C  
BRANCH  10  11
HETATM   11  C   UNL     1     -12.095   9.308  71.166  1.00  0.00    -0.389 C  
BRANCH  11  12
HETATM   12  C   UNL     1     -11.193   8.620  72.207  1.00  0.00    -0.328 C  
BRANCH  12  13
HETATM   13  N   UNL     1     -10.508   7.448  71.653  1.00  0.00    -0.198 NA 
HETATM   14  C   UNL     1      -9.181   7.759  71.107  1.00  0.00    -0.146 C  
HETATM   15  C   UNL     1      -8.434   6.461  70.740  1.00  0.00    -0.135 C  
HETATM   16  C   UNL     1      -9.265   5.499  69.866  1.00  0.00    -0.170 C  
HETATM   17  C   UNL     1     -10.660   5.354  70.498  1.00  0.00    -0.312 C  
HETATM   18  C   UNL     1     -11.314   6.717  70.680  1.00  0.00    -0.347 C  
BRANCH  16  19
HETATM   19  C   UNL     1      -9.361   5.911  68.420  1.00  0.00    -0.120 A  
HETATM   20  N   UNL     1     -10.505   5.764  67.735  1.00  0.00    -0.216 NA 
HETATM   21  O   UNL     1     -10.204   6.060  66.421  1.00  0.00    -0.153 OA 
HETATM   22  C   UNL     1      -8.890   6.401  66.321  1.00  0.00    -0.145 A  
HETATM   23  C   UNL     1      -8.319   6.398  67.575  1.00  0.00    -0.117 A  
HETATM   24  C   UNL     1      -6.967   6.766  67.699  1.00  0.00    -0.083 A  
HETATM   25  C   UNL     1      -6.251   7.059  66.529  1.00  0.00    -0.042 A  
HETATM   26  C   UNL     1      -6.873   7.005  65.283  1.00  0.00    -0.051 A  
HETATM   27  C   UNL     1      -8.222   6.699  65.139  1.00  0.00    -0.118 A  
HETATM   28  F   UNL     1      -6.143   7.250  64.186  1.00  0.00    -0.035 F  
ENDBRANCH  16  19
ENDBRANCH  12  13
ENDBRANCH  11  12
ENDBRANCH  10  11
ENDBRANCH   9  10
ENDBRANCH   4   9
BRANCH   6  29
HETATM   29  C   UNL     1     -10.312  15.107  66.090  1.00  0.00    -0.301 C  
HETATM   30  O   UNL     1     -10.927  15.319  65.047  1.00  0.00    -0.389 OA 
HETATM   31  C   UNL     1      -9.061  15.883  66.421  1.00  0.00    -0.355 C  
ENDBRANCH   6  29
ENDBRANCH   2   3
TORSDOF 8
ENDMDL
MODEL      172
REMARK 921   NORMALIZED FREE ENERGY PREDICTED BY IDOCK:   -5.14 KCAL/MOL
REMARK 922        TOTAL FREE ENERGY PREDICTED BY IDOCK:   -8.33 KCAL/MOL
REMARK 923 INTER-LIGAND FREE ENERGY PREDICTED BY IDOCK:   -7.47 KCAL/MOL
REMARK 924 INTRA-LIGAND FREE ENERGY PREDICTED BY IDOCK:   -0.86 KCAL/MOL
REMARK 927      BINDING AFFINITY PREDICTED BY RF-SCORE:    0.00 PKD
ROOT
HETATM    1  C   UNL     1     -10.116   4.803  69.518  1.00  0.00    -0.190 C  
HETATM    2  O   UNL     1     -10.662   5.985  70.086  1.00  0.00    -0.255 OA 
ENDROOT
BRANCH   2   3
HETATM    3  C   UNL     1     -10.233   6.338  71.341  1.00  0.00    -0.201 A  
HETATM    4  C   UNL     1     -11.174   7.008  72.145  1.00  0.00    -0.256 A  
HETATM    5  C   UNL     1     -10.820   7.406  73.436  1.00  0.00    -0.362 A  
HETATM    6  C   UNL     1      -8.612   6.460  73.149  1.00  0.00    -0.120 A  
HETATM    7  C   UNL     1      -8.963   6.056  71.854  1.00  0.00    -0.138 A  
HETATM    8  C   UNL     1      -9.549   7.122  73.942  1.00  0.00    -0.319 A  
BRANCH   4   9
HETATM    9  O   UNL     1     -12.394   7.273  71.579  1.00  0.00    -0.323 OA 
BRANCH   9  10
HETATM   10  C   UNL     1     -13.011   8.526  71.877  1.00  0.00    -0.362 C  
BRANCH  10  11
HETATM   11  C   UNL     1     -12.765   9.571  70.782  1.00  0.00    -0.135 C  
BRANCH  11  12
HETATM   12  C   UNL     1     -12.979  11.029  71.231  1.00  0.00    -0.372 C  
BRANCH  12  13
HETATM   13  N   UNL     1     -12.039  11.947  70.580  1.00  0.00    -0.356 NA 
HETATM   14  C   UNL     1     -12.653  13.222  70.191  1.00  0.00    -0.044 C  
HETATM   15  C   UNL     1     -11.574  14.214  69.714  1.00  0.00    -0.351 C  
HETATM   16  C   UNL     1     -10.622  13.625  68.653  1.00  0.00    -0.260 C  
HETATM   17  C   UNL     1     -10.144  12.248  69.144  1.00  0.00     0.246 C  
HETATM   18  C   UNL     1     -11.330  11.345  69.454  1.00  0.00    -0.297 C  
BRANCH  16  19
HETATM   19  C   UNL     1     -11.220  13.535  67.273  1.00  0.00    -0.298 A  
HETATM   20  N   UNL     1     -12.381  14.142  66.983  1.00  0.00    -0.331 NA 
HETATM   21  O   UNL     1     -12.729  13.717  65.717  1.00  0.00    -0.471 OA 
HETATM   22  C   UNL     1     -11.772  12.875  65.242  1.00  0.00    -0.364 A  
HETATM   23  C   UNL     1     -10.748  12.780  66.158  1.00  0.00    -0.297 A  
HETATM   24  C   UNL     1      -9.632  11.985  65.840  1.00  0.00    -0.238 A  
HETATM   25  C   UNL     1      -9.646  11.279  64.627  1.00  0.00    -0.265 A  
HETATM   26  C   UNL     1     -10.731  11.382  63.758  1.00  0.00    -0.403 A  
HETATM   27  C   UNL     1     -11.820  12.205  64.024  1.00  0.00    -0.523 A  
HETATM   28  F   UNL     1     -10.725  10.658  62.631  1.00  0.00     0.029 F  
ENDBRANCH  16  19
ENDBRANCH  12  13
ENDBRANCH  11  12
ENDBRANCH  10  11
ENDBRANCH   9  10
ENDBRANCH   4   9
BRANCH   6  29
HETATM   29  C   UNL     1      -7.236   6.160  73.632  1.00  0.00    -0.084 C  
HETATM   30  O   UNL     1      -6.995   5.057  74.121  1.00  0.00    -0.074 OA 
HETATM   31  C   UNL     1      -6.142   7.184  73.457  1.00  0.00    -0.057 C  
ENDBRANCH   6  29
ENDBRANCH   2   3
TORSDOF 8
ENDMDL
MODEL      173
REMARK 921   NORMALIZED FREE ENERGY PREDICTED BY IDOCK:   -5.11 KCAL/MOL
REMARK 922        TOTAL FREE ENERGY PREDICTED BY IDOCK:   -8.30 KCAL/MOL
REMARK 923 INTER-LIGAND FREE ENERGY PREDICTED BY IDOCK:   -8.45 KCAL/MOL
REMARK 924 INTRA-LIGAND FREE ENERGY PREDICTED BY IDOCK:    0.15 KCAL/MOL
REMARK 927      BINDING AFFINITY PREDICTED BY RF-SCORE:    0.00 PKD
ROOT
HETATM    1  C   UNL     1      -5.768  12.388  67.360  1.00  0.00    -0.134 C  
HETATM    2  O   UNL     1      -7.053  12.552  67.942  1.00  0.00    -0.088 OA 
ENDROOT
BRANCH   2   3
HETATM    3  C   UNL     1      -7.875  13.508  67.400  1.00  0.00    -0.147 A  
HETATM    4  C   UNL     1      -9.108  13.049  66.903  1.00  0.00    -0.227 A  
HETATM    5  C   UNL     1     -10.004  13.956  66.332  1.00  0.00    -0.303 A  
HETATM    6  C   UNL     1      -8.472  15.778  66.763  1.00  0.00    -0.304 A  
HETATM    7  C   UNL     1      -7.571  14.873  67.339  1.00  0.00    -0.232 A  
HETATM    8  C   UNL     1      -9.693  15.317  66.273  1.00  0.00    -0.325 A  
BRANCH   4   9
HETATM    9  O   UNL     1      -9.339  11.699  66.973  1.00  0.00    -0.175 OA 
BRANCH   9  10
HETATM   10  C   UNL     1      -9.830  11.044  65.803  1.00  0.00    -0.235 C  
BRANCH  10  11
HETATM   11  C   UNL     1     -10.124   9.559  66.048  1.00  0.00    -0.319 C  
BRANCH  11  12
HETATM   12  C   UNL     1      -8.936   8.756  66.608  1.00  0.00    -0.139 C  
BRANCH  12  13
HETATM   13  N   UNL     1      -9.348   7.837  67.675  1.00  0.00    -0.141 NA 
HETATM   14  C   UNL     1     -10.784   7.531  67.650  1.00  0.00    -0.196 C  
HETATM   15  C   UNL     1     -11.110   6.404  68.651  1.00  0.00    -0.393 C  
HETATM   16  C   UNL     1     -10.543   6.655  70.064  1.00  0.00    -0.266 C  
HETATM   17  C   UNL     1      -9.069   7.070  69.928  1.00  0.00    -0.141 C  
HETATM   18  C   UNL     1      -8.932   8.273  69.004  1.00  0.00    -0.147 C  
BRANCH  16  19
HETATM   19  C   UNL     1     -11.323   7.662  70.868  1.00  0.00    -0.276 A  
HETATM   20  N   UNL     1     -12.140   7.272  71.858  1.00  0.00    -0.305 NA 
HETATM   21  O   UNL     1     -12.824   8.403  72.257  1.00  0.00    -0.342 OA 
HETATM   22  C   UNL     1     -12.404   9.470  71.524  1.00  0.00    -0.380 A  
HETATM   23  C   UNL     1     -11.394   9.074  70.675  1.00  0.00    -0.311 A  
HETATM   24  C   UNL     1     -10.789  10.043  69.853  1.00  0.00    -0.328 A  
HETATM   25  C   UNL     1     -11.288  11.353  69.896  1.00  0.00    -0.300 A  
HETATM   26  C   UNL     1     -12.341  11.685  70.747  1.00  0.00    -0.358 A  
HETATM   27  C   UNL     1     -12.918  10.759  71.610  1.00  0.00    -0.581 A  
HETATM   28  F   UNL     1     -12.817  12.937  70.728  1.00  0.00    -0.335 F  
ENDBRANCH  16  19
ENDBRANCH  12  13
ENDBRANCH  11  12
ENDBRANCH  10  11
ENDBRANCH   9  10
ENDBRANCH   4   9
BRANCH   6  29
HETATM   29  C   UNL     1      -8.083  17.213  66.698  1.00  0.00    -0.257 C  
HETATM   30  O   UNL     1      -8.148  17.808  65.624  1.00  0.00    -0.518 OA 
HETATM   31  C   UNL     1      -7.675  17.936  67.958  1.00  0.00    -0.245 C  
ENDBRANCH   6  29
ENDBRANCH   2   3
TORSDOF 8
ENDMDL
MODEL      174
REMARK 921   NORMALIZED FREE ENERGY PREDICTED BY IDOCK:   -5.10 KCAL/MOL
REMARK 922        TOTAL FREE ENERGY PREDICTED BY IDOCK:   -8.28 KCAL/MOL
REMARK 923 INTER-LIGAND FREE ENERGY PREDICTED BY IDOCK:   -7.86 KCAL/MOL
REMARK 924 INTRA-LIGAND FREE ENERGY PREDICTED BY IDOCK:   -0.43 KCAL/MOL
REMARK 927      BINDING AFFINITY PREDICTED BY RF-SCORE:    0.00 PKD
ROOT
HETATM    1  C   UNL     1      -6.312  15.571  67.852  1.00  0.00    -0.152 C  
HETATM    2  O   UNL     1      -7.440  14.918  67.290  1.00  0.00    -0.197 OA 
ENDROOT
BRANCH   2   3
HETATM    3  C   UNL     1      -8.454  15.709  66.812  1.00  0.00    -0.272 A  
HETATM    4  C   UNL     1      -9.578  15.029  66.307  1.00  0.00    -0.307 A  
HETATM    5  C   UNL     1     -10.656  15.758  65.799  1.00  0.00    -0.369 A  
HETATM    6  C   UNL     1      -9.523  17.834  66.308  1.00  0.00    -0.232 A  
HETATM    7  C   UNL     1      -8.441  17.108  66.822  1.00  0.00    -0.264 A  
HETATM    8  C   UNL     1     -10.635  17.155  65.810  1.00  0.00    -0.201 A  
BRANCH   4   9
HETATM    9  O   UNL     1      -9.523  13.660  66.306  1.00  0.00    -0.260 OA 
BRANCH   9  10
HETATM   10  C   UNL     1     -10.520  12.951  67.042  1.00  0.00    -0.238 C  
BRANCH  10  11
HETATM   11  C   UNL     1     -10.578  11.466  66.664  1.00  0.00    -0.302 C  
BRANCH  11  12
HETATM   12  C   UNL     1     -11.251  10.564  67.716  1.00  0.00    -0.273 C  
BRANCH  12  13
HETATM   13  N   UNL     1     -10.272   9.766  68.463  1.00  0.00    -0.179 NA 
HETATM   14  C   UNL     1     -10.394   8.325  68.216  1.00  0.00    -0.198 C  
HETATM   15  C   UNL     1      -9.212   7.569  68.855  1.00  0.00    -0.142 C  
HETATM   16  C   UNL     1      -8.975   7.936  70.334  1.00  0.00    -0.147 C  
HETATM   17  C   UNL     1      -8.980   9.469  70.459  1.00  0.00    -0.265 C  
HETATM   18  C   UNL     1     -10.269  10.051  69.894  1.00  0.00    -0.260 C  
BRANCH  16  19
HETATM   19  C   UNL     1      -9.957   7.307  71.288  1.00  0.00    -0.188 A  
HETATM   20  N   UNL     1     -10.770   8.064  72.040  1.00  0.00    -0.240 NA 
HETATM   21  O   UNL     1     -11.397   7.199  72.914  1.00  0.00    -0.281 OA 
HETATM   22  C   UNL     1     -10.977   5.928  72.675  1.00  0.00    -0.264 A  
HETATM   23  C   UNL     1     -10.115   5.924  71.600  1.00  0.00    -0.233 A  
HETATM   24  C   UNL     1      -9.595   4.693  71.159  1.00  0.00    -0.238 A  
HETATM   25  C   UNL     1      -9.933   3.536  71.878  1.00  0.00    -0.212 A  
HETATM   26  C   UNL     1     -10.777   3.608  72.985  1.00  0.00    -0.142 A  
HETATM   27  C   UNL     1     -11.349   4.804  73.405  1.00  0.00    -0.397 A  
HETATM   28  F   UNL     1     -11.040   2.487  73.669  1.00  0.00    -0.240 F  
ENDBRANCH  16  19
ENDBRANCH  12  13
ENDBRANCH  11  12
ENDBRANCH  10  11
ENDBRANCH   9  10
ENDBRANCH   4   9
BRANCH   6  29
HETATM   29  C   UNL     1      -9.441  19.321  66.316  1.00  0.00    -0.345 C  
HETATM   30  O   UNL     1     -10.200  19.971  65.600  1.00  0.00    -0.429 OA 
HETATM   31  C   UNL     1      -8.475  20.011  67.247  1.00  0.00    -0.390 C  
ENDBRANCH   6  29
ENDBRANCH   2   3
TORSDOF 8
ENDMDL
MODEL      175
REMARK 921   NORMALIZED FREE ENERGY PREDICTED BY IDOCK:   -5.10 KCAL/MOL
REMARK 922        TOTAL FREE ENERGY PREDICTED BY IDOCK:   -8.28 KCAL/MOL
REMARK 923 INTER-LIGAND FREE ENERGY PREDICTED BY IDOCK:   -6.82 KCAL/MOL
REMARK 924 INTRA-LIGAND FREE ENERGY PREDICTED BY IDOCK:   -1.46 KCAL/MOL
REMARK 927      BINDING AFFINITY PREDICTED BY RF-SCORE:    0.00 PKD
ROOT
HETATM    1  C   UNL     1     -11.959  13.186  67.312  1.00  0.00    -0.335 C  
HETATM    2  O   UNL     1     -11.358  12.524  68.416  1.00  0.00    -0.247 OA 
ENDROOT
BRANCH   2   3
HETATM    3  C   UNL     1     -11.861  12.794  69.664  1.00  0.00    -0.317 A  
HETATM    4  C   UNL     1     -12.362  11.688  70.375  1.00  0.00    -0.288 A  
HETATM    5  C   UNL     1     -12.895  11.873  71.653  1.00  0.00    -0.417 A  
HETATM    6  C   UNL     1     -12.417  14.242  71.536  1.00  0.00    -0.435 A  
HETATM    7  C   UNL     1     -11.879  14.062  70.255  1.00  0.00    -0.373 A  
HETATM    8  C   UNL     1     -12.912  13.142  72.237  1.00  0.00    -0.354 A  
BRANCH   4   9
HETATM    9  O   UNL     1     -12.335  10.476  69.735  1.00  0.00    -0.250 OA 
BRANCH   9  10
HETATM   10  C   UNL     1     -11.702   9.383  70.400  1.00  0.00    -0.144 C  
BRANCH  10  11
HETATM   11  C   UNL     1     -10.635   8.710  69.529  1.00  0.00    -0.218 C  
BRANCH  11  12
HETATM   12  C   UNL     1      -9.271   8.524  70.220  1.00  0.00    -0.158 C  
BRANCH  12  13
HETATM   13  N   UNL     1      -8.176   9.114  69.442  1.00  0.00    -0.114 NA 
HETATM   14  C   UNL     1      -6.935   9.260  70.212  1.00  0.00    -0.076 C  
HETATM   15  C   UNL     1      -5.776   9.680  69.286  1.00  0.00    -0.034 C  
HETATM   16  C   UNL     1      -6.110  10.893  68.393  1.00  0.00    -0.046 C  
HETATM   17  C   UNL     1      -7.480  10.649  67.739  1.00  0.00    -0.091 C  
HETATM   18  C   UNL     1      -8.540  10.371  68.796  1.00  0.00    -0.141 C  
BRANCH  16  19
HETATM   19  C   UNL     1      -6.077  12.215  69.115  1.00  0.00    -0.082 A  
HETATM   20  N   UNL     1      -5.782  12.280  70.422  1.00  0.00    -0.161 NA 
HETATM   21  O   UNL     1      -6.015  13.587  70.802  1.00  0.00    -0.179 OA 
HETATM   22  C   UNL     1      -6.430  14.306  69.724  1.00  0.00    -0.142 A  
HETATM   23  C   UNL     1      -6.416  13.503  68.604  1.00  0.00    -0.094 A  
HETATM   24  C   UNL     1      -6.773  14.069  67.367  1.00  0.00     0.014 A  
HETATM   25  C   UNL     1      -7.186  15.411  67.346  1.00  0.00    -0.242 A  
HETATM   26  C   UNL     1      -7.219  16.161  68.520  1.00  0.00    -0.144 A  
HETATM   27  C   UNL     1      -6.816  15.641  69.746  1.00  0.00    -0.134 A  
HETATM   28  F   UNL     1      -7.659  17.426  68.465  1.00  0.00    -0.211 F  
ENDBRANCH  16  19
ENDBRANCH  12  13
ENDBRANCH  11  12
ENDBRANCH  10  11
ENDBRANCH   9  10
ENDBRANCH   4   9
BRANCH   6  29
HETATM   29  C   UNL     1     -12.438  15.618  72.103  1.00  0.00    -0.427 C  
HETATM   30  O   UNL     1     -11.569  16.421  71.771  1.00  0.00    -0.453 OA 
HETATM   31  C   UNL     1     -13.559  16.029  73.027  1.00  0.00    -0.530 C  
ENDBRANCH   6  29
ENDBRANCH   2   3
TORSDOF 8
ENDMDL
MODEL      176
REMARK 921   NORMALIZED FREE ENERGY PREDICTED BY IDOCK:   -5.09 KCAL/MOL
REMARK 922        TOTAL FREE ENERGY PREDICTED BY IDOCK:   -8.27 KCAL/MOL
REMARK 923 INTER-LIGAND FREE ENERGY PREDICTED BY IDOCK:   -8.07 KCAL/MOL
REMARK 924 INTRA-LIGAND FREE ENERGY PREDICTED BY IDOCK:   -0.20 KCAL/MOL
REMARK 927      BINDING AFFINITY PREDICTED BY RF-SCORE:    0.00 PKD
ROOT
HETATM    1  C   UNL     1     -10.803   9.253  69.190  1.00  0.00    -0.133 C  
HETATM    2  O   UNL     1     -11.132  10.166  68.153  1.00  0.00    -0.266 OA 
ENDROOT
BRANCH   2   3
HETATM    3  C   UNL     1     -10.453  10.046  66.967  1.00  0.00    -0.238 A  
HETATM    4  C   UNL     1     -10.785  10.984  65.972  1.00  0.00    -0.177 A  
HETATM    5  C   UNL     1     -10.142  10.934  64.733  1.00  0.00    -0.383 A  
HETATM    6  C   UNL     1      -8.824   9.041  65.467  1.00  0.00    -0.233 A  
HETATM    7  C   UNL     1      -9.464   9.090  66.712  1.00  0.00    -0.238 A  
HETATM    8  C   UNL     1      -9.157   9.974  64.484  1.00  0.00    -0.285 A  
BRANCH   4   9
HETATM    9  O   UNL     1     -11.774  11.883  66.275  1.00  0.00    -0.506 OA 
BRANCH   9  10
HETATM   10  C   UNL     1     -12.417  12.558  65.193  1.00  0.00    -0.379 C  
BRANCH  10  11
HETATM   11  C   UNL     1     -12.773  14.008  65.541  1.00  0.00    -0.517 C  
BRANCH  11  12
HETATM   12  C   UNL     1     -11.562  14.951  65.667  1.00  0.00    -0.245 C  
BRANCH  12  13
HETATM   13  N   UNL     1     -10.912  14.840  66.977  1.00  0.00    -0.316 NA 
HETATM   14  C   UNL     1     -11.062  16.046  67.800  1.00  0.00    -0.273 C  
HETATM   15  C   UNL     1     -10.548  15.787  69.231  1.00  0.00    -0.244 C  
HETATM   16  C   UNL     1      -9.137  15.166  69.274  1.00  0.00    -0.201 C  
HETATM   17  C   UNL     1      -9.096  13.988  68.288  1.00  0.00    -0.191 C  
HETATM   18  C   UNL     1      -9.511  14.437  66.893  1.00  0.00    -0.258 C  
BRANCH  16  19
HETATM   19  C   UNL     1      -8.027  16.147  69.000  1.00  0.00    -0.236 A  
HETATM   20  N   UNL     1      -6.766  15.886  69.377  1.00  0.00    -0.179 NA 
HETATM   21  O   UNL     1      -6.050  17.043  69.145  1.00  0.00    -0.174 OA 
HETATM   22  C   UNL     1      -6.873  17.987  68.614  1.00  0.00    -0.249 A  
HETATM   23  C   UNL     1      -8.128  17.450  68.427  1.00  0.00    -0.264 A  
HETATM   24  C   UNL     1      -9.124  18.255  67.845  1.00  0.00    -0.288 A  
HETATM   25  C   UNL     1      -8.805  19.587  67.540  1.00  0.00    -0.361 A  
HETATM   26  C   UNL     1      -7.528  20.087  67.790  1.00  0.00    -0.295 A  
HETATM   27  C   UNL     1      -6.510  19.295  68.312  1.00  0.00    -0.262 A  
HETATM   28  F   UNL     1      -7.276  21.375  67.524  1.00  0.00    -0.411 F  
ENDBRANCH  16  19
ENDBRANCH  12  13
ENDBRANCH  11  12
ENDBRANCH  10  11
ENDBRANCH   9  10
ENDBRANCH   4   9
BRANCH   6  29
HETATM   29  C   UNL     1      -7.802   7.983  65.241  1.00  0.00    -0.113 C  
HETATM   30  O   UNL     1      -7.001   8.105  64.316  1.00  0.00    -0.067 OA 
HETATM   31  C   UNL     1      -7.720   6.809  66.185  1.00  0.00    -0.091 C  
ENDBRANCH   6  29
ENDBRANCH   2   3
TORSDOF 8
ENDMDL
MODEL      177
REMARK 921   NORMALIZED FREE ENERGY PREDICTED BY IDOCK:   -5.09 KCAL/MOL
REMARK 922        TOTAL FREE ENERGY PREDICTED BY IDOCK:   -8.27 KCAL/MOL
REMARK 923 INTER-LIGAND FREE ENERGY PREDICTED BY IDOCK:   -6.98 KCAL/MOL
REMARK 924 INTRA-LIGAND FREE ENERGY PREDICTED BY IDOCK:   -1.29 KCAL/MOL
REMARK 927      BINDING AFFINITY PREDICTED BY RF-SCORE:    0.00 PKD
ROOT
HETATM    1  C   UNL     1      -8.004   7.906  63.535  1.00  0.00    -0.126 C  
HETATM    2  O   UNL     1      -7.234   8.349  64.644  1.00  0.00    -0.078 OA 
ENDROOT
BRANCH   2   3
HETATM    3  C   UNL     1      -7.844   8.359  65.873  1.00  0.00    -0.095 A  
HETATM    4  C   UNL     1      -7.266   9.203  66.839  1.00  0.00    -0.086 A  
HETATM    5  C   UNL     1      -7.822   9.272  68.118  1.00  0.00    -0.095 A  
HETATM    6  C   UNL     1      -9.539   7.690  67.483  1.00  0.00    -0.178 A  
HETATM    7  C   UNL     1      -8.987   7.619  66.197  1.00  0.00    -0.197 A  
HETATM    8  C   UNL     1      -8.962   8.529  68.436  1.00  0.00    -0.139 A  
BRANCH   4   9
HETATM    9  O   UNL     1      -6.137   9.886  66.466  1.00  0.00    -0.061 OA 
BRANCH   9  10
HETATM   10  C   UNL     1      -6.267  11.276  66.165  1.00  0.00    -0.014 C  
BRANCH  10  11
HETATM   11  C   UNL     1      -5.445  12.157  67.112  1.00  0.00    -0.105 C  
BRANCH  11  12
HETATM   12  C   UNL     1      -6.280  12.952  68.133  1.00  0.00    -0.093 C  
BRANCH  12  13
HETATM   13  N   UNL     1      -7.664  13.138  67.685  1.00  0.00    -0.153 NA 
HETATM   14  C   UNL     1      -7.929  14.489  67.174  1.00  0.00    -0.138 C  
HETATM   15  C   UNL     1      -9.327  14.553  66.527  1.00  0.00    -0.307 C  
HETATM   16  C   UNL     1     -10.447  13.988  67.424  1.00  0.00    -0.263 C  
HETATM   17  C   UNL     1      -9.988  12.627  67.973  1.00  0.00    -0.220 C  
HETATM   18  C   UNL     1      -8.651  12.759  68.691  1.00  0.00     0.054 C  
BRANCH  16  19
HETATM   19  C   UNL     1     -10.866  14.912  68.538  1.00  0.00    -0.247 A  
HETATM   20  N   UNL     1     -10.496  16.202  68.541  1.00  0.00    -0.256 NA 
HETATM   21  O   UNL     1     -10.883  16.708  69.765  1.00  0.00    -0.333 OA 
HETATM   22  C   UNL     1     -11.499  15.732  70.485  1.00  0.00    -0.381 A  
HETATM   23  C   UNL     1     -11.586  14.586  69.726  1.00  0.00    -0.345 A  
HETATM   24  C   UNL     1     -12.231  13.463  70.275  1.00  0.00    -0.405 A  
HETATM   25  C   UNL     1     -12.700  13.548  71.594  1.00  0.00    -0.380 A  
HETATM   26  C   UNL     1     -12.547  14.722  72.329  1.00  0.00    -0.335 A  
HETATM   27  C   UNL     1     -11.964  15.864  71.789  1.00  0.00    -0.573 A  
HETATM   28  F   UNL     1     -12.971  14.749  73.599  1.00  0.00    -0.568 F  
ENDBRANCH  16  19
ENDBRANCH  12  13
ENDBRANCH  11  12
ENDBRANCH  10  11
ENDBRANCH   9  10
ENDBRANCH   4   9
BRANCH   6  29
HETATM   29  C   UNL     1     -10.737   6.857  67.781  1.00  0.00    -0.254 C  
HETATM   30  O   UNL     1     -11.357   6.338  66.855  1.00  0.00    -0.260 OA 
HETATM   31  C   UNL     1     -11.136   6.608  69.215  1.00  0.00    -0.345 C  
ENDBRANCH   6  29
ENDBRANCH   2   3
TORSDOF 8
ENDMDL
MODEL      178
REMARK 921   NORMALIZED FREE ENERGY PREDICTED BY IDOCK:   -5.09 KCAL/MOL
REMARK 922        TOTAL FREE ENERGY PREDICTED BY IDOCK:   -8.26 KCAL/MOL
REMARK 923 INTER-LIGAND FREE ENERGY PREDICTED BY IDOCK:   -7.47 KCAL/MOL
REMARK 924 INTRA-LIGAND FREE ENERGY PREDICTED BY IDOCK:   -0.79 KCAL/MOL
REMARK 927      BINDING AFFINITY PREDICTED BY RF-SCORE:    0.00 PKD
ROOT
HETATM    1  C   UNL     1      -6.626  15.093  67.884  1.00  0.00    -0.158 C  
HETATM    2  O   UNL     1      -7.295  15.609  66.743  1.00  0.00    -0.153 OA 
ENDROOT
BRANCH   2   3
HETATM    3  C   UNL     1      -7.744  16.905  66.807  1.00  0.00    -0.248 A  
HETATM    4  C   UNL     1      -9.094  17.105  66.464  1.00  0.00    -0.269 A  
HETATM    5  C   UNL     1      -9.632  18.393  66.501  1.00  0.00    -0.327 A  
HETATM    6  C   UNL     1      -7.508  19.286  67.237  1.00  0.00    -0.253 A  
HETATM    7  C   UNL     1      -6.963  17.996  67.206  1.00  0.00    -0.204 A  
HETATM    8  C   UNL     1      -8.847  19.478  66.897  1.00  0.00    -0.362 A  
BRANCH   4   9
HETATM    9  O   UNL     1      -9.800  16.000  66.064  1.00  0.00    -0.292 OA 
BRANCH   9  10
HETATM   10  C   UNL     1     -10.850  16.186  65.114  1.00  0.00    -0.361 C  
BRANCH  10  11
HETATM   11  C   UNL     1     -11.577  14.877  64.785  1.00  0.00    -0.410 C  
BRANCH  11  12
HETATM   12  C   UNL     1     -10.651  13.660  64.604  1.00  0.00    -0.430 C  
BRANCH  12  13
HETATM   13  N   UNL     1     -10.548  12.861  65.829  1.00  0.00    -0.271 NA 
HETATM   14  C   UNL     1      -9.165  12.689  66.292  1.00  0.00    -0.110 C  
HETATM   15  C   UNL     1      -9.144  12.030  67.685  1.00  0.00    -0.179 C  
HETATM   16  C   UNL     1     -10.001  10.750  67.774  1.00  0.00    -0.195 C  
HETATM   17  C   UNL     1     -11.378  11.047  67.158  1.00  0.00    -0.214 C  
HETATM   18  C   UNL     1     -11.230  11.573  65.737  1.00  0.00    -0.164 C  
BRANCH  16  19
HETATM   19  C   UNL     1      -9.367   9.541  67.138  1.00  0.00    -0.143 A  
HETATM   20  N   UNL     1      -8.367   9.671  66.254  1.00  0.00    -0.115 NA 
HETATM   21  O   UNL     1      -8.146   8.409  65.739  1.00  0.00    -0.105 OA 
HETATM   22  C   UNL     1      -8.996   7.524  66.326  1.00  0.00    -0.167 A  
HETATM   23  C   UNL     1      -9.747   8.173  67.282  1.00  0.00    -0.233 A  
HETATM   24  C   UNL     1     -10.665   7.423  68.039  1.00  0.00    -0.191 A  
HETATM   25  C   UNL     1     -10.813   6.060  67.740  1.00  0.00    -0.380 A  
HETATM   26  C   UNL     1     -10.055   5.467  66.732  1.00  0.00    -0.207 A  
HETATM   27  C   UNL     1      -9.100   6.174  66.008  1.00  0.00    -0.136 A  
HETATM   28  F   UNL     1     -10.257   4.174  66.449  1.00  0.00    -0.236 F  
ENDBRANCH  16  19
ENDBRANCH  12  13
ENDBRANCH  11  12
ENDBRANCH  10  11
ENDBRANCH   9  10
ENDBRANCH   4   9
BRANCH   6  29
HETATM   29  C   UNL     1      -6.623  20.414  67.639  1.00  0.00    -0.271 C  
HETATM   30  O   UNL     1      -6.290  20.530  68.818  1.00  0.00    -0.315 OA 
HETATM   31  C   UNL     1      -6.094  21.360  66.590  1.00  0.00    -0.371 C  
ENDBRANCH   6  29
ENDBRANCH   2   3
TORSDOF 8
ENDMDL
MODEL      179
REMARK 921   NORMALIZED FREE ENERGY PREDICTED BY IDOCK:   -5.08 KCAL/MOL
REMARK 922        TOTAL FREE ENERGY PREDICTED BY IDOCK:   -8.26 KCAL/MOL
REMARK 923 INTER-LIGAND FREE ENERGY PREDICTED BY IDOCK:   -6.54 KCAL/MOL
REMARK 924 INTRA-LIGAND FREE ENERGY PREDICTED BY IDOCK:   -1.72 KCAL/MOL
REMARK 927      BINDING AFFINITY PREDICTED BY RF-SCORE:    0.00 PKD
ROOT
HETATM    1  C   UNL     1     -10.301   8.041  66.802  1.00  0.00    -0.290 C  
HETATM    2  O   UNL     1     -10.303   9.348  66.247  1.00  0.00    -0.240 OA 
ENDROOT
BRANCH   2   3
HETATM    3  C   UNL     1      -9.490   9.576  65.165  1.00  0.00    -0.236 A  
HETATM    4  C   UNL     1      -9.928  10.564  64.265  1.00  0.00    -0.331 A  
HETATM    5  C   UNL     1      -9.162  10.859  63.135  1.00  0.00    -0.314 A  
HETATM    6  C   UNL     1      -7.514   9.214  63.794  1.00  0.00    -0.106 A  
HETATM    7  C   UNL     1      -8.278   8.917  64.931  1.00  0.00    -0.161 A  
HETATM    8  C   UNL     1      -7.953  10.195  62.906  1.00  0.00    -0.148 A  
BRANCH   4   9
HETATM    9  O   UNL     1     -11.132  11.160  64.539  1.00  0.00    -0.253 OA 
BRANCH   9  10
HETATM   10  C   UNL     1     -11.798  11.841  63.475  1.00  0.00    -0.378 C  
BRANCH  10  11
HETATM   11  C   UNL     1     -12.614  13.040  63.971  1.00  0.00    -0.289 C  
BRANCH  11  12
HETATM   12  C   UNL     1     -11.788  14.316  64.220  1.00  0.00    -0.379 C  
BRANCH  12  13
HETATM   13  N   UNL     1     -11.514  14.524  65.645  1.00  0.00    -0.338 NA 
HETATM   14  C   UNL     1     -10.107  14.300  66.001  1.00  0.00    -0.318 C  
HETATM   15  C   UNL     1      -9.845  14.740  67.455  1.00  0.00    -0.222 C  
HETATM   16  C   UNL     1     -10.851  14.154  68.466  1.00  0.00    -0.264 C  
HETATM   17  C   UNL     1     -12.271  14.363  67.913  1.00  0.00    -0.178 C  
HETATM   18  C   UNL     1     -12.400  13.763  66.520  1.00  0.00    -0.386 C  
BRANCH  16  19
HETATM   19  C   UNL     1     -10.606  12.707  68.808  1.00  0.00    -0.186 A  
HETATM   20  N   UNL     1     -11.508  12.000  69.504  1.00  0.00    -0.291 NA 
HETATM   21  O   UNL     1     -10.905  10.793  69.796  1.00  0.00    -0.256 OA 
HETATM   22  C   UNL     1      -9.654  10.770  69.262  1.00  0.00    -0.100 A  
HETATM   23  C   UNL     1      -9.435  11.932  68.555  1.00  0.00    -0.151 A  
HETATM   24  C   UNL     1      -8.208  12.090  67.885  1.00  0.00    -0.153 A  
HETATM   25  C   UNL     1      -7.243  11.080  68.022  1.00  0.00    -0.086 A  
HETATM   26  C   UNL     1      -7.507   9.944  68.785  1.00  0.00    -0.079 A  
HETATM   27  C   UNL     1      -8.733   9.738  69.410  1.00  0.00    -0.178 A  
HETATM   28  F   UNL     1      -6.545   9.023  68.925  1.00  0.00    -0.049 F  
ENDBRANCH  16  19
ENDBRANCH  12  13
ENDBRANCH  11  12
ENDBRANCH  10  11
ENDBRANCH   9  10
ENDBRANCH   4   9
BRANCH   6  29
HETATM   29  C   UNL     1      -6.249   8.460  63.580  1.00  0.00    -0.073 C  
HETATM   30  O   UNL     1      -5.933   7.574  64.372  1.00  0.00    -0.037 OA 
HETATM   31  C   UNL     1      -5.404   8.746  62.363  1.00  0.00    -0.071 C  
ENDBRANCH   6  29
ENDBRANCH   2   3
TORSDOF 8
ENDMDL
MODEL      180
REMARK 921   NORMALIZED FREE ENERGY PREDICTED BY IDOCK:   -5.07 KCAL/MOL
REMARK 922        TOTAL FREE ENERGY PREDICTED BY IDOCK:   -8.23 KCAL/MOL
REMARK 923 INTER-LIGAND FREE ENERGY PREDICTED BY IDOCK:   -7.33 KCAL/MOL
REMARK 924 INTRA-LIGAND FREE ENERGY PREDICTED BY IDOCK:   -0.90 KCAL/MOL
REMARK 927      BINDING AFFINITY PREDICTED BY RF-SCORE:    0.00 PKD
ROOT
HETATM    1  C   UNL     1     -10.686  14.794  64.867  1.00  0.00    -0.417 C  
HETATM    2  O   UNL     1     -11.562  14.800  65.985  1.00  0.00    -0.349 OA 
ENDROOT
BRANCH   2   3
HETATM    3  C   UNL     1     -11.213  15.586  67.055  1.00  0.00    -0.177 A  
HETATM    4  C   UNL     1     -11.556  15.083  68.324  1.00  0.00    -0.334 A  
HETATM    5  C   UNL     1     -11.240  15.820  69.468  1.00  0.00    -0.317 A  
HETATM    6  C   UNL     1     -10.224  17.543  68.106  1.00  0.00    -0.359 A  
HETATM    7  C   UNL     1     -10.536  16.806  66.956  1.00  0.00    -0.285 A  
HETATM    8  C   UNL     1     -10.566  17.039  69.361  1.00  0.00    -0.236 A  
BRANCH   4   9
HETATM    9  O   UNL     1     -12.235  13.893  68.354  1.00  0.00    -0.339 OA 
BRANCH   9  10
HETATM   10  C   UNL     1     -11.572  12.759  68.914  1.00  0.00    -0.316 C  
BRANCH  10  11
HETATM   11  C   UNL     1     -10.368  12.316  68.075  1.00  0.00    -0.220 C  
BRANCH  11  12
HETATM   12  C   UNL     1     -10.714  11.373  66.907  1.00  0.00    -0.265 C  
BRANCH  12  13
HETATM   13  N   UNL     1      -9.983  10.104  66.990  1.00  0.00    -0.190 NA 
HETATM   14  C   UNL     1     -10.784   9.013  67.557  1.00  0.00    -0.169 C  
HETATM   15  C   UNL     1     -10.038   7.671  67.418  1.00  0.00    -0.287 C  
HETATM   16  C   UNL     1      -8.584   7.719  67.934  1.00  0.00    -0.122 C  
HETATM   17  C   UNL     1      -7.904   8.967  67.346  1.00  0.00    -0.100 C  
HETATM   18  C   UNL     1      -8.701  10.222  67.678  1.00  0.00    -0.121 C  
BRANCH  16  19
HETATM   19  C   UNL     1      -8.464   7.687  69.435  1.00  0.00    -0.132 A  
HETATM   20  N   UNL     1      -7.436   8.281  70.058  1.00  0.00    -0.063 NA 
HETATM   21  O   UNL     1      -7.529   7.913  71.385  1.00  0.00    -0.068 OA 
HETATM   22  C   UNL     1      -8.619   7.118  71.561  1.00  0.00    -0.115 A  
HETATM   23  C   UNL     1      -9.298   7.000  70.368  1.00  0.00    -0.159 A  
HETATM   24  C   UNL     1     -10.487   6.248  70.342  1.00  0.00    -0.277 A  
HETATM   25  C   UNL     1     -10.889   5.604  71.522  1.00  0.00    -0.297 A  
HETATM   26  C   UNL     1     -10.137   5.727  72.689  1.00  0.00    -0.180 A  
HETATM   27  C   UNL     1      -8.990   6.510  72.755  1.00  0.00    -0.127 A  
HETATM   28  F   UNL     1     -10.532   5.062  73.784  1.00  0.00    -0.190 F  
ENDBRANCH  16  19
ENDBRANCH  12  13
ENDBRANCH  11  12
ENDBRANCH  10  11
ENDBRANCH   9  10
ENDBRANCH   4   9
BRANCH   6  29
HETATM   29  C   UNL     1      -9.530  18.850  67.939  1.00  0.00    -0.305 C  
HETATM   30  O   UNL     1      -9.001  19.381  68.914  1.00  0.00    -0.366 OA 
HETATM   31  C   UNL     1      -9.429  19.472  66.569  1.00  0.00    -0.450 C  
ENDBRANCH   6  29
ENDBRANCH   2   3
TORSDOF 8
ENDMDL
MODEL      181
REMARK 921   NORMALIZED FREE ENERGY PREDICTED BY IDOCK:   -5.06 KCAL/MOL
REMARK 922        TOTAL FREE ENERGY PREDICTED BY IDOCK:   -8.22 KCAL/MOL
REMARK 923 INTER-LIGAND FREE ENERGY PREDICTED BY IDOCK:   -6.55 KCAL/MOL
REMARK 924 INTRA-LIGAND FREE ENERGY PREDICTED BY IDOCK:   -1.67 KCAL/MOL
REMARK 927      BINDING AFFINITY PREDICTED BY RF-SCORE:    0.00 PKD
ROOT
HETATM    1  C   UNL     1     -11.323  13.099  67.000  1.00  0.00    -0.312 C  
HETATM    2  O   UNL     1     -10.484  11.962  67.143  1.00  0.00    -0.214 OA 
ENDROOT
BRANCH   2   3
HETATM    3  C   UNL     1     -10.596  11.237  68.302  1.00  0.00    -0.197 A  
HETATM    4  C   UNL     1      -9.620  10.242  68.502  1.00  0.00    -0.161 A  
HETATM    5  C   UNL     1      -9.661   9.456  69.655  1.00  0.00    -0.199 A  
HETATM    6  C   UNL     1     -11.619  10.648  70.428  1.00  0.00    -0.441 A  
HETATM    7  C   UNL     1     -11.581  11.442  69.275  1.00  0.00    -0.384 A  
HETATM    8  C   UNL     1     -10.649   9.665  70.621  1.00  0.00    -0.386 A  
BRANCH   4   9
HETATM    9  O   UNL     1      -8.694  10.077  67.505  1.00  0.00    -0.125 OA 
BRANCH   9  10
HETATM   10  C   UNL     1      -7.342  10.440  67.782  1.00  0.00    -0.087 C  
BRANCH  10  11
HETATM   11  C   UNL     1      -6.978  11.814  67.208  1.00  0.00    -0.138 C  
BRANCH  11  12
HETATM   12  C   UNL     1      -5.825  12.527  67.939  1.00  0.00    -0.100 C  
BRANCH  12  13
HETATM   13  N   UNL     1      -6.203  13.876  68.376  1.00  0.00    -0.091 NA 
HETATM   14  C   UNL     1      -6.994  13.882  69.612  1.00  0.00     0.075 C  
HETATM   15  C   UNL     1      -7.172  15.324  70.128  1.00  0.00     0.120 C  
HETATM   16  C   UNL     1      -7.680  16.304  69.050  1.00  0.00    -0.224 C  
HETATM   17  C   UNL     1      -6.832  16.111  67.782  1.00  0.00    -0.165 C  
HETATM   18  C   UNL     1      -6.861  14.656  67.332  1.00  0.00    -0.055 C  
BRANCH  16  19
HETATM   19  C   UNL     1      -9.151  16.178  68.749  1.00  0.00    -0.229 A  
HETATM   20  N   UNL     1      -9.650  16.570  67.568  1.00  0.00    -0.230 NA 
HETATM   21  O   UNL     1     -11.022  16.490  67.687  1.00  0.00    -0.301 OA 
HETATM   22  C   UNL     1     -11.345  16.034  68.927  1.00  0.00    -0.370 A  
HETATM   23  C   UNL     1     -10.192  15.745  69.624  1.00  0.00    -0.289 A  
HETATM   24  C   UNL     1     -10.305  15.217  70.923  1.00  0.00     0.317 A  
HETATM   25  C   UNL     1     -11.590  15.069  71.468  1.00  0.00    -0.409 A  
HETATM   26  C   UNL     1     -12.719  15.417  70.729  1.00  0.00    -0.459 A  
HETATM   27  C   UNL     1     -12.636  15.887  69.422  1.00  0.00     0.396 A  
HETATM   28  F   UNL     1     -13.925  15.301  71.300  1.00  0.00    -0.481 F  
ENDBRANCH  16  19
ENDBRANCH  12  13
ENDBRANCH  11  12
ENDBRANCH  10  11
ENDBRANCH   9  10
ENDBRANCH   4   9
BRANCH   6  29
HETATM   29  C   UNL     1     -12.708  10.891  71.414  1.00  0.00    -0.434 C  
HETATM   30  O   UNL     1     -13.064  12.044  71.648  1.00  0.00    -0.427 OA 
HETATM   31  C   UNL     1     -13.403   9.720  72.064  1.00  0.00    -0.547 C  
ENDBRANCH   6  29
ENDBRANCH   2   3
TORSDOF 8
ENDMDL
MODEL      182
REMARK 921   NORMALIZED FREE ENERGY PREDICTED BY IDOCK:   -5.06 KCAL/MOL
REMARK 922        TOTAL FREE ENERGY PREDICTED BY IDOCK:   -8.22 KCAL/MOL
REMARK 923 INTER-LIGAND FREE ENERGY PREDICTED BY IDOCK:   -7.27 KCAL/MOL
REMARK 924 INTRA-LIGAND FREE ENERGY PREDICTED BY IDOCK:   -0.95 KCAL/MOL
REMARK 927      BINDING AFFINITY PREDICTED BY RF-SCORE:    0.00 PKD
ROOT
HETATM    1  C   UNL     1      -6.859  12.195  68.331  1.00  0.00    -0.073 C  
HETATM    2  O   UNL     1      -6.949  10.796  68.103  1.00  0.00    -0.071 OA 
ENDROOT
BRANCH   2   3
HETATM    3  C   UNL     1      -7.912  10.360  67.228  1.00  0.00    -0.110 A  
HETATM    4  C   UNL     1      -8.824   9.417  67.738  1.00  0.00    -0.123 A  
HETATM    5  C   UNL     1      -9.835   8.918  66.914  1.00  0.00    -0.288 A  
HETATM    6  C   UNL     1      -9.061  10.300  65.086  1.00  0.00    -0.234 A  
HETATM    7  C   UNL     1      -8.046  10.806  65.909  1.00  0.00    -0.148 A  
HETATM    8  C   UNL     1      -9.962   9.366  65.597  1.00  0.00    -0.210 A  
BRANCH   4   9
HETATM    9  O   UNL     1      -8.628   9.005  69.031  1.00  0.00    -0.130 OA 
BRANCH   9  10
HETATM   10  C   UNL     1      -9.591   9.397  70.010  1.00  0.00    -0.226 C  
BRANCH  10  11
HETATM   11  C   UNL     1     -10.070  10.840  69.811  1.00  0.00     0.047 C  
BRANCH  11  12
HETATM   12  C   UNL     1     -11.586  10.985  69.585  1.00  0.00    -0.318 C  
BRANCH  12  13
HETATM   13  N   UNL     1     -11.935  12.290  69.013  1.00  0.00    -0.284 NA 
HETATM   14  C   UNL     1     -11.306  12.535  67.709  1.00  0.00    -0.296 C  
HETATM   15  C   UNL     1     -11.878  13.817  67.071  1.00  0.00    -0.445 C  
HETATM   16  C   UNL     1     -11.861  15.035  68.017  1.00  0.00    -0.266 C  
HETATM   17  C   UNL     1     -12.446  14.603  69.372  1.00  0.00    -0.104 C  
HETATM   18  C   UNL     1     -11.691  13.403  69.926  1.00  0.00    -0.267 C  
BRANCH  16  19
HETATM   19  C   UNL     1     -10.503  15.665  68.184  1.00  0.00    -0.259 A  
HETATM   20  N   UNL     1      -9.532  15.041  68.868  1.00  0.00    -0.205 NA 
HETATM   21  O   UNL     1      -8.501  15.951  68.984  1.00  0.00    -0.211 OA 
HETATM   22  C   UNL     1      -8.844  17.108  68.356  1.00  0.00    -0.255 A  
HETATM   23  C   UNL     1     -10.078  16.960  67.762  1.00  0.00    -0.292 A  
HETATM   24  C   UNL     1     -10.601  18.035  67.020  1.00  0.00    -0.320 A  
HETATM   25  C   UNL     1      -9.864  19.229  66.975  1.00  0.00    -0.424 A  
HETATM   26  C   UNL     1      -8.639  19.333  67.632  1.00  0.00    -0.296 A  
HETATM   27  C   UNL     1      -8.075  18.266  68.323  1.00  0.00    -0.311 A  
HETATM   28  F   UNL     1      -7.987  20.503  67.600  1.00  0.00    -0.335 F  
ENDBRANCH  16  19
ENDBRANCH  12  13
ENDBRANCH  11  12
ENDBRANCH  10  11
ENDBRANCH   9  10
ENDBRANCH   4   9
BRANCH   6  29
HETATM   29  C   UNL     1      -9.136  10.788  63.681  1.00  0.00    -0.212 C  
HETATM   30  O   UNL     1      -8.384  10.308  62.834  1.00  0.00    -0.151 OA 
HETATM   31  C   UNL     1     -10.175  11.814  63.301  1.00  0.00    -0.452 C  
ENDBRANCH   6  29
ENDBRANCH   2   3
TORSDOF 8
ENDMDL
MODEL      183
REMARK 921   NORMALIZED FREE ENERGY PREDICTED BY IDOCK:   -5.05 KCAL/MOL
REMARK 922        TOTAL FREE ENERGY PREDICTED BY IDOCK:   -8.21 KCAL/MOL
REMARK 923 INTER-LIGAND FREE ENERGY PREDICTED BY IDOCK:   -7.76 KCAL/MOL
REMARK 924 INTRA-LIGAND FREE ENERGY PREDICTED BY IDOCK:   -0.45 KCAL/MOL
REMARK 927      BINDING AFFINITY PREDICTED BY RF-SCORE:    0.00 PKD
ROOT
HETATM    1  C   UNL     1      -7.130  15.188  68.285  1.00  0.00    -0.112 C  
HETATM    2  O   UNL     1      -7.599  15.524  66.987  1.00  0.00    -0.215 OA 
ENDROOT
BRANCH   2   3
HETATM    3  C   UNL     1      -8.061  16.802  66.794  1.00  0.00    -0.238 A  
HETATM    4  C   UNL     1      -9.445  16.988  66.972  1.00  0.00    -0.250 A  
HETATM    5  C   UNL     1     -10.000  18.257  66.793  1.00  0.00    -0.359 A  
HETATM    6  C   UNL     1      -7.816  19.166  66.284  1.00  0.00    -0.307 A  
HETATM    7  C   UNL     1      -7.254  17.896  66.466  1.00  0.00    -0.273 A  
HETATM    8  C   UNL     1      -9.188  19.345  66.463  1.00  0.00    -0.403 A  
BRANCH   4   9
HETATM    9  O   UNL     1     -10.185  15.874  67.274  1.00  0.00    -0.265 OA 
BRANCH   9  10
HETATM   10  C   UNL     1     -11.308  16.033  68.141  1.00  0.00    -0.289 C  
BRANCH  10  11
HETATM   11  C   UNL     1     -11.837  14.691  68.660  1.00  0.00    -0.346 C  
BRANCH  11  12
HETATM   12  C   UNL     1     -12.142  13.656  67.562  1.00  0.00    -0.316 C  
BRANCH  12  13
HETATM   13  N   UNL     1     -11.019  12.739  67.344  1.00  0.00    -0.246 NA 
HETATM   14  C   UNL     1     -11.325  11.670  66.386  1.00  0.00    -0.245 C  
HETATM   15  C   UNL     1     -10.048  10.876  66.042  1.00  0.00    -0.303 C  
HETATM   16  C   UNL     1      -9.264  10.404  67.283  1.00  0.00    -0.157 C  
HETATM   17  C   UNL     1      -9.115  11.596  68.243  1.00  0.00    -0.187 C  
HETATM   18  C   UNL     1     -10.476  12.189  68.582  1.00  0.00    -0.216 C  
BRANCH  16  19
HETATM   19  C   UNL     1      -9.875   9.215  67.979  1.00  0.00    -0.168 A  
HETATM   20  N   UNL     1     -10.420   9.335  69.199  1.00  0.00    -0.215 NA 
HETATM   21  O   UNL     1     -10.714   8.052  69.613  1.00  0.00    -0.238 OA 
HETATM   22  C   UNL     1     -10.365   7.168  68.639  1.00  0.00    -0.187 A  
HETATM   23  C   UNL     1      -9.894   7.857  67.543  1.00  0.00    -0.221 A  
HETATM   24  C   UNL     1      -9.515   7.126  66.402  1.00  0.00    -0.177 A  
HETATM   25  C   UNL     1      -9.578   5.726  66.461  1.00  0.00    -0.175 A  
HETATM   26  C   UNL     1     -10.024   5.083  67.614  1.00  0.00    -0.155 A  
HETATM   27  C   UNL     1     -10.458   5.784  68.735  1.00  0.00    -0.312 A  
HETATM   28  F   UNL     1     -10.030   3.743  67.646  1.00  0.00    -0.212 F  
ENDBRANCH  16  19
ENDBRANCH  12  13
ENDBRANCH  11  12
ENDBRANCH  10  11
ENDBRANCH   9  10
ENDBRANCH   4   9
BRANCH   6  29
HETATM   29  C   UNL     1      -6.913  20.288  65.905  1.00  0.00    -0.267 C  
HETATM   30  O   UNL     1      -6.642  20.469  64.719  1.00  0.00    -0.300 OA 
HETATM   31  C   UNL     1      -6.396  21.224  66.969  1.00  0.00    -0.406 C  
ENDBRANCH   6  29
ENDBRANCH   2   3
TORSDOF 8
ENDMDL
MODEL      184
REMARK 921   NORMALIZED FREE ENERGY PREDICTED BY IDOCK:   -5.05 KCAL/MOL
REMARK 922        TOTAL FREE ENERGY PREDICTED BY IDOCK:   -8.20 KCAL/MOL
REMARK 923 INTER-LIGAND FREE ENERGY PREDICTED BY IDOCK:   -7.01 KCAL/MOL
REMARK 924 INTRA-LIGAND FREE ENERGY PREDICTED BY IDOCK:   -1.19 KCAL/MOL
REMARK 927      BINDING AFFINITY PREDICTED BY RF-SCORE:    0.00 PKD
ROOT
HETATM    1  C   UNL     1     -12.350   8.910  71.982  1.00  0.00    -0.390 C  
HETATM    2  O   UNL     1     -11.829  10.164  71.567  1.00  0.00    -0.362 OA 
ENDROOT
BRANCH   2   3
HETATM    3  C   UNL     1     -11.618  10.348  70.224  1.00  0.00    -0.327 A  
HETATM    4  C   UNL     1     -11.997  11.601  69.708  1.00  0.00    -0.332 A  
HETATM    5  C   UNL     1     -11.819  11.872  68.349  1.00  0.00    -0.352 A  
HETATM    6  C   UNL     1     -10.872   9.671  68.010  1.00  0.00    -0.250 A  
HETATM    7  C   UNL     1     -11.045   9.396  69.373  1.00  0.00    -0.098 A  
HETATM    8  C   UNL     1     -11.248  10.916  67.505  1.00  0.00    -0.364 A  
BRANCH   4   9
HETATM    9  O   UNL     1     -12.571  12.483  70.587  1.00  0.00    -0.258 OA 
BRANCH   9  10
HETATM   10  C   UNL     1     -11.987  13.781  70.708  1.00  0.00    -0.240 C  
BRANCH  10  11
HETATM   11  C   UNL     1     -12.397  14.713  69.562  1.00  0.00    -0.232 C  
BRANCH  11  12
HETATM   12  C   UNL     1     -11.691  16.082  69.568  1.00  0.00    -0.272 C  
BRANCH  12  13
HETATM   13  N   UNL     1     -10.446  16.061  68.793  1.00  0.00    -0.235 NA 
HETATM   14  C   UNL     1     -10.568  15.333  67.524  1.00  0.00    -0.273 C  
HETATM   15  C   UNL     1      -9.300  15.530  66.669  1.00  0.00    -0.291 C  
HETATM   16  C   UNL     1      -7.991  15.247  67.434  1.00  0.00    -0.211 C  
HETATM   17  C   UNL     1      -8.051  15.983  68.783  1.00  0.00    -0.212 C  
HETATM   18  C   UNL     1      -9.298  15.584  69.559  1.00  0.00    -0.276 C  
BRANCH  16  19
HETATM   19  C   UNL     1      -7.695  13.782  67.623  1.00  0.00    -0.179 A  
HETATM   20  N   UNL     1      -8.259  12.857  66.832  1.00  0.00    -0.071 NA 
HETATM   21  O   UNL     1      -7.927  11.634  67.380  1.00  0.00    -0.132 OA 
HETATM   22  C   UNL     1      -7.153  11.824  68.482  1.00  0.00    -0.091 A  
HETATM   23  C   UNL     1      -6.908  13.170  68.643  1.00  0.00    -0.099 A  
HETATM   24  C   UNL     1      -6.085  13.581  69.708  1.00  0.00    -0.127 A  
HETATM   25  C   UNL     1      -5.606  12.601  70.591  1.00  0.00    -0.177 A  
HETATM   26  C   UNL     1      -5.922  11.257  70.400  1.00  0.00    -0.140 A  
HETATM   27  C   UNL     1      -6.685  10.820  69.322  1.00  0.00    -0.081 A  
HETATM   28  F   UNL     1      -5.480  10.357  71.288  1.00  0.00    -0.081 F  
ENDBRANCH  16  19
ENDBRANCH  12  13
ENDBRANCH  11  12
ENDBRANCH  10  11
ENDBRANCH   9  10
ENDBRANCH   4   9
BRANCH   6  29
HETATM   29  C   UNL     1     -10.285   8.610  67.147  1.00  0.00    -0.283 C  
HETATM   30  O   UNL     1      -9.495   8.924  66.258  1.00  0.00    -0.200 OA 
HETATM   31  C   UNL     1     -10.614   7.162  67.413  1.00  0.00    -0.372 C  
ENDBRANCH   6  29
ENDBRANCH   2   3
TORSDOF 8
ENDMDL
MODEL      185
REMARK 921   NORMALIZED FREE ENERGY PREDICTED BY IDOCK:   -5.04 KCAL/MOL
REMARK 922        TOTAL FREE ENERGY PREDICTED BY IDOCK:   -8.20 KCAL/MOL
REMARK 923 INTER-LIGAND FREE ENERGY PREDICTED BY IDOCK:   -6.75 KCAL/MOL
REMARK 924 INTRA-LIGAND FREE ENERGY PREDICTED BY IDOCK:   -1.45 KCAL/MOL
REMARK 927      BINDING AFFINITY PREDICTED BY RF-SCORE:    0.00 PKD
ROOT
HETATM    1  C   UNL     1     -11.026   6.115  66.719  1.00  0.00    -0.245 C  
HETATM    2  O   UNL     1      -9.779   5.811  67.326  1.00  0.00    -0.118 OA 
ENDROOT
BRANCH   2   3
HETATM    3  C   UNL     1      -9.493   6.422  68.521  1.00  0.00    -0.120 A  
HETATM    4  C   UNL     1      -8.130   6.657  68.781  1.00  0.00    -0.119 A  
HETATM    5  C   UNL     1      -7.750   7.273  69.975  1.00  0.00    -0.096 A  
HETATM    6  C   UNL     1     -10.067   7.444  70.651  1.00  0.00    -0.191 A  
HETATM    7  C   UNL     1     -10.454   6.830  69.453  1.00  0.00    -0.244 A  
HETATM    8  C   UNL     1      -8.715   7.676  70.902  1.00  0.00    -0.138 A  
BRANCH   4   9
HETATM    9  O   UNL     1      -7.237   6.217  67.839  1.00  0.00    -0.078 OA 
BRANCH   9  10
HETATM   10  C   UNL     1      -6.732   7.167  66.900  1.00  0.00    -0.060 C  
BRANCH  10  11
HETATM   11  C   UNL     1      -6.371   8.503  67.561  1.00  0.00    -0.057 C  
BRANCH  11  12
HETATM   12  C   UNL     1      -7.105   9.724  66.978  1.00  0.00    -0.086 C  
BRANCH  12  13
HETATM   13  N   UNL     1      -8.490   9.811  67.454  1.00  0.00    -0.121 NA 
HETATM   14  C   UNL     1      -9.478   9.737  66.371  1.00  0.00    -0.184 C  
HETATM   15  C   UNL     1     -10.902   9.619  66.951  1.00  0.00    -0.106 C  
HETATM   16  C   UNL     1     -11.220  10.682  68.022  1.00  0.00    -0.373 C  
HETATM   17  C   UNL     1     -10.054  10.724  69.023  1.00  0.00    -0.225 C  
HETATM   18  C   UNL     1      -8.735  10.972  68.304  1.00  0.00    -0.144 C  
BRANCH  16  19
HETATM   19  C   UNL     1     -11.509  12.050  67.462  1.00  0.00    -0.333 A  
HETATM   20  N   UNL     1     -11.808  12.217  66.165  1.00  0.00    -0.582 NA 
HETATM   21  O   UNL     1     -11.834  13.580  65.950  1.00  0.00    -0.338 OA 
HETATM   22  C   UNL     1     -11.571  14.228  67.117  1.00  0.00    -0.380 A  
HETATM   23  C   UNL     1     -11.430  13.308  68.132  1.00  0.00    -0.347 A  
HETATM   24  C   UNL     1     -11.193  13.777  69.437  1.00  0.00    -0.259 A  
HETATM   25  C   UNL     1     -11.051  15.160  69.628  1.00  0.00    -0.283 A  
HETATM   26  C   UNL     1     -11.163  16.041  68.553  1.00  0.00    -0.374 A  
HETATM   27  C   UNL     1     -11.453  15.606  67.264  1.00  0.00    -0.037 A  
HETATM   28  F   UNL     1     -10.979  17.350  68.770  1.00  0.00    -0.287 F  
ENDBRANCH  16  19
ENDBRANCH  12  13
ENDBRANCH  11  12
ENDBRANCH  10  11
ENDBRANCH   9  10
ENDBRANCH   4   9
BRANCH   6  29
HETATM   29  C   UNL     1     -11.130   7.830  71.620  1.00  0.00    -0.237 C  
HETATM   30  O   UNL     1     -11.383   9.020  71.796  1.00  0.00    -0.334 OA 
HETATM   31  C   UNL     1     -11.926   6.758  72.323  1.00  0.00    -0.245 C  
ENDBRANCH   6  29
ENDBRANCH   2   3
TORSDOF 8
ENDMDL
MODEL      186
REMARK 921   NORMALIZED FREE ENERGY PREDICTED BY IDOCK:   -5.03 KCAL/MOL
REMARK 922        TOTAL FREE ENERGY PREDICTED BY IDOCK:   -8.18 KCAL/MOL
REMARK 923 INTER-LIGAND FREE ENERGY PREDICTED BY IDOCK:   -7.69 KCAL/MOL
REMARK 924 INTRA-LIGAND FREE ENERGY PREDICTED BY IDOCK:   -0.49 KCAL/MOL
REMARK 927      BINDING AFFINITY PREDICTED BY RF-SCORE:    0.00 PKD
ROOT
HETATM    1  C   UNL     1     -12.390   8.149  71.285  1.00  0.00    -0.265 C  
HETATM    2  O   UNL     1     -11.846   9.368  70.800  1.00  0.00    -0.276 OA 
ENDROOT
BRANCH   2   3
HETATM    3  C   UNL     1     -10.492   9.413  70.583  1.00  0.00    -0.290 A  
HETATM    4  C   UNL     1     -10.078  10.090  69.421  1.00  0.00    -0.219 A  
HETATM    5  C   UNL     1      -8.717  10.182  69.123  1.00  0.00    -0.173 A  
HETATM    6  C   UNL     1      -8.169   8.955  71.134  1.00  0.00    -0.218 A  
HETATM    7  C   UNL     1      -9.533   8.862  71.440  1.00  0.00    -0.344 A  
HETATM    8  C   UNL     1      -7.764   9.628  69.981  1.00  0.00    -0.162 A  
BRANCH   4   9
HETATM    9  O   UNL     1     -11.066  10.591  68.613  1.00  0.00    -0.236 OA 
BRANCH   9  10
HETATM   10  C   UNL     1     -11.564  11.898  68.898  1.00  0.00    -0.311 C  
BRANCH  10  11
HETATM   11  C   UNL     1     -11.015  12.955  67.933  1.00  0.00    -0.266 C  
BRANCH  11  12
HETATM   12  C   UNL     1     -11.991  14.105  67.622  1.00  0.00    -0.370 C  
BRANCH  12  13
HETATM   13  N   UNL     1     -11.289  15.324  67.207  1.00  0.00    -0.310 NA 
HETATM   14  C   UNL     1     -10.081  15.055  66.418  1.00  0.00    -0.276 C  
HETATM   15  C   UNL     1      -9.515  16.367  65.838  1.00  0.00    -0.289 C  
HETATM   16  C   UNL     1      -9.345  17.482  66.890  1.00  0.00    -0.275 C  
HETATM   17  C   UNL     1     -10.643  17.577  67.708  1.00  0.00    -0.375 C  
HETATM   18  C   UNL     1     -10.996  16.227  68.317  1.00  0.00    -0.348 C  
BRANCH  16  19
HETATM   19  C   UNL     1      -8.146  17.304  67.784  1.00  0.00    -0.198 A  
HETATM   20  N   UNL     1      -7.658  16.083  68.050  1.00  0.00    -0.126 NA 
HETATM   21  O   UNL     1      -6.697  16.259  69.025  1.00  0.00    -0.157 OA 
HETATM   22  C   UNL     1      -6.595  17.581  69.328  1.00  0.00    -0.235 A  
HETATM   23  C   UNL     1      -7.441  18.306  68.516  1.00  0.00    -0.300 A  
HETATM   24  C   UNL     1      -7.457  19.706  68.641  1.00  0.00    -0.368 A  
HETATM   25  C   UNL     1      -6.654  20.292  69.633  1.00  0.00    -0.213 A  
HETATM   26  C   UNL     1      -5.850  19.504  70.453  1.00  0.00    -0.248 A  
HETATM   27  C   UNL     1      -5.773  18.122  70.311  1.00  0.00    -0.202 A  
HETATM   28  F   UNL     1      -5.131  20.097  71.415  1.00  0.00    -0.213 F  
ENDBRANCH  16  19
ENDBRANCH  12  13
ENDBRANCH  11  12
ENDBRANCH  10  11
ENDBRANCH   9  10
ENDBRANCH   4   9
BRANCH   6  29
HETATM   29  C   UNL     1      -7.194   8.323  72.066  1.00  0.00    -0.091 C  
HETATM   30  O   UNL     1      -6.292   9.005  72.548  1.00  0.00    -0.251 OA 
HETATM   31  C   UNL     1      -7.362   6.875  72.455  1.00  0.00    -0.085 C  
ENDBRANCH   6  29
ENDBRANCH   2   3
TORSDOF 8
ENDMDL
MODEL      187
REMARK 921   NORMALIZED FREE ENERGY PREDICTED BY IDOCK:   -5.01 KCAL/MOL
REMARK 922        TOTAL FREE ENERGY PREDICTED BY IDOCK:   -8.15 KCAL/MOL
REMARK 923 INTER-LIGAND FREE ENERGY PREDICTED BY IDOCK:   -7.29 KCAL/MOL
REMARK 924 INTRA-LIGAND FREE ENERGY PREDICTED BY IDOCK:   -0.86 KCAL/MOL
REMARK 927      BINDING AFFINITY PREDICTED BY RF-SCORE:    0.00 PKD
ROOT
HETATM    1  C   UNL     1      -8.739  16.771  66.304  1.00  0.00    -0.307 C  
HETATM    2  O   UNL     1      -9.496  15.770  65.641  1.00  0.00    -0.316 OA 
ENDROOT
BRANCH   2   3
HETATM    3  C   UNL     1     -10.438  15.098  66.378  1.00  0.00    -0.297 A  
HETATM    4  C   UNL     1     -11.127  14.071  65.706  1.00  0.00    -0.305 A  
HETATM    5  C   UNL     1     -12.105  13.338  66.382  1.00  0.00    -0.454 A  
HETATM    6  C   UNL     1     -11.707  14.618  68.396  1.00  0.00    -0.352 A  
HETATM    7  C   UNL     1     -10.723  15.354  67.724  1.00  0.00    -0.289 A  
HETATM    8  C   UNL     1     -12.386  13.601  67.725  1.00  0.00    -0.018 A  
BRANCH   4   9
HETATM    9  O   UNL     1     -10.817  13.882  64.384  1.00  0.00    -0.388 OA 
BRANCH   9  10
HETATM   10  C   UNL     1     -10.574  12.546  63.940  1.00  0.00    -0.440 C  
BRANCH  10  11
HETATM   11  C   UNL     1      -9.537  11.824  64.807  1.00  0.00    -0.110 C  
BRANCH  11  12
HETATM   12  C   UNL     1      -9.568  10.288  64.696  1.00  0.00    -0.312 C  
BRANCH  12  13
HETATM   13  N   UNL     1     -10.140   9.662  65.892  1.00  0.00    -0.273 NA 
HETATM   14  C   UNL     1     -10.197  10.567  67.046  1.00  0.00    -0.226 C  
HETATM   15  C   UNL     1     -10.997   9.921  68.195  1.00  0.00    -0.261 C  
HETATM   16  C   UNL     1     -10.533   8.490  68.539  1.00  0.00    -0.205 C  
HETATM   17  C   UNL     1     -10.414   7.693  67.230  1.00  0.00    -0.396 C  
HETATM   18  C   UNL     1      -9.492   8.403  66.249  1.00  0.00    -0.224 C  
BRANCH  16  19
HETATM   19  C   UNL     1      -9.254   8.433  69.332  1.00  0.00    -0.154 A  
HETATM   20  N   UNL     1      -8.262   9.308  69.107  1.00  0.00    -0.107 NA 
HETATM   21  O   UNL     1      -7.189   8.872  69.857  1.00  0.00    -0.049 OA 
HETATM   22  C   UNL     1      -7.542   7.752  70.545  1.00  0.00    -0.079 A  
HETATM   23  C   UNL     1      -8.869   7.467  70.309  1.00  0.00    -0.146 A  
HETATM   24  C   UNL     1      -9.446   6.364  70.964  1.00  0.00    -0.181 A  
HETATM   25  C   UNL     1      -8.622   5.571  71.777  1.00  0.00    -0.135 A  
HETATM   26  C   UNL     1      -7.275   5.885  71.945  1.00  0.00    -0.092 A  
HETATM   27  C   UNL     1      -6.695   7.003  71.354  1.00  0.00    -0.052 A  
HETATM   28  F   UNL     1      -6.512   5.079  72.695  1.00  0.00    -0.036 F  
ENDBRANCH  16  19
ENDBRANCH  12  13
ENDBRANCH  11  12
ENDBRANCH  10  11
ENDBRANCH   9  10
ENDBRANCH   4   9
BRANCH   6  29
HETATM   29  C   UNL     1     -11.990  14.955  69.818  1.00  0.00    -0.323 C  
HETATM   30  O   UNL     1     -11.747  16.088  70.230  1.00  0.00    -0.338 OA 
HETATM   31  C   UNL     1     -12.629  13.926  70.718  1.00  0.00    -0.424 C  
ENDBRANCH   6  29
ENDBRANCH   2   3
TORSDOF 8
ENDMDL
MODEL      188
REMARK 921   NORMALIZED FREE ENERGY PREDICTED BY IDOCK:   -5.00 KCAL/MOL
REMARK 922        TOTAL FREE ENERGY PREDICTED BY IDOCK:   -8.13 KCAL/MOL
REMARK 923 INTER-LIGAND FREE ENERGY PREDICTED BY IDOCK:   -7.53 KCAL/MOL
REMARK 924 INTRA-LIGAND FREE ENERGY PREDICTED BY IDOCK:   -0.60 KCAL/MOL
REMARK 927      BINDING AFFINITY PREDICTED BY RF-SCORE:    0.00 PKD
ROOT
HETATM    1  C   UNL     1     -10.721   7.850  67.228  1.00  0.00    -0.229 C  
HETATM    2  O   UNL     1      -9.664   8.712  66.833  1.00  0.00    -0.176 OA 
ENDROOT
BRANCH   2   3
HETATM    3  C   UNL     1      -9.021   8.425  65.655  1.00  0.00    -0.134 A  
HETATM    4  C   UNL     1      -9.145   9.388  64.637  1.00  0.00    -0.173 A  
HETATM    5  C   UNL     1      -8.524   9.174  63.404  1.00  0.00    -0.195 A  
HETATM    6  C   UNL     1      -7.637   7.064  64.190  1.00  0.00    -0.112 A  
HETATM    7  C   UNL     1      -8.256   7.275  65.429  1.00  0.00    -0.137 A  
HETATM    8  C   UNL     1      -7.762   8.023  63.185  1.00  0.00    -0.139 A  
BRANCH   4   9
HETATM    9  O   UNL     1      -9.923  10.482  64.913  1.00  0.00    -0.289 OA 
BRANCH   9  10
HETATM   10  C   UNL     1     -10.413  11.248  63.811  1.00  0.00    -0.399 C  
BRANCH  10  11
HETATM   11  C   UNL     1     -11.817  11.807  64.069  1.00  0.00    -0.402 C  
BRANCH  11  12
HETATM   12  C   UNL     1     -11.869  13.332  64.280  1.00  0.00    -0.417 C  
BRANCH  12  13
HETATM   13  N   UNL     1     -11.290  13.729  65.567  1.00  0.00    -0.304 NA 
HETATM   14  C   UNL     1     -12.236  14.449  66.428  1.00  0.00    -0.340 C  
HETATM   15  C   UNL     1     -11.637  14.646  67.836  1.00  0.00    -0.373 C  
HETATM   16  C   UNL     1     -10.216  15.246  67.821  1.00  0.00    -0.237 C  
HETATM   17  C   UNL     1      -9.371  14.465  66.801  1.00  0.00    -0.285 C  
HETATM   18  C   UNL     1     -10.040  14.470  65.432  1.00  0.00    -0.364 C  
BRANCH  16  19
HETATM   19  C   UNL     1     -10.177  16.726  67.544  1.00  0.00    -0.289 A  
HETATM   20  N   UNL     1     -11.128  17.315  66.804  1.00  0.00     0.201 NA 
HETATM   21  O   UNL     1     -10.702  18.611  66.595  1.00  0.00    -0.377 OA 
HETATM   22  C   UNL     1      -9.511  18.804  67.224  1.00  0.00    -0.301 A  
HETATM   23  C   UNL     1      -9.163  17.661  67.909  1.00  0.00    -0.267 A  
HETATM   24  C   UNL     1      -7.976  17.665  68.665  1.00  0.00    -0.275 A  
HETATM   25  C   UNL     1      -7.175  18.817  68.633  1.00  0.00    -0.330 A  
HETATM   26  C   UNL     1      -7.560  19.930  67.887  1.00  0.00    -0.301 A  
HETATM   27  C   UNL     1      -8.756  19.971  67.177  1.00  0.00    -0.414 A  
HETATM   28  F   UNL     1      -6.746  20.994  67.849  1.00  0.00    -0.346 F  
ENDBRANCH  16  19
ENDBRANCH  12  13
ENDBRANCH  11  12
ENDBRANCH  10  11
ENDBRANCH   9  10
ENDBRANCH   4   9
BRANCH   6  29
HETATM   29  C   UNL     1      -6.861   5.809  63.995  1.00  0.00    -0.049 C  
HETATM   30  O   UNL     1      -5.664   5.790  64.277  1.00  0.00    -0.022 OA 
HETATM   31  C   UNL     1      -7.563   4.562  63.517  1.00  0.00    -0.059 C  
ENDBRANCH   6  29
ENDBRANCH   2   3
TORSDOF 8
ENDMDL
MODEL      189
REMARK 921   NORMALIZED FREE ENERGY PREDICTED BY IDOCK:   -4.98 KCAL/MOL
REMARK 922        TOTAL FREE ENERGY PREDICTED BY IDOCK:   -8.10 KCAL/MOL
REMARK 923 INTER-LIGAND FREE ENERGY PREDICTED BY IDOCK:   -6.97 KCAL/MOL
REMARK 924 INTRA-LIGAND FREE ENERGY PREDICTED BY IDOCK:   -1.13 KCAL/MOL
REMARK 927      BINDING AFFINITY PREDICTED BY RF-SCORE:    0.00 PKD
ROOT
HETATM    1  C   UNL     1     -10.270  10.551  65.003  1.00  0.00    -0.295 C  
HETATM    2  O   UNL     1     -10.371   9.436  65.876  1.00  0.00    -0.191 OA 
ENDROOT
BRANCH   2   3
HETATM    3  C   UNL     1     -10.212   9.670  67.219  1.00  0.00    -0.233 A  
HETATM    4  C   UNL     1      -9.131   9.011  67.834  1.00  0.00    -0.135 A  
HETATM    5  C   UNL     1      -8.898   9.191  69.199  1.00  0.00    -0.146 A  
HETATM    6  C   UNL     1     -10.788  10.694  69.348  1.00  0.00    -0.289 A  
HETATM    7  C   UNL     1     -11.025  10.519  67.978  1.00  0.00    -0.345 A  
HETATM    8  C   UNL     1      -9.715  10.039  69.951  1.00  0.00    -0.245 A  
BRANCH   4   9
HETATM    9  O   UNL     1      -8.384   8.178  67.042  1.00  0.00    -0.113 OA 
BRANCH   9  10
HETATM   10  C   UNL     1      -7.323   8.755  66.280  1.00  0.00    -0.087 C  
BRANCH  10  11
HETATM   11  C   UNL     1      -6.450   9.696  67.118  1.00  0.00    -0.070 C  
BRANCH  11  12
HETATM   12  C   UNL     1      -6.274  11.105  66.522  1.00  0.00    -0.139 C  
BRANCH  12  13
HETATM   13  N   UNL     1      -6.681  12.154  67.462  1.00  0.00    -0.115 NA 
HETATM   14  C   UNL     1      -8.012  12.702  67.174  1.00  0.00    -0.122 C  
HETATM   15  C   UNL     1      -8.464  13.637  68.314  1.00  0.00    -0.170 C  
HETATM   16  C   UNL     1      -7.413  14.702  68.690  1.00  0.00    -0.125 C  
HETATM   17  C   UNL     1      -6.054  14.003  68.852  1.00  0.00    -0.086 C  
HETATM   18  C   UNL     1      -5.695  13.223  67.594  1.00  0.00    -0.087 C  
BRANCH  16  19
HETATM   19  C   UNL     1      -7.325  15.849  67.717  1.00  0.00    -0.144 A  
HETATM   20  N   UNL     1      -6.198  16.087  67.030  1.00  0.00    -0.322 NA 
HETATM   21  O   UNL     1      -6.391  17.290  66.383  1.00  0.00    -0.208 OA 
HETATM   22  C   UNL     1      -7.636  17.762  66.664  1.00  0.00    -0.236 A  
HETATM   23  C   UNL     1      -8.307  16.850  67.449  1.00  0.00    -0.201 A  
HETATM   24  C   UNL     1      -9.634  17.129  67.820  1.00  0.00    -0.256 A  
HETATM   25  C   UNL     1     -10.189  18.356  67.422  1.00  0.00    -0.393 A  
HETATM   26  C   UNL     1      -9.447  19.258  66.663  1.00  0.00    -0.344 A  
HETATM   27  C   UNL     1      -8.152  18.980  66.235  1.00  0.00    -0.298 A  
HETATM   28  F   UNL     1      -9.997  20.436  66.339  1.00  0.00    -0.521 F  
ENDBRANCH  16  19
ENDBRANCH  12  13
ENDBRANCH  11  12
ENDBRANCH  10  11
ENDBRANCH   9  10
ENDBRANCH   4   9
BRANCH   6  29
HETATM   29  C   UNL     1     -11.704  11.585  70.113  1.00  0.00    -0.309 C  
HETATM   30  O   UNL     1     -12.308  11.137  71.086  1.00  0.00    -0.365 OA 
HETATM   31  C   UNL     1     -11.830  13.037  69.725  1.00  0.00    -0.381 C  
ENDBRANCH   6  29
ENDBRANCH   2   3
TORSDOF 8
ENDMDL
MODEL      190
REMARK 921   NORMALIZED FREE ENERGY PREDICTED BY IDOCK:   -4.96 KCAL/MOL
REMARK 922        TOTAL FREE ENERGY PREDICTED BY IDOCK:   -8.07 KCAL/MOL
REMARK 923 INTER-LIGAND FREE ENERGY PREDICTED BY IDOCK:   -7.13 KCAL/MOL
REMARK 924 INTRA-LIGAND FREE ENERGY PREDICTED BY IDOCK:   -0.94 KCAL/MOL
REMARK 927      BINDING AFFINITY PREDICTED BY RF-SCORE:    0.00 PKD
ROOT
HETATM    1  C   UNL     1      -5.194  17.706  65.973  1.00  0.00    -0.189 C  
HETATM    2  O   UNL     1      -5.558  17.740  67.345  1.00  0.00    -0.134 OA 
ENDROOT
BRANCH   2   3
HETATM    3  C   UNL     1      -6.897  17.703  67.644  1.00  0.00    -0.174 A  
HETATM    4  C   UNL     1      -7.326  16.603  68.410  1.00  0.00    -0.190 A  
HETATM    5  C   UNL     1      -8.674  16.487  68.758  1.00  0.00    -0.259 A  
HETATM    6  C   UNL     1      -9.174  18.557  67.610  1.00  0.00    -0.292 A  
HETATM    7  C   UNL     1      -7.822  18.680  67.261  1.00  0.00    -0.240 A  
HETATM    8  C   UNL     1      -9.592  17.465  68.370  1.00  0.00    -0.292 A  
BRANCH   4   9
HETATM    9  O   UNL     1      -6.376  15.670  68.738  1.00  0.00    -0.101 OA 
BRANCH   9  10
HETATM   10  C   UNL     1      -6.740  14.641  69.658  1.00  0.00    -0.163 C  
BRANCH  10  11
HETATM   11  C   UNL     1      -6.741  13.252  69.008  1.00  0.00    -0.107 C  
BRANCH  11  12
HETATM   12  C   UNL     1      -6.814  13.266  67.469  1.00  0.00    -0.146 C  
BRANCH  12  13
HETATM   13  N   UNL     1      -7.825  12.335  66.959  1.00  0.00    -0.145 NA 
HETATM   14  C   UNL     1      -9.065  13.001  66.541  1.00  0.00    -0.127 C  
HETATM   15  C   UNL     1      -9.994  12.003  65.822  1.00  0.00    -0.266 C  
HETATM   16  C   UNL     1     -10.217  10.694  66.606  1.00  0.00    -0.284 C  
HETATM   17  C   UNL     1      -8.848  10.171  67.071  1.00  0.00    -0.144 C  
HETATM   18  C   UNL     1      -8.109  11.233  67.873  1.00  0.00    -0.121 C  
BRANCH  16  19
HETATM   19  C   UNL     1     -11.173  10.826  67.763  1.00  0.00    -0.316 A  
HETATM   20  N   UNL     1     -12.051  11.838  67.821  1.00  0.00    -0.560 NA 
HETATM   21  O   UNL     1     -12.635  11.767  69.069  1.00  0.00    -0.042 OA 
HETATM   22  C   UNL     1     -12.123  10.706  69.750  1.00  0.00    -0.272 A  
HETATM   23  C   UNL     1     -11.242  10.023  68.941  1.00  0.00    -0.179 A  
HETATM   24  C   UNL     1     -10.629   8.861  69.444  1.00  0.00    -0.226 A  
HETATM   25  C   UNL     1     -10.901   8.490  70.770  1.00  0.00    -0.268 A  
HETATM   26  C   UNL     1     -11.771   9.245  71.554  1.00  0.00    -0.380 A  
HETATM   27  C   UNL     1     -12.432  10.365  71.062  1.00  0.00    -0.488 A  
HETATM   28  F   UNL     1     -11.971   8.881  72.828  1.00  0.00    -0.362 F  
ENDBRANCH  16  19
ENDBRANCH  12  13
ENDBRANCH  11  12
ENDBRANCH  10  11
ENDBRANCH   9  10
ENDBRANCH   4   9
BRANCH   6  29
HETATM   29  C   UNL     1     -10.119  19.611  67.149  1.00  0.00    -0.411 C  
HETATM   30  O   UNL     1     -11.099  19.886  67.839  1.00  0.00    -0.073 OA 
HETATM   31  C   UNL     1      -9.830  20.371  65.878  1.00  0.00    -0.180 C  
ENDBRANCH   6  29
ENDBRANCH   2   3
TORSDOF 8
ENDMDL
MODEL      191
REMARK 921   NORMALIZED FREE ENERGY PREDICTED BY IDOCK:   -4.95 KCAL/MOL
REMARK 922        TOTAL FREE ENERGY PREDICTED BY IDOCK:   -8.06 KCAL/MOL
REMARK 923 INTER-LIGAND FREE ENERGY PREDICTED BY IDOCK:   -6.74 KCAL/MOL
REMARK 924 INTRA-LIGAND FREE ENERGY PREDICTED BY IDOCK:   -1.32 KCAL/MOL
REMARK 927      BINDING AFFINITY PREDICTED BY RF-SCORE:    0.00 PKD
ROOT
HETATM    1  C   UNL     1      -6.667   7.352  68.398  1.00  0.00    -0.054 C  
HETATM    2  O   UNL     1      -7.528   6.643  69.276  1.00  0.00    -0.090 OA 
ENDROOT
BRANCH   2   3
HETATM    3  C   UNL     1      -8.084   5.478  68.811  1.00  0.00    -0.099 A  
HETATM    4  C   UNL     1      -9.014   4.856  69.665  1.00  0.00    -0.099 A  
HETATM    5  C   UNL     1      -9.627   3.665  69.270  1.00  0.00    -0.185 A  
HETATM    6  C   UNL     1      -8.418   3.711  67.174  1.00  0.00    -0.103 A  
HETATM    7  C   UNL     1      -7.804   4.908  67.564  1.00  0.00    -0.094 A  
HETATM    8  C   UNL     1      -9.340   3.100  68.024  1.00  0.00    -0.248 A  
BRANCH   4   9
HETATM    9  O   UNL     1      -9.232   5.453  70.880  1.00  0.00    -0.145 OA 
BRANCH   9  10
HETATM   10  C   UNL     1     -10.582   5.603  71.318  1.00  0.00    -0.255 C  
BRANCH  10  11
HETATM   11  C   UNL     1     -11.420   6.441  70.345  1.00  0.00    -0.458 C  
BRANCH  11  12
HETATM   12  C   UNL     1     -11.311   7.962  70.555  1.00  0.00    -0.234 C  
BRANCH  12  13
HETATM   13  N   UNL     1     -10.357   8.578  69.626  1.00  0.00    -0.214 NA 
HETATM   14  C   UNL     1      -9.816   9.852  70.116  1.00  0.00    -0.219 C  
HETATM   15  C   UNL     1      -8.671  10.334  69.203  1.00  0.00    -0.176 C  
HETATM   16  C   UNL     1      -9.039  10.340  67.705  1.00  0.00    -0.144 C  
HETATM   17  C   UNL     1      -9.691   8.991  67.362  1.00  0.00    -0.217 C  
HETATM   18  C   UNL     1     -10.882   8.721  68.272  1.00  0.00     0.032 C  
BRANCH  16  19
HETATM   19  C   UNL     1      -9.918  11.492  67.294  1.00  0.00    -0.191 A  
HETATM   20  N   UNL     1     -10.467  12.303  68.210  1.00  0.00    -0.220 NA 
HETATM   21  O   UNL     1     -11.341  13.121  67.523  1.00  0.00    -0.270 OA 
HETATM   22  C   UNL     1     -11.302  12.815  66.198  1.00  0.00    -0.328 A  
HETATM   23  C   UNL     1     -10.357  11.836  65.980  1.00  0.00    -0.276 A  
HETATM   24  C   UNL     1     -10.129  11.403  64.661  1.00  0.00    -0.330 A  
HETATM   25  C   UNL     1     -10.921  11.948  63.639  1.00  0.00    -0.511 A  
HETATM   26  C   UNL     1     -11.891  12.906  63.926  1.00  0.00    -0.473 A  
HETATM   27  C   UNL     1     -12.096  13.392  65.213  1.00  0.00    -0.446 A  
HETATM   28  F   UNL     1     -12.654  13.371  62.928  1.00  0.00    -0.446 F  
ENDBRANCH  16  19
ENDBRANCH  12  13
ENDBRANCH  11  12
ENDBRANCH  10  11
ENDBRANCH   9  10
ENDBRANCH   4   9
BRANCH   6  29
HETATM   29  C   UNL     1      -8.059   3.133  65.850  1.00  0.00    -0.086 C  
HETATM   30  O   UNL     1      -7.544   3.854  64.997  1.00  0.00    -0.076 OA 
HETATM   31  C   UNL     1      -8.270   1.662  65.593  1.00  0.00    -0.083 C  
ENDBRANCH   6  29
ENDBRANCH   2   3
TORSDOF 8
ENDMDL
MODEL      192
REMARK 921   NORMALIZED FREE ENERGY PREDICTED BY IDOCK:   -4.95 KCAL/MOL
REMARK 922        TOTAL FREE ENERGY PREDICTED BY IDOCK:   -8.06 KCAL/MOL
REMARK 923 INTER-LIGAND FREE ENERGY PREDICTED BY IDOCK:   -7.30 KCAL/MOL
REMARK 924 INTRA-LIGAND FREE ENERGY PREDICTED BY IDOCK:   -0.77 KCAL/MOL
REMARK 927      BINDING AFFINITY PREDICTED BY RF-SCORE:    0.00 PKD
ROOT
HETATM    1  C   UNL     1     -11.993  14.257  65.736  1.00  0.00    -0.393 C  
HETATM    2  O   UNL     1     -11.312  13.517  66.739  1.00  0.00    -0.309 OA 
ENDROOT
BRANCH   2   3
HETATM    3  C   UNL     1     -11.237  14.072  67.992  1.00  0.00    -0.279 A  
HETATM    4  C   UNL     1     -10.071  14.810  68.268  1.00  0.00    -0.221 A  
HETATM    5  C   UNL     1      -9.912  15.408  69.520  1.00  0.00    -0.266 A  
HETATM    6  C   UNL     1     -12.070  14.567  70.222  1.00  0.00    -0.386 A  
HETATM    7  C   UNL     1     -12.236  13.968  68.967  1.00  0.00    -0.280 A  
HETATM    8  C   UNL     1     -10.912  15.298  70.490  1.00  0.00    -0.318 A  
BRANCH   4   9
HETATM    9  O   UNL     1      -9.122  14.859  67.280  1.00  0.00    -0.185 OA 
BRANCH   9  10
HETATM   10  C   UNL     1      -7.838  14.302  67.559  1.00  0.00    -0.194 C  
BRANCH  10  11
HETATM   11  C   UNL     1      -7.770  12.805  67.236  1.00  0.00    -0.129 C  
BRANCH  11  12
HETATM   12  C   UNL     1      -7.717  11.886  68.471  1.00  0.00    -0.135 C  
BRANCH  12  13
HETATM   13  N   UNL     1      -8.678  10.782  68.376  1.00  0.00    -0.136 NA 
HETATM   14  C   UNL     1      -9.988  11.106  68.952  1.00  0.00    -0.175 C  
HETATM   15  C   UNL     1     -11.006   9.993  68.630  1.00  0.00    -0.247 C  
HETATM   16  C   UNL     1     -10.499   8.577  68.975  1.00  0.00    -0.216 C  
HETATM   17  C   UNL     1      -9.079   8.419  68.405  1.00  0.00    -0.135 C  
HETATM   18  C   UNL     1      -8.167   9.526  68.917  1.00  0.00    -0.116 C  
BRANCH  16  19
HETATM   19  C   UNL     1     -10.536   8.254  70.446  1.00  0.00    -0.215 A  
HETATM   20  N   UNL     1     -11.526   8.710  71.228  1.00  0.00    -0.270 NA 
HETATM   21  O   UNL     1     -11.167   8.393  72.523  1.00  0.00    -0.368 OA 
HETATM   22  C   UNL     1      -9.977   7.734  72.516  1.00  0.00    -0.225 A  
HETATM   23  C   UNL     1      -9.562   7.548  71.215  1.00  0.00    -0.165 A  
HETATM   24  C   UNL     1      -8.366   6.845  70.984  1.00  0.00    -0.126 A  
HETATM   25  C   UNL     1      -7.622   6.421  72.095  1.00  0.00    -0.094 A  
HETATM   26  C   UNL     1      -8.072   6.674  73.390  1.00  0.00    -0.107 A  
HETATM   27  C   UNL     1      -9.279   7.317  73.644  1.00  0.00    -0.262 A  
HETATM   28  F   UNL     1      -7.312   6.290  74.424  1.00  0.00    -0.089 F  
ENDBRANCH  16  19
ENDBRANCH  12  13
ENDBRANCH  11  12
ENDBRANCH  10  11
ENDBRANCH   9  10
ENDBRANCH   4   9
BRANCH   6  29
HETATM   29  C   UNL     1     -13.151  14.397  71.232  1.00  0.00    -0.351 C  
HETATM   30  O   UNL     1     -13.255  13.328  71.830  1.00  0.00    -0.404 OA 
HETATM   31  C   UNL     1     -14.062  15.556  71.553  1.00  0.00    -0.502 C  
ENDBRANCH   6  29
ENDBRANCH   2   3
TORSDOF 8
ENDMDL
MODEL      193
REMARK 921   NORMALIZED FREE ENERGY PREDICTED BY IDOCK:   -4.93 KCAL/MOL
REMARK 922        TOTAL FREE ENERGY PREDICTED BY IDOCK:   -8.03 KCAL/MOL
REMARK 923 INTER-LIGAND FREE ENERGY PREDICTED BY IDOCK:   -6.67 KCAL/MOL
REMARK 924 INTRA-LIGAND FREE ENERGY PREDICTED BY IDOCK:   -1.36 KCAL/MOL
REMARK 927      BINDING AFFINITY PREDICTED BY RF-SCORE:    0.00 PKD
ROOT
HETATM    1  C   UNL     1     -10.105   4.983  71.262  1.00  0.00    -0.206 C  
HETATM    2  O   UNL     1     -10.390   4.957  69.871  1.00  0.00    -0.265 OA 
ENDROOT
BRANCH   2   3
HETATM    3  C   UNL     1     -10.507   6.164  69.228  1.00  0.00    -0.254 A  
HETATM    4  C   UNL     1     -10.548   6.109  67.822  1.00  0.00    -0.269 A  
HETATM    5  C   UNL     1     -10.664   7.291  67.087  1.00  0.00    -0.413 A  
HETATM    6  C   UNL     1     -10.719   8.584  69.132  1.00  0.00    -0.128 A  
HETATM    7  C   UNL     1     -10.607   7.401  69.874  1.00  0.00    -0.245 A  
HETATM    8  C   UNL     1     -10.761   8.523  67.739  1.00  0.00    -0.170 A  
BRANCH   4   9
HETATM    9  O   UNL     1     -10.426   4.870  67.248  1.00  0.00    -0.148 OA 
BRANCH   9  10
HETATM   10  C   UNL     1      -9.520   4.728  66.154  1.00  0.00    -0.163 C  
BRANCH  10  11
HETATM   11  C   UNL     1      -8.186   5.440  66.405  1.00  0.00    -0.109 C  
BRANCH  11  12
HETATM   12  C   UNL     1      -7.184   5.352  65.238  1.00  0.00    -0.067 C  
BRANCH  12  13
HETATM   13  N   UNL     1      -6.922   6.665  64.639  1.00  0.00    -0.052 NA 
HETATM   14  C   UNL     1      -6.193   7.572  65.533  1.00  0.00    -0.038 C  
HETATM   15  C   UNL     1      -5.764   8.844  64.774  1.00  0.00    -0.062 C  
HETATM   16  C   UNL     1      -6.917   9.516  63.999  1.00  0.00    -0.105 C  
HETATM   17  C   UNL     1      -7.655   8.432  63.196  1.00  0.00    -0.121 C  
HETATM   18  C   UNL     1      -8.122   7.307  64.111  1.00  0.00    -0.036 C  
BRANCH  16  19
HETATM   19  C   UNL     1      -7.868  10.296  64.868  1.00  0.00    -0.134 A  
HETATM   20  N   UNL     1      -7.656  10.419  66.187  1.00  0.00    -0.125 NA 
HETATM   21  O   UNL     1      -8.785  11.023  66.702  1.00  0.00    -0.150 OA 
HETATM   22  C   UNL     1      -9.662  11.278  65.694  1.00  0.00    -0.230 A  
HETATM   23  C   UNL     1      -9.102  10.906  64.491  1.00  0.00    -0.181 A  
HETATM   24  C   UNL     1      -9.834  11.127  63.311  1.00  0.00    -0.415 A  
HETATM   25  C   UNL     1     -11.128  11.660  63.424  1.00  0.00    -0.422 A  
HETATM   26  C   UNL     1     -11.658  11.979  64.673  1.00  0.00    -0.297 A  
HETATM   27  C   UNL     1     -10.932  11.823  65.849  1.00  0.00    -0.354 A  
HETATM   28  F   UNL     1     -12.912  12.446  64.741  1.00  0.00    -0.563 F  
ENDBRANCH  16  19
ENDBRANCH  12  13
ENDBRANCH  11  12
ENDBRANCH  10  11
ENDBRANCH   9  10
ENDBRANCH   4   9
BRANCH   6  29
HETATM   29  C   UNL     1     -10.791   9.874  69.871  1.00  0.00    -0.278 C  
HETATM   30  O   UNL     1     -10.240  10.869  69.404  1.00  0.00    -0.206 OA 
HETATM   31  C   UNL     1     -11.591   9.961  71.148  1.00  0.00    -0.468 C  
ENDBRANCH   6  29
ENDBRANCH   2   3
TORSDOF 8
ENDMDL
MODEL      194
REMARK 921   NORMALIZED FREE ENERGY PREDICTED BY IDOCK:   -4.93 KCAL/MOL
REMARK 922        TOTAL FREE ENERGY PREDICTED BY IDOCK:   -8.02 KCAL/MOL
REMARK 923 INTER-LIGAND FREE ENERGY PREDICTED BY IDOCK:   -7.78 KCAL/MOL
REMARK 924 INTRA-LIGAND FREE ENERGY PREDICTED BY IDOCK:   -0.25 KCAL/MOL
REMARK 927      BINDING AFFINITY PREDICTED BY RF-SCORE:    0.00 PKD
ROOT
HETATM    1  C   UNL     1     -12.756  13.290  64.914  1.00  0.00    -0.327 C  
HETATM    2  O   UNL     1     -11.955  12.797  65.978  1.00  0.00    -0.411 OA 
ENDROOT
BRANCH   2   3
HETATM    3  C   UNL     1     -11.127  11.737  65.707  1.00  0.00    -0.297 A  
HETATM    4  C   UNL     1     -11.080  10.727  66.686  1.00  0.00    -0.035 A  
HETATM    5  C   UNL     1     -10.261   9.613  66.491  1.00  0.00    -0.294 A  
HETATM    6  C   UNL     1      -9.547  10.483  64.350  1.00  0.00    -0.357 A  
HETATM    7  C   UNL     1     -10.370  11.601  64.538  1.00  0.00    -0.349 A  
HETATM    8  C   UNL     1      -9.506   9.485  65.323  1.00  0.00    -0.326 A  
BRANCH   4   9
HETATM    9  O   UNL     1     -11.829  10.928  67.817  1.00  0.00    -0.579 OA 
BRANCH   9  10
HETATM   10  C   UNL     1     -11.136  11.139  69.048  1.00  0.00    -0.242 C  
BRANCH  10  11
HETATM   11  C   UNL     1      -9.816  11.893  68.852  1.00  0.00     0.008 C  
BRANCH  11  12
HETATM   12  C   UNL     1      -9.941  13.427  68.913  1.00  0.00     0.046 C  
BRANCH  12  13
HETATM   13  N   UNL     1      -8.640  14.090  68.783  1.00  0.00    -0.091 NA 
HETATM   14  C   UNL     1      -8.594  15.404  69.435  1.00  0.00    -0.249 C  
HETATM   15  C   UNL     1      -7.151  15.947  69.448  1.00  0.00    -0.215 C  
HETATM   16  C   UNL     1      -6.466  15.906  68.066  1.00  0.00    -0.146 C  
HETATM   17  C   UNL     1      -6.688  14.511  67.458  1.00  0.00    -0.141 C  
HETATM   18  C   UNL     1      -8.173  14.177  67.403  1.00  0.00    -0.193 C  
BRANCH  16  19
HETATM   19  C   UNL     1      -6.919  16.991  67.124  1.00  0.00    -0.179 A  
HETATM   20  N   UNL     1      -6.251  17.242  65.989  1.00  0.00    -0.173 NA 
HETATM   21  O   UNL     1      -6.809  18.390  65.463  1.00  0.00    -0.441 OA 
HETATM   22  C   UNL     1      -7.819  18.815  66.269  1.00  0.00    -0.272 A  
HETATM   23  C   UNL     1      -7.986  17.921  67.304  1.00  0.00    -0.222 A  
HETATM   24  C   UNL     1      -9.015  18.156  68.235  1.00  0.00    -0.306 A  
HETATM   25  C   UNL     1      -9.780  19.324  68.096  1.00  0.00    -0.441 A  
HETATM   26  C   UNL     1      -9.537  20.212  67.051  1.00  0.00    -0.424 A  
HETATM   27  C   UNL     1      -8.564  19.975  66.085  1.00  0.00    -0.301 A  
HETATM   28  F   UNL     1     -10.261  21.337  66.978  1.00  0.00    -0.261 F  
ENDBRANCH  16  19
ENDBRANCH  12  13
ENDBRANCH  11  12
ENDBRANCH  10  11
ENDBRANCH   9  10
ENDBRANCH   4   9
BRANCH   6  29
HETATM   29  C   UNL     1      -8.740  10.406  63.101  1.00  0.00    -0.203 C  
HETATM   30  O   UNL     1      -8.335  11.443  62.578  1.00  0.00    -0.160 OA 
HETATM   31  C   UNL     1      -8.375   9.059  62.528  1.00  0.00    -0.195 C  
ENDBRANCH   6  29
ENDBRANCH   2   3
TORSDOF 8
ENDMDL
MODEL      195
REMARK 921   NORMALIZED FREE ENERGY PREDICTED BY IDOCK:   -4.92 KCAL/MOL
REMARK 922        TOTAL FREE ENERGY PREDICTED BY IDOCK:   -8.01 KCAL/MOL
REMARK 923 INTER-LIGAND FREE ENERGY PREDICTED BY IDOCK:   -8.10 KCAL/MOL
REMARK 924 INTRA-LIGAND FREE ENERGY PREDICTED BY IDOCK:    0.09 KCAL/MOL
REMARK 927      BINDING AFFINITY PREDICTED BY RF-SCORE:    0.00 PKD
ROOT
HETATM    1  C   UNL     1      -9.346   8.794  66.701  1.00  0.00    -0.189 C  
HETATM    2  O   UNL     1     -10.213   8.369  67.743  1.00  0.00    -0.198 OA 
ENDROOT
BRANCH   2   3
HETATM    3  C   UNL     1      -9.664   8.189  68.988  1.00  0.00    -0.163 A  
HETATM    4  C   UNL     1     -10.274   8.901  70.037  1.00  0.00    -0.199 A  
HETATM    5  C   UNL     1      -9.778   8.777  71.337  1.00  0.00    -0.351 A  
HETATM    6  C   UNL     1      -8.085   7.229  70.568  1.00  0.00    -0.109 A  
HETATM    7  C   UNL     1      -8.581   7.347  69.263  1.00  0.00    -0.137 A  
HETATM    8  C   UNL     1      -8.695   7.936  71.604  1.00  0.00    -0.153 A  
BRANCH   4   9
HETATM    9  O   UNL     1     -11.318   9.724  69.700  1.00  0.00    -0.212 OA 
BRANCH   9  10
HETATM   10  C   UNL     1     -11.889  10.533  70.729  1.00  0.00    -0.365 C  
BRANCH  10  11
HETATM   11  C   UNL     1     -12.364  11.893  70.203  1.00  0.00    -0.247 C  
BRANCH  11  12
HETATM   12  C   UNL     1     -11.231  12.861  69.817  1.00  0.00     0.069 C  
BRANCH  12  13
HETATM   13  N   UNL     1     -11.096  12.997  68.363  1.00  0.00    -0.247 NA 
HETATM   14  C   UNL     1      -9.767  13.460  67.947  1.00  0.00    -0.226 C  
HETATM   15  C   UNL     1      -9.624  13.376  66.414  1.00  0.00    -0.265 C  
HETATM   16  C   UNL     1     -10.789  14.038  65.650  1.00  0.00    -0.295 C  
HETATM   17  C   UNL     1     -12.111  13.545  66.262  1.00  0.00    -0.476 C  
HETATM   18  C   UNL     1     -12.145  13.814  67.760  1.00  0.00    -0.290 C  
BRANCH  16  19
HETATM   19  C   UNL     1     -10.728  15.543  65.622  1.00  0.00    -0.366 A  
HETATM   20  N   UNL     1     -11.200  16.234  64.574  1.00  0.00    -0.681 NA 
HETATM   21  O   UNL     1     -10.830  17.547  64.783  1.00  0.00    -0.814 OA 
HETATM   22  C   UNL     1     -10.157  17.647  65.962  1.00  0.00    -0.254 A  
HETATM   23  C   UNL     1     -10.127  16.415  66.578  1.00  0.00    -0.304 A  
HETATM   24  C   UNL     1      -9.509  16.309  67.838  1.00  0.00    -0.218 A  
HETATM   25  C   UNL     1      -8.900  17.454  68.376  1.00  0.00    -0.271 A  
HETATM   26  C   UNL     1      -8.928  18.664  67.685  1.00  0.00    -0.275 A  
HETATM   27  C   UNL     1      -9.581  18.808  66.465  1.00  0.00    -0.369 A  
HETATM   28  F   UNL     1      -8.299  19.722  68.212  1.00  0.00    -0.346 F  
ENDBRANCH  16  19
ENDBRANCH  12  13
ENDBRANCH  11  12
ENDBRANCH  10  11
ENDBRANCH   9  10
ENDBRANCH   4   9
BRANCH   6  29
HETATM   29  C   UNL     1      -6.911   6.342  70.798  1.00  0.00    -0.068 C  
HETATM   30  O   UNL     1      -5.997   6.727  71.524  1.00  0.00    -0.036 OA 
HETATM   31  C   UNL     1      -6.888   4.961  70.191  1.00  0.00    -0.044 C  
ENDBRANCH   6  29
ENDBRANCH   2   3
TORSDOF 8
ENDMDL
MODEL      196
REMARK 921   NORMALIZED FREE ENERGY PREDICTED BY IDOCK:   -4.90 KCAL/MOL
REMARK 922        TOTAL FREE ENERGY PREDICTED BY IDOCK:   -7.99 KCAL/MOL
REMARK 923 INTER-LIGAND FREE ENERGY PREDICTED BY IDOCK:   -6.82 KCAL/MOL
REMARK 924 INTRA-LIGAND FREE ENERGY PREDICTED BY IDOCK:   -1.17 KCAL/MOL
REMARK 927      BINDING AFFINITY PREDICTED BY RF-SCORE:    0.00 PKD
ROOT
HETATM    1  C   UNL     1     -11.864  14.514  67.394  1.00  0.00    -0.388 C  
HETATM    2  O   UNL     1     -11.607  13.223  66.860  1.00  0.00    -0.327 OA 
ENDROOT
BRANCH   2   3
HETATM    3  C   UNL     1     -11.542  12.176  67.744  1.00  0.00    -0.342 A  
HETATM    4  C   UNL     1     -10.816  11.051  67.312  1.00  0.00    -0.281 A  
HETATM    5  C   UNL     1     -10.702   9.938  68.149  1.00  0.00    -0.279 A  
HETATM    6  C   UNL     1     -12.006  11.057  69.853  1.00  0.00    -0.427 A  
HETATM    7  C   UNL     1     -12.121  12.177  69.019  1.00  0.00    -0.208 A  
HETATM    8  C   UNL     1     -11.283   9.945  69.420  1.00  0.00    -0.196 A  
BRANCH   4   9
HETATM    9  O   UNL     1     -10.291  11.103  66.047  1.00  0.00    -0.241 OA 
BRANCH   9  10
HETATM   10  C   UNL     1      -8.869  11.102  65.914  1.00  0.00    -0.186 C  
BRANCH  10  11
HETATM   11  C   UNL     1      -8.189  12.041  66.918  1.00  0.00    -0.146 C  
BRANCH  11  12
HETATM   12  C   UNL     1      -6.695  11.751  67.153  1.00  0.00    -0.145 C  
BRANCH  12  13
HETATM   13  N   UNL     1      -6.491  10.679  68.133  1.00  0.00    -0.061 NA 
HETATM   14  C   UNL     1      -6.369   9.352  67.519  1.00  0.00    -0.062 C  
HETATM   15  C   UNL     1      -5.945   8.309  68.573  1.00  0.00    -0.041 C  
HETATM   16  C   UNL     1      -6.813   8.336  69.848  1.00  0.00    -0.043 C  
HETATM   17  C   UNL     1      -6.943   9.796  70.314  1.00  0.00    -0.135 C  
HETATM   18  C   UNL     1      -7.491  10.672  69.196  1.00  0.00    -0.123 C  
BRANCH  16  19
HETATM   19  C   UNL     1      -8.165   7.693  69.684  1.00  0.00    -0.128 A  
HETATM   20  N   UNL     1      -8.978   7.515  70.736  1.00  0.00    -0.149 NA 
HETATM   21  O   UNL     1     -10.032   6.751  70.281  1.00  0.00    -0.178 OA 
HETATM   22  C   UNL     1      -9.863   6.487  68.957  1.00  0.00    -0.143 A  
HETATM   23  C   UNL     1      -8.730   7.125  68.503  1.00  0.00    -0.126 A  
HETATM   24  C   UNL     1      -8.396   7.014  67.141  1.00  0.00    -0.121 A  
HETATM   25  C   UNL     1      -9.202   6.206  66.325  1.00  0.00    -0.163 A  
HETATM   26  C   UNL     1     -10.314   5.551  66.850  1.00  0.00    -0.265 A  
HETATM   27  C   UNL     1     -10.698   5.691  68.180  1.00  0.00    -0.231 A  
HETATM   28  F   UNL     1     -11.034   4.756  66.048  1.00  0.00    -0.339 F  
ENDBRANCH  16  19
ENDBRANCH  12  13
ENDBRANCH  11  12
ENDBRANCH  10  11
ENDBRANCH   9  10
ENDBRANCH   4   9
BRANCH   6  29
HETATM   29  C   UNL     1     -12.667  11.102  71.186  1.00  0.00    -0.408 C  
HETATM   30  O   UNL     1     -13.063  12.179  71.627  1.00  0.00    -0.418 OA 
HETATM   31  C   UNL     1     -12.900   9.821  71.949  1.00  0.00    -0.520 C  
ENDBRANCH   6  29
ENDBRANCH   2   3
TORSDOF 8
ENDMDL
MODEL      197
REMARK 921   NORMALIZED FREE ENERGY PREDICTED BY IDOCK:   -4.90 KCAL/MOL
REMARK 922        TOTAL FREE ENERGY PREDICTED BY IDOCK:   -7.98 KCAL/MOL
REMARK 923 INTER-LIGAND FREE ENERGY PREDICTED BY IDOCK:   -6.62 KCAL/MOL
REMARK 924 INTRA-LIGAND FREE ENERGY PREDICTED BY IDOCK:   -1.36 KCAL/MOL
REMARK 927      BINDING AFFINITY PREDICTED BY RF-SCORE:    0.00 PKD
ROOT
HETATM    1  C   UNL     1     -12.641   7.435  71.663  1.00  0.00    -0.358 C  
HETATM    2  O   UNL     1     -11.738   6.339  71.648  1.00  0.00    -0.305 OA 
ENDROOT
BRANCH   2   3
HETATM    3  C   UNL     1     -10.402   6.623  71.522  1.00  0.00    -0.209 A  
HETATM    4  C   UNL     1      -9.811   6.267  70.295  1.00  0.00    -0.168 A  
HETATM    5  C   UNL     1      -8.454   6.518  70.083  1.00  0.00    -0.135 A  
HETATM    6  C   UNL     1      -8.265   7.495  72.288  1.00  0.00    -0.120 A  
HETATM    7  C   UNL     1      -9.627   7.248  72.505  1.00  0.00    -0.186 A  
HETATM    8  C   UNL     1      -7.686   7.141  71.070  1.00  0.00    -0.090 A  
BRANCH   4   9
HETATM    9  O   UNL     1     -10.617   5.640  69.380  1.00  0.00    -0.272 OA 
BRANCH   9  10
HETATM   10  C   UNL     1     -11.222   6.440  68.364  1.00  0.00    -0.200 C  
BRANCH  10  11
HETATM   11  C   UNL     1     -10.444   6.393  67.044  1.00  0.00    -0.349 C  
BRANCH  11  12
HETATM   12  C   UNL     1      -9.947   7.762  66.545  1.00  0.00    -0.174 C  
BRANCH  12  13
HETATM   13  N   UNL     1     -10.165   8.821  67.536  1.00  0.00    -0.228 NA 
HETATM   14  C   UNL     1     -11.033   9.898  67.048  1.00  0.00    -0.027 C  
HETATM   15  C   UNL     1     -11.393  10.860  68.199  1.00  0.00    -0.383 C  
HETATM   16  C   UNL     1     -10.167  11.351  68.996  1.00  0.00    -0.137 C  
HETATM   17  C   UNL     1      -9.296  10.133  69.344  1.00  0.00    -0.235 C  
HETATM   18  C   UNL     1      -8.924   9.360  68.086  1.00  0.00    -0.128 C  
BRANCH  16  19
HETATM   19  C   UNL     1      -9.364  12.414  68.293  1.00  0.00    -0.199 A  
HETATM   20  N   UNL     1      -8.031  12.480  68.436  1.00  0.00    -0.148 NA 
HETATM   21  O   UNL     1      -7.638  13.652  67.821  1.00  0.00    -0.131 OA 
HETATM   22  C   UNL     1      -8.727  14.276  67.296  1.00  0.00    -0.218 A  
HETATM   23  C   UNL     1      -9.846  13.498  67.499  1.00  0.00    -0.227 A  
HETATM   24  C   UNL     1     -11.078  13.946  66.991  1.00  0.00    -0.311 A  
HETATM   25  C   UNL     1     -11.117  15.197  66.356  1.00  0.00    -0.312 A  
HETATM   26  C   UNL     1      -9.959  15.960  66.217  1.00  0.00    -0.298 A  
HETATM   27  C   UNL     1      -8.718  15.513  66.659  1.00  0.00    -0.326 A  
HETATM   28  F   UNL     1     -10.046  17.167  65.642  1.00  0.00    -0.281 F  
ENDBRANCH  16  19
ENDBRANCH  12  13
ENDBRANCH  11  12
ENDBRANCH  10  11
ENDBRANCH   9  10
ENDBRANCH   4   9
BRANCH   6  29
HETATM   29  C   UNL     1      -7.484   8.135  73.382  1.00  0.00    -0.145 C  
HETATM   30  O   UNL     1      -7.943   8.151  74.522  1.00  0.00    -0.231 OA 
HETATM   31  C   UNL     1      -6.114   8.697  73.092  1.00  0.00    -0.089 C  
ENDBRANCH   6  29
ENDBRANCH   2   3
TORSDOF 8
ENDMDL
MODEL      198
REMARK 921   NORMALIZED FREE ENERGY PREDICTED BY IDOCK:   -4.89 KCAL/MOL
REMARK 922        TOTAL FREE ENERGY PREDICTED BY IDOCK:   -7.98 KCAL/MOL
REMARK 923 INTER-LIGAND FREE ENERGY PREDICTED BY IDOCK:   -7.41 KCAL/MOL
REMARK 924 INTRA-LIGAND FREE ENERGY PREDICTED BY IDOCK:   -0.57 KCAL/MOL
REMARK 927      BINDING AFFINITY PREDICTED BY RF-SCORE:    0.00 PKD
ROOT
HETATM    1  C   UNL     1     -12.604  14.101  64.334  1.00  0.00    -0.164 C  
HETATM    2  O   UNL     1     -11.226  14.244  64.648  1.00  0.00    -0.373 OA 
ENDROOT
BRANCH   2   3
HETATM    3  C   UNL     1     -10.876  14.220  65.975  1.00  0.00    -0.303 A  
HETATM    4  C   UNL     1     -10.396  12.990  66.462  1.00  0.00    -0.274 A  
HETATM    5  C   UNL     1     -10.019  12.877  67.802  1.00  0.00    -0.230 A  
HETATM    6  C   UNL     1     -10.568  15.203  68.178  1.00  0.00    -0.246 A  
HETATM    7  C   UNL     1     -10.945  15.323  66.833  1.00  0.00    -0.315 A  
HETATM    8  C   UNL     1     -10.093  13.982  68.654  1.00  0.00    -0.217 A  
BRANCH   4   9
HETATM    9  O   UNL     1     -10.371  11.943  65.577  1.00  0.00    -0.245 OA 
BRANCH   9  10
HETATM   10  C   UNL     1      -9.194  11.136  65.531  1.00  0.00    -0.216 C  
BRANCH  10  11
HETATM   11  C   UNL     1      -9.497   9.683  65.146  1.00  0.00    -0.332 C  
BRANCH  11  12
HETATM   12  C   UNL     1      -8.405   8.674  65.545  1.00  0.00    -0.150 C  
BRANCH  12  13
HETATM   13  N   UNL     1      -8.966   7.362  65.883  1.00  0.00    -0.124 NA 
HETATM   14  C   UNL     1     -10.130   7.443  66.774  1.00  0.00    -0.235 C  
HETATM   15  C   UNL     1     -10.795   6.060  66.914  1.00  0.00    -0.396 C  
HETATM   16  C   UNL     1      -9.804   4.934  67.275  1.00  0.00    -0.214 C  
HETATM   17  C   UNL     1      -8.591   5.039  66.336  1.00  0.00    -0.111 C  
HETATM   18  C   UNL     1      -7.973   6.428  66.407  1.00  0.00    -0.110 C  
BRANCH  16  19
HETATM   19  C   UNL     1      -9.378   4.931  68.720  1.00  0.00    -0.135 A  
HETATM   20  N   UNL     1      -8.245   4.325  69.104  1.00  0.00    -0.070 NA 
HETATM   21  O   UNL     1      -8.247   4.350  70.484  1.00  0.00    -0.066 OA 
HETATM   22  C   UNL     1      -9.366   4.985  70.925  1.00  0.00    -0.151 A  
HETATM   23  C   UNL     1     -10.089   5.444  69.846  1.00  0.00    -0.322 A  
HETATM   24  C   UNL     1     -11.269   6.171  70.087  1.00  0.00    -0.452 A  
HETATM   25  C   UNL     1     -11.684   6.337  71.417  1.00  0.00    -0.316 A  
HETATM   26  C   UNL     1     -10.932   5.813  72.467  1.00  0.00    -0.263 A  
HETATM   27  C   UNL     1      -9.732   5.140  72.257  1.00  0.00    -0.201 A  
HETATM   28  F   UNL     1     -11.384   5.957  73.720  1.00  0.00    -0.115 F  
ENDBRANCH  16  19
ENDBRANCH  12  13
ENDBRANCH  11  12
ENDBRANCH  10  11
ENDBRANCH   9  10
ENDBRANCH   4   9
BRANCH   6  29
HETATM   29  C   UNL     1     -10.692  16.401  69.052  1.00  0.00    -0.322 C  
HETATM   30  O   UNL     1     -11.076  16.264  70.212  1.00  0.00    -0.357 OA 
HETATM   31  C   UNL     1     -10.284  17.756  68.528  1.00  0.00    -0.382 C  
ENDBRANCH   6  29
ENDBRANCH   2   3
TORSDOF 8
ENDMDL
MODEL      199
REMARK 921   NORMALIZED FREE ENERGY PREDICTED BY IDOCK:   -4.89 KCAL/MOL
REMARK 922        TOTAL FREE ENERGY PREDICTED BY IDOCK:   -7.97 KCAL/MOL
REMARK 923 INTER-LIGAND FREE ENERGY PREDICTED BY IDOCK:   -6.75 KCAL/MOL
REMARK 924 INTRA-LIGAND FREE ENERGY PREDICTED BY IDOCK:   -1.22 KCAL/MOL
REMARK 927      BINDING AFFINITY PREDICTED BY RF-SCORE:    0.00 PKD
ROOT
HETATM    1  C   UNL     1     -11.499  13.692  68.172  1.00  0.00    -0.313 C  
HETATM    2  O   UNL     1     -11.634  12.317  67.844  1.00  0.00    -0.312 OA 
ENDROOT
BRANCH   2   3
HETATM    3  C   UNL     1     -11.203  11.402  68.771  1.00  0.00    -0.247 A  
HETATM    4  C   UNL     1      -9.874  10.962  68.629  1.00  0.00    -0.190 A  
HETATM    5  C   UNL     1      -9.354  10.029  69.529  1.00  0.00    -0.247 A  
HETATM    6  C   UNL     1     -11.456   9.978  70.726  1.00  0.00    -0.438 A  
HETATM    7  C   UNL     1     -11.981  10.917  69.828  1.00  0.00    -0.423 A  
HETATM    8  C   UNL     1     -10.138   9.548  70.581  1.00  0.00    -0.353 A  
BRANCH   4   9
HETATM    9  O   UNL     1      -9.170  11.459  67.562  1.00  0.00    -0.157 OA 
BRANCH   9  10
HETATM   10  C   UNL     1      -8.092  10.675  67.050  1.00  0.00    -0.120 C  
BRANCH  10  11
HETATM   11  C   UNL     1      -8.154  10.524  65.526  1.00  0.00    -0.155 C  
BRANCH  11  12
HETATM   12  C   UNL     1      -6.851  10.018  64.880  1.00  0.00    -0.133 C  
BRANCH  12  13
HETATM   13  N   UNL     1      -6.813   8.554  64.794  1.00  0.00    -0.072 NA 
HETATM   14  C   UNL     1      -8.145   7.947  64.696  1.00  0.00    -0.125 C  
HETATM   15  C   UNL     1      -8.027   6.439  64.395  1.00  0.00    -0.108 C  
HETATM   16  C   UNL     1      -7.064   5.696  65.344  1.00  0.00    -0.066 C  
HETATM   17  C   UNL     1      -5.757   6.500  65.434  1.00  0.00    -0.026 C  
HETATM   18  C   UNL     1      -6.035   7.934  65.863  1.00  0.00    -0.038 C  
BRANCH  16  19
HETATM   19  C   UNL     1      -7.636   5.428  66.712  1.00  0.00    -0.088 A  
HETATM   20  N   UNL     1      -7.092   4.505  67.519  1.00  0.00    -0.064 NA 
HETATM   21  O   UNL     1      -7.948   4.385  68.595  1.00  0.00    -0.077 OA 
HETATM   22  C   UNL     1      -8.991   5.245  68.443  1.00  0.00    -0.108 A  
HETATM   23  C   UNL     1      -8.809   5.991  67.299  1.00  0.00    -0.107 A  
HETATM   24  C   UNL     1      -9.761   6.976  66.979  1.00  0.00    -0.216 A  
HETATM   25  C   UNL     1     -10.884   7.106  67.811  1.00  0.00    -0.248 A  
HETATM   26  C   UNL     1     -11.035   6.294  68.933  1.00  0.00    -0.368 A  
HETATM   27  C   UNL     1     -10.079   5.352  69.302  1.00  0.00    -0.301 A  
HETATM   28  F   UNL     1     -12.141   6.421  69.677  1.00  0.00    -0.416 F  
ENDBRANCH  16  19
ENDBRANCH  12  13
ENDBRANCH  11  12
ENDBRANCH  10  11
ENDBRANCH   9  10
ENDBRANCH   4   9
BRANCH   6  29
HETATM   29  C   UNL     1     -12.339   9.474  71.814  1.00  0.00    -0.394 C  
HETATM   30  O   UNL     1     -13.379  10.077  72.075  1.00  0.00    -0.429 OA 
HETATM   31  C   UNL     1     -11.982   8.199  72.536  1.00  0.00    -0.410 C  
ENDBRANCH   6  29
ENDBRANCH   2   3
TORSDOF 8
ENDMDL
MODEL      200
REMARK 921   NORMALIZED FREE ENERGY PREDICTED BY IDOCK:   -4.82 KCAL/MOL
REMARK 922        TOTAL FREE ENERGY PREDICTED BY IDOCK:   -7.87 KCAL/MOL
REMARK 923 INTER-LIGAND FREE ENERGY PREDICTED BY IDOCK:   -6.82 KCAL/MOL
REMARK 924 INTRA-LIGAND FREE ENERGY PREDICTED BY IDOCK:   -1.05 KCAL/MOL
REMARK 927      BINDING AFFINITY PREDICTED BY RF-SCORE:    0.00 PKD
ROOT
HETATM    1  C   UNL     1     -11.361   6.333  69.741  1.00  0.00    -0.436 C  
HETATM    2  O   UNL     1     -10.365   5.367  70.045  1.00  0.00    -0.252 OA 
ENDROOT
BRANCH   2   3
HETATM    3  C   UNL     1      -9.150   5.831  70.485  1.00  0.00    -0.147 A  
HETATM    4  C   UNL     1      -8.032   5.436  69.727  1.00  0.00    -0.088 A  
HETATM    5  C   UNL     1      -6.756   5.861  70.105  1.00  0.00    -0.048 A  
HETATM    6  C   UNL     1      -7.691   7.087  71.970  1.00  0.00    -0.092 A  
HETATM    7  C   UNL     1      -8.973   6.666  71.593  1.00  0.00    -0.141 A  
HETATM    8  C   UNL     1      -6.587   6.693  71.215  1.00  0.00    -0.050 A  
BRANCH   4   9
HETATM    9  O   UNL     1      -8.268   4.601  68.665  1.00  0.00    -0.082 OA 
BRANCH   9  10
HETATM   10  C   UNL     1      -8.536   5.196  67.395  1.00  0.00    -0.104 C  
BRANCH  10  11
HETATM   11  C   UNL     1      -7.531   6.299  67.045  1.00  0.00    -0.084 C  
BRANCH  11  12
HETATM   12  C   UNL     1      -8.112   7.449  66.201  1.00  0.00    -0.117 C  
BRANCH  12  13
HETATM   13  N   UNL     1      -8.073   8.730  66.915  1.00  0.00    -0.101 NA 
HETATM   14  C   UNL     1      -8.971   8.771  68.075  1.00  0.00    -0.140 C  
HETATM   15  C   UNL     1      -8.725  10.051  68.899  1.00  0.00    -0.146 C  
HETATM   16  C   UNL     1      -8.732  11.339  68.050  1.00  0.00    -0.144 C  
HETATM   17  C   UNL     1      -7.839  11.113  66.819  1.00  0.00    -0.153 C  
HETATM   18  C   UNL     1      -8.291   9.881  66.045  1.00  0.00    -0.122 C  
BRANCH  16  19
HETATM   19  C   UNL     1     -10.108  11.803  67.649  1.00  0.00    -0.193 A  
HETATM   20  N   UNL     1     -11.205  11.161  68.078  1.00  0.00    -0.272 NA 
HETATM   21  O   UNL     1     -12.266  11.718  67.393  1.00  0.00    -0.501 OA 
HETATM   22  C   UNL     1     -11.810  12.703  66.573  1.00  0.00    -0.396 A  
HETATM   23  C   UNL     1     -10.452  12.855  66.748  1.00  0.00    -0.262 A  
HETATM   24  C   UNL     1      -9.788  13.857  66.019  1.00  0.00    -0.306 A  
HETATM   25  C   UNL     1     -10.534  14.613  65.101  1.00  0.00    -0.440 A  
HETATM   26  C   UNL     1     -11.898  14.385  64.936  1.00  0.00    -0.417 A  
HETATM   27  C   UNL     1     -12.589  13.439  65.687  1.00  0.00    -0.496 A  
HETATM   28  F   UNL     1     -12.566  15.099  64.020  1.00  0.00    -0.490 F  
ENDBRANCH  16  19
ENDBRANCH  12  13
ENDBRANCH  11  12
ENDBRANCH  10  11
ENDBRANCH   9  10
ENDBRANCH   4   9
BRANCH   6  29
HETATM   29  C   UNL     1      -7.560   7.950  73.176  1.00  0.00    -0.129 C  
HETATM   30  O   UNL     1      -8.518   8.630  73.538  1.00  0.00    -0.370 OA 
HETATM   31  C   UNL     1      -6.279   7.931  73.973  1.00  0.00    -0.095 C  
ENDBRANCH   6  29
ENDBRANCH   2   3
TORSDOF 8
ENDMDL
MODEL      201
REMARK 921   NORMALIZED FREE ENERGY PREDICTED BY IDOCK:   -4.82 KCAL/MOL
REMARK 922        TOTAL FREE ENERGY PREDICTED BY IDOCK:   -7.87 KCAL/MOL
REMARK 923 INTER-LIGAND FREE ENERGY PREDICTED BY IDOCK:   -7.25 KCAL/MOL
REMARK 924 INTRA-LIGAND FREE ENERGY PREDICTED BY IDOCK:   -0.62 KCAL/MOL
REMARK 927      BINDING AFFINITY PREDICTED BY RF-SCORE:    0.00 PKD
ROOT
HETATM    1  C   UNL     1     -11.314   9.647  70.018  1.00  0.00    -0.195 C  
HETATM    2  O   UNL     1     -10.003   9.537  69.484  1.00  0.00    -0.174 OA 
ENDROOT
BRANCH   2   3
HETATM    3  C   UNL     1      -9.474   8.277  69.363  1.00  0.00    -0.159 A  
HETATM    4  C   UNL     1      -8.665   8.056  68.232  1.00  0.00    -0.130 A  
HETATM    5  C   UNL     1      -8.088   6.800  68.029  1.00  0.00    -0.114 A  
HETATM    6  C   UNL     1      -9.091   5.983  70.074  1.00  0.00    -0.152 A  
HETATM    7  C   UNL     1      -9.669   7.242  70.284  1.00  0.00    -0.175 A  
HETATM    8  C   UNL     1      -8.289   5.771  68.953  1.00  0.00    -0.101 A  
BRANCH   4   9
HETATM    9  O   UNL     1      -8.528   9.102  67.357  1.00  0.00    -0.115 OA 
BRANCH   9  10
HETATM   10  C   UNL     1      -8.999   8.921  66.021  1.00  0.00    -0.193 C  
BRANCH  10  11
HETATM   11  C   UNL     1      -9.871  10.090  65.547  1.00  0.00    -0.373 C  
BRANCH  11  12
HETATM   12  C   UNL     1     -10.946  10.535  66.556  1.00  0.00     0.016 C  
BRANCH  12  13
HETATM   13  N   UNL     1     -11.363  11.924  66.338  1.00  0.00    -0.345 NA 
HETATM   14  C   UNL     1     -10.732  12.538  65.164  1.00  0.00    -0.292 C  
HETATM   15  C   UNL     1     -11.370  13.911  64.869  1.00  0.00    -0.349 C  
HETATM   16  C   UNL     1     -11.439  14.835  66.102  1.00  0.00    -0.311 C  
HETATM   17  C   UNL     1     -12.016  14.029  67.278  1.00  0.00    -0.448 C  
HETATM   18  C   UNL     1     -11.199  12.767  67.518  1.00  0.00    -0.289 C  
BRANCH  16  19
HETATM   19  C   UNL     1     -10.123  15.470  66.468  1.00  0.00    -0.279 A  
HETATM   20  N   UNL     1      -8.968  14.806  66.309  1.00  0.00    -0.195 NA 
HETATM   21  O   UNL     1      -7.995  15.586  66.898  1.00  0.00    -0.224 OA 
HETATM   22  C   UNL     1      -8.559  16.721  67.392  1.00  0.00    -0.193 A  
HETATM   23  C   UNL     1      -9.901  16.739  67.081  1.00  0.00    -0.259 A  
HETATM   24  C   UNL     1     -10.666  17.855  67.468  1.00  0.00    -0.333 A  
HETATM   25  C   UNL     1     -10.035  18.867  68.206  1.00  0.00    -0.431 A  
HETATM   26  C   UNL     1      -8.682  18.774  68.527  1.00  0.00    -0.346 A  
HETATM   27  C   UNL     1      -7.891  17.709  68.107  1.00  0.00    -0.257 A  
HETATM   28  F   UNL     1      -8.126  19.741  69.269  1.00  0.00    -0.353 F  
ENDBRANCH  16  19
ENDBRANCH  12  13
ENDBRANCH  11  12
ENDBRANCH  10  11
ENDBRANCH   9  10
ENDBRANCH   4   9
BRANCH   6  29
HETATM   29  C   UNL     1      -9.358   4.911  71.072  1.00  0.00    -0.153 C  
HETATM   30  O   UNL     1      -9.670   3.787  70.681  1.00  0.00    -0.181 OA 
HETATM   31  C   UNL     1      -9.181   5.197  72.543  1.00  0.00    -0.145 C  
ENDBRANCH   6  29
ENDBRANCH   2   3
TORSDOF 8
ENDMDL
MODEL      202
REMARK 921   NORMALIZED FREE ENERGY PREDICTED BY IDOCK:   -4.81 KCAL/MOL
REMARK 922        TOTAL FREE ENERGY PREDICTED BY IDOCK:   -7.86 KCAL/MOL
REMARK 923 INTER-LIGAND FREE ENERGY PREDICTED BY IDOCK:   -7.28 KCAL/MOL
REMARK 924 INTRA-LIGAND FREE ENERGY PREDICTED BY IDOCK:   -0.58 KCAL/MOL
REMARK 927      BINDING AFFINITY PREDICTED BY RF-SCORE:    0.00 PKD
ROOT
HETATM    1  C   UNL     1     -11.283   6.307  69.019  1.00  0.00    -0.343 C  
HETATM    2  O   UNL     1     -11.045   6.952  67.777  1.00  0.00    -0.217 OA 
ENDROOT
BRANCH   2   3
HETATM    3  C   UNL     1     -10.101   6.397  66.949  1.00  0.00    -0.187 A  
HETATM    4  C   UNL     1      -8.973   7.196  66.681  1.00  0.00    -0.146 A  
HETATM    5  C   UNL     1      -7.964   6.710  65.847  1.00  0.00    -0.112 A  
HETATM    6  C   UNL     1      -9.172   4.633  65.556  1.00  0.00    -0.153 A  
HETATM    7  C   UNL     1     -10.186   5.115  66.396  1.00  0.00    -0.303 A  
HETATM    8  C   UNL     1      -8.057   5.429  65.296  1.00  0.00    -0.123 A  
BRANCH   4   9
HETATM    9  O   UNL     1      -8.958   8.449  67.236  1.00  0.00    -0.128 OA 
BRANCH   9  10
HETATM   10  C   UNL     1      -9.095   9.569  66.361  1.00  0.00    -0.159 C  
BRANCH  10  11
HETATM   11  C   UNL     1      -9.661  10.801  67.076  1.00  0.00    -0.205 C  
BRANCH  11  12
HETATM   12  C   UNL     1     -11.199  10.843  67.158  1.00  0.00    -0.184 C  
BRANCH  12  13
HETATM   13  N   UNL     1     -11.689  12.141  67.633  1.00  0.00    -0.472 NA 
HETATM   14  C   UNL     1     -11.565  13.207  66.632  1.00  0.00    -0.356 C  
HETATM   15  C   UNL     1     -12.288  14.481  67.112  1.00  0.00    -0.031 C  
HETATM   16  C   UNL     1     -11.894  14.911  68.540  1.00  0.00    -0.325 C  
HETATM   17  C   UNL     1     -11.965  13.675  69.453  1.00  0.00    -0.394 C  
HETATM   18  C   UNL     1     -11.099  12.550  68.904  1.00  0.00    -0.260 C  
BRANCH  16  19
HETATM   19  C   UNL     1     -10.548  15.581  68.631  1.00  0.00    -0.243 A  
HETATM   20  N   UNL     1      -9.617  15.146  69.493  1.00  0.00    -0.191 NA 
HETATM   21  O   UNL     1      -8.595  16.073  69.452  1.00  0.00    -0.247 OA 
HETATM   22  C   UNL     1      -8.903  17.048  68.555  1.00  0.00    -0.253 A  
HETATM   23  C   UNL     1     -10.101  16.749  67.944  1.00  0.00    -0.284 A  
HETATM   24  C   UNL     1     -10.582  17.616  66.946  1.00  0.00    -0.235 A  
HETATM   25  C   UNL     1      -9.846  18.777  66.666  1.00  0.00    -0.387 A  
HETATM   26  C   UNL     1      -8.660  19.048  67.347  1.00  0.00    -0.278 A  
HETATM   27  C   UNL     1      -8.134  18.178  68.297  1.00  0.00    -0.306 A  
HETATM   28  F   UNL     1      -8.009  20.188  67.081  1.00  0.00    -0.305 F  
ENDBRANCH  16  19
ENDBRANCH  12  13
ENDBRANCH  11  12
ENDBRANCH  10  11
ENDBRANCH   9  10
ENDBRANCH   4   9
BRANCH   6  29
HETATM   29  C   UNL     1      -9.330   3.274  64.971  1.00  0.00    -0.150 C  
HETATM   30  O   UNL     1      -8.914   2.297  65.593  1.00  0.00    -0.126 OA 
HETATM   31  C   UNL     1     -10.052   3.104  63.657  1.00  0.00    -0.174 C  
ENDBRANCH   6  29
ENDBRANCH   2   3
TORSDOF 8
ENDMDL
MODEL      203
REMARK 921   NORMALIZED FREE ENERGY PREDICTED BY IDOCK:   -4.81 KCAL/MOL
REMARK 922        TOTAL FREE ENERGY PREDICTED BY IDOCK:   -7.86 KCAL/MOL
REMARK 923 INTER-LIGAND FREE ENERGY PREDICTED BY IDOCK:   -7.08 KCAL/MOL
REMARK 924 INTRA-LIGAND FREE ENERGY PREDICTED BY IDOCK:   -0.78 KCAL/MOL
REMARK 927      BINDING AFFINITY PREDICTED BY RF-SCORE:    0.00 PKD
ROOT
HETATM    1  C   UNL     1     -10.057  16.311  66.589  1.00  0.00    -0.276 C  
HETATM    2  O   UNL     1      -9.225  17.063  67.460  1.00  0.00    -0.228 OA 
ENDROOT
BRANCH   2   3
HETATM    3  C   UNL     1      -7.957  17.355  67.026  1.00  0.00    -0.215 A  
HETATM    4  C   UNL     1      -6.920  16.600  67.606  1.00  0.00    -0.139 A  
HETATM    5  C   UNL     1      -5.597  16.834  67.222  1.00  0.00    -0.184 A  
HETATM    6  C   UNL     1      -6.323  18.545  65.674  1.00  0.00    -0.309 A  
HETATM    7  C   UNL     1      -7.652  18.313  66.052  1.00  0.00    -0.229 A  
HETATM    8  C   UNL     1      -5.300  17.793  66.251  1.00  0.00    -0.230 A  
BRANCH   4   9
HETATM    9  O   UNL     1      -7.280  15.692  68.567  1.00  0.00    -0.115 OA 
BRANCH   9  10
HETATM   10  C   UNL     1      -6.546  14.469  68.639  1.00  0.00    -0.087 C  
BRANCH  10  11
HETATM   11  C   UNL     1      -7.460  13.238  68.617  1.00  0.00    -0.099 C  
BRANCH  11  12
HETATM   12  C   UNL     1      -7.906  12.799  67.210  1.00  0.00    -0.146 C  
BRANCH  12  13
HETATM   13  N   UNL     1      -9.049  11.880  67.258  1.00  0.00    -0.173 NA 
HETATM   14  C   UNL     1     -10.062  12.271  68.246  1.00  0.00    -0.218 C  
HETATM   15  C   UNL     1     -11.322  11.395  68.096  1.00  0.00    -0.374 C  
HETATM   16  C   UNL     1     -11.021   9.883  68.066  1.00  0.00    -0.269 C  
HETATM   17  C   UNL     1      -9.873   9.638  67.074  1.00  0.00    -0.249 C  
HETATM   18  C   UNL     1      -8.660  10.485  67.434  1.00  0.00    -0.122 C  
BRANCH  16  19
HETATM   19  C   UNL     1     -10.712   9.292  69.417  1.00  0.00    -0.208 A  
HETATM   20  N   UNL     1     -10.363  10.074  70.449  1.00  0.00    -0.262 NA 
HETATM   21  O   UNL     1      -9.978   9.221  71.463  1.00  0.00    -0.307 OA 
HETATM   22  C   UNL     1     -10.114   7.932  71.048  1.00  0.00    -0.192 A  
HETATM   23  C   UNL     1     -10.649   7.913  69.779  1.00  0.00    -0.242 A  
HETATM   24  C   UNL     1     -10.910   6.668  69.178  1.00  0.00    -0.329 A  
HETATM   25  C   UNL     1     -10.553   5.506  69.879  1.00  0.00    -0.387 A  
HETATM   26  C   UNL     1      -9.976   5.590  71.145  1.00  0.00    -0.195 A  
HETATM   27  C   UNL     1      -9.761   6.806  71.784  1.00  0.00    -0.164 A  
HETATM   28  F   UNL     1      -9.611   4.459  71.763  1.00  0.00    -0.172 F  
ENDBRANCH  16  19
ENDBRANCH  12  13
ENDBRANCH  11  12
ENDBRANCH  10  11
ENDBRANCH   9  10
ENDBRANCH   4   9
BRANCH   6  29
HETATM   29  C   UNL     1      -6.055  19.598  64.655  1.00  0.00    -0.269 C  
HETATM   30  O   UNL     1      -6.028  19.292  63.465  1.00  0.00    -0.424 OA 
HETATM   31  C   UNL     1      -5.885  21.032  65.090  1.00  0.00    -0.267 C  
ENDBRANCH   6  29
ENDBRANCH   2   3
TORSDOF 8
ENDMDL
MODEL      204
REMARK 921   NORMALIZED FREE ENERGY PREDICTED BY IDOCK:   -4.81 KCAL/MOL
REMARK 922        TOTAL FREE ENERGY PREDICTED BY IDOCK:   -7.85 KCAL/MOL
REMARK 923 INTER-LIGAND FREE ENERGY PREDICTED BY IDOCK:   -6.77 KCAL/MOL
REMARK 924 INTRA-LIGAND FREE ENERGY PREDICTED BY IDOCK:   -1.08 KCAL/MOL
REMARK 927      BINDING AFFINITY PREDICTED BY RF-SCORE:    0.00 PKD
ROOT
HETATM    1  C   UNL     1      -8.348  13.554  68.466  1.00  0.00    -0.097 C  
HETATM    2  O   UNL     1      -7.917  13.071  67.203  1.00  0.00    -0.163 OA 
ENDROOT
BRANCH   2   3
HETATM    3  C   UNL     1      -8.791  12.285  66.495  1.00  0.00    -0.128 A  
HETATM    4  C   UNL     1      -8.420  10.936  66.342  1.00  0.00    -0.163 A  
HETATM    5  C   UNL     1      -9.252  10.066  65.634  1.00  0.00    -0.234 A  
HETATM    6  C   UNL     1     -10.832  11.857  65.244  1.00  0.00    -0.347 A  
HETATM    7  C   UNL     1     -10.003  12.733  65.957  1.00  0.00    -0.277 A  
HETATM    8  C   UNL     1     -10.459  10.521  65.097  1.00  0.00    -0.225 A  
BRANCH   4   9
HETATM    9  O   UNL     1      -7.213  10.563  66.875  1.00  0.00    -0.097 OA 
BRANCH   9  10
HETATM   10  C   UNL     1      -7.224   9.731  68.035  1.00  0.00    -0.080 C  
BRANCH  10  11
HETATM   11  C   UNL     1      -6.248   8.554  67.916  1.00  0.00    -0.056 C  
BRANCH  11  12
HETATM   12  C   UNL     1      -6.421   7.707  66.642  1.00  0.00    -0.053 C  
BRANCH  12  13
HETATM   13  N   UNL     1      -7.327   6.573  66.854  1.00  0.00    -0.078 NA 
HETATM   14  C   UNL     1      -8.679   6.810  66.335  1.00  0.00    -0.138 C  
HETATM   15  C   UNL     1      -9.512   5.514  66.395  1.00  0.00    -0.167 C  
HETATM   16  C   UNL     1      -9.479   4.825  67.775  1.00  0.00    -0.180 C  
HETATM   17  C   UNL     1      -8.015   4.743  68.240  1.00  0.00    -0.085 C  
HETATM   18  C   UNL     1      -7.373   6.124  68.242  1.00  0.00    -0.086 C  
BRANCH  16  19
HETATM   19  C   UNL     1     -10.345   5.489  68.813  1.00  0.00    -0.201 A  
HETATM   20  N   UNL     1     -11.283   6.382  68.462  1.00  0.00    -0.305 NA 
HETATM   21  O   UNL     1     -11.758   6.921  69.640  1.00  0.00    -0.157 OA 
HETATM   22  C   UNL     1     -11.123   6.340  70.694  1.00  0.00    -0.327 A  
HETATM   23  C   UNL     1     -10.265   5.365  70.233  1.00  0.00    -0.338 A  
HETATM   24  C   UNL     1      -9.538   4.611  71.171  1.00  0.00    -0.238 A  
HETATM   25  C   UNL     1      -9.677   4.933  72.530  1.00  0.00    -0.189 A  
HETATM   26  C   UNL     1     -10.529   5.959  72.934  1.00  0.00    -0.222 A  
HETATM   27  C   UNL     1     -11.302   6.681  72.030  1.00  0.00    -0.317 A  
HETATM   28  F   UNL     1     -10.602   6.263  74.236  1.00  0.00    -0.291 F  
ENDBRANCH  16  19
ENDBRANCH  12  13
ENDBRANCH  11  12
ENDBRANCH  10  11
ENDBRANCH   9  10
ENDBRANCH   4   9
BRANCH   6  29
HETATM   29  C   UNL     1     -12.094  12.396  64.667  1.00  0.00    -0.415 C  
HETATM   30  O   UNL     1     -12.670  13.322  65.234  1.00  0.00    -0.563 OA 
HETATM   31  C   UNL     1     -12.616  11.843  63.364  1.00  0.00    -0.555 C  
ENDBRANCH   6  29
ENDBRANCH   2   3
TORSDOF 8
ENDMDL
MODEL      205
REMARK 921   NORMALIZED FREE ENERGY PREDICTED BY IDOCK:   -4.80 KCAL/MOL
REMARK 922        TOTAL FREE ENERGY PREDICTED BY IDOCK:   -7.84 KCAL/MOL
REMARK 923 INTER-LIGAND FREE ENERGY PREDICTED BY IDOCK:   -7.16 KCAL/MOL
REMARK 924 INTRA-LIGAND FREE ENERGY PREDICTED BY IDOCK:   -0.68 KCAL/MOL
REMARK 927      BINDING AFFINITY PREDICTED BY RF-SCORE:    0.00 PKD
ROOT
HETATM    1  C   UNL     1     -13.348  10.348  70.622  1.00  0.00     0.012 C  
HETATM    2  O   UNL     1     -11.942  10.551  70.632  1.00  0.00    -0.297 OA 
ENDROOT
BRANCH   2   3
HETATM    3  C   UNL     1     -11.143   9.436  70.607  1.00  0.00    -0.289 A  
HETATM    4  C   UNL     1     -10.193   9.384  69.570  1.00  0.00    -0.209 A  
HETATM    5  C   UNL     1      -9.340   8.283  69.469  1.00  0.00    -0.158 A  
HETATM    6  C   UNL     1     -10.347   7.292  71.433  1.00  0.00    -0.212 A  
HETATM    7  C   UNL     1     -11.203   8.395  71.541  1.00  0.00    -0.328 A  
HETATM    8  C   UNL     1      -9.407   7.246  70.403  1.00  0.00    -0.158 A  
BRANCH   4   9
HETATM    9  O   UNL     1     -10.197  10.424  68.676  1.00  0.00    -0.166 OA 
BRANCH   9  10
HETATM   10  C   UNL     1     -10.704  10.176  67.365  1.00  0.00    -0.277 C  
BRANCH  10  11
HETATM   11  C   UNL     1     -11.201  11.455  66.681  1.00  0.00    -0.298 C  
BRANCH  11  12
HETATM   12  C   UNL     1     -11.592  12.587  67.649  1.00  0.00    -0.355 C  
BRANCH  12  13
HETATM   13  N   UNL     1     -11.653  13.889  66.977  1.00  0.00    -0.349 NA 
HETATM   14  C   UNL     1     -10.881  13.930  65.729  1.00  0.00    -0.289 C  
HETATM   15  C   UNL     1     -11.159  15.243  64.970  1.00  0.00    -0.436 C  
HETATM   16  C   UNL     1     -11.007  16.504  65.846  1.00  0.00     0.029 C  
HETATM   17  C   UNL     1     -11.773  16.275  67.160  1.00  0.00     0.716 C  
HETATM   18  C   UNL     1     -11.294  15.004  67.848  1.00  0.00    -0.333 C  
BRANCH  16  19
HETATM   19  C   UNL     1      -9.578  16.900  66.109  1.00  0.00    -0.254 A  
HETATM   20  N   UNL     1      -8.596  15.987  66.102  1.00  0.00    -0.330 NA 
HETATM   21  O   UNL     1      -7.465  16.638  66.550  1.00  0.00    -0.252 OA 
HETATM   22  C   UNL     1      -7.762  17.941  66.806  1.00  0.00    -0.223 A  
HETATM   23  C   UNL     1      -9.076  18.186  66.472  1.00  0.00    -0.287 A  
HETATM   24  C   UNL     1      -9.576  19.492  66.622  1.00  0.00    -0.450 A  
HETATM   25  C   UNL     1      -8.726  20.468  67.165  1.00  0.00    -0.375 A  
HETATM   26  C   UNL     1      -7.417  20.151  67.524  1.00  0.00    -0.297 A  
HETATM   27  C   UNL     1      -6.882  18.881  67.332  1.00  0.00    -0.208 A  
HETATM   28  F   UNL     1      -6.651  21.100  68.078  1.00  0.00    -0.363 F  
ENDBRANCH  16  19
ENDBRANCH  12  13
ENDBRANCH  11  12
ENDBRANCH  10  11
ENDBRANCH   9  10
ENDBRANCH   4   9
BRANCH   6  29
HETATM   29  C   UNL     1     -10.476   6.199  72.436  1.00  0.00    -0.199 C  
HETATM   30  O   UNL     1     -10.702   6.483  73.611  1.00  0.00    -0.285 OA 
HETATM   31  C   UNL     1     -10.394   4.760  71.990  1.00  0.00    -0.247 C  
ENDBRANCH   6  29
ENDBRANCH   2   3
TORSDOF 8
ENDMDL
MODEL      206
REMARK 921   NORMALIZED FREE ENERGY PREDICTED BY IDOCK:   -4.78 KCAL/MOL
REMARK 922        TOTAL FREE ENERGY PREDICTED BY IDOCK:   -7.81 KCAL/MOL
REMARK 923 INTER-LIGAND FREE ENERGY PREDICTED BY IDOCK:   -7.95 KCAL/MOL
REMARK 924 INTRA-LIGAND FREE ENERGY PREDICTED BY IDOCK:    0.14 KCAL/MOL
REMARK 927      BINDING AFFINITY PREDICTED BY RF-SCORE:    0.00 PKD
ROOT
HETATM    1  C   UNL     1     -11.956  14.968  70.045  1.00  0.00    -0.332 C  
HETATM    2  O   UNL     1     -12.052  14.747  68.645  1.00  0.00    -0.277 OA 
ENDROOT
BRANCH   2   3
HETATM    3  C   UNL     1     -11.116  15.353  67.845  1.00  0.00    -0.323 A  
HETATM    4  C   UNL     1     -10.293  14.489  67.099  1.00  0.00    -0.265 A  
HETATM    5  C   UNL     1      -9.312  15.022  66.260  1.00  0.00    -0.341 A  
HETATM    6  C   UNL     1      -9.971  17.267  66.877  1.00  0.00    -0.294 A  
HETATM    7  C   UNL     1     -10.958  16.738  67.717  1.00  0.00    -0.217 A  
HETATM    8  C   UNL     1      -9.159  16.406  66.139  1.00  0.00    -0.362 A  
BRANCH   4   9
HETATM    9  O   UNL     1     -10.483  13.144  67.282  1.00  0.00    -0.241 OA 
BRANCH   9  10
HETATM   10  C   UNL     1      -9.356  12.356  67.668  1.00  0.00    -0.188 C  
BRANCH  10  11
HETATM   11  C   UNL     1      -9.762  10.972  68.185  1.00  0.00    -0.180 C  
BRANCH  11  12
HETATM   12  C   UNL     1     -10.942  10.980  69.175  1.00  0.00    -0.237 C  
BRANCH  12  13
HETATM   13  N   UNL     1     -10.685  10.134  70.345  1.00  0.00    -0.295 NA 
HETATM   14  C   UNL     1      -9.383   9.458  70.293  1.00  0.00    -0.252 C  
HETATM   15  C   UNL     1      -9.085   8.763  71.637  1.00  0.00    -0.314 C  
HETATM   16  C   UNL     1     -10.239   7.870  72.137  1.00  0.00    -0.286 C  
HETATM   17  C   UNL     1     -11.549   8.669  72.033  1.00  0.00    -0.440 C  
HETATM   18  C   UNL     1     -11.757   9.180  70.613  1.00  0.00    -0.209 C  
BRANCH  16  19
HETATM   19  C   UNL     1     -10.347   6.549  71.421  1.00  0.00    -0.206 A  
HETATM   20  N   UNL     1     -10.591   5.416  72.097  1.00  0.00    -0.222 NA 
HETATM   21  O   UNL     1     -10.447   4.389  71.186  1.00  0.00    -0.045 OA 
HETATM   22  C   UNL     1     -10.136   4.904  69.966  1.00  0.00    -0.266 A  
HETATM   23  C   UNL     1     -10.133   6.280  70.036  1.00  0.00    -0.217 A  
HETATM   24  C   UNL     1      -9.874   7.013  68.863  1.00  0.00    -0.150 A  
HETATM   25  C   UNL     1      -9.571   6.302  67.692  1.00  0.00    -0.118 A  
HETATM   26  C   UNL     1      -9.549   4.909  67.692  1.00  0.00    -0.151 A  
HETATM   27  C   UNL     1      -9.857   4.162  68.824  1.00  0.00    -0.087 A  
HETATM   28  F   UNL     1      -9.213   4.269  66.564  1.00  0.00    -0.121 F  
ENDBRANCH  16  19
ENDBRANCH  12  13
ENDBRANCH  11  12
ENDBRANCH  10  11
ENDBRANCH   9  10
ENDBRANCH   4   9
BRANCH   6  29
HETATM   29  C   UNL     1      -9.828  18.747  66.804  1.00  0.00    -0.343 C  
HETATM   30  O   UNL     1      -9.339  19.257  65.797  1.00  0.00    -0.382 OA 
HETATM   31  C   UNL     1     -10.342  19.605  67.933  1.00  0.00    -0.583 C  
ENDBRANCH   6  29
ENDBRANCH   2   3
TORSDOF 8
ENDMDL
MODEL      207
REMARK 921   NORMALIZED FREE ENERGY PREDICTED BY IDOCK:   -4.76 KCAL/MOL
REMARK 922        TOTAL FREE ENERGY PREDICTED BY IDOCK:   -7.78 KCAL/MOL
REMARK 923 INTER-LIGAND FREE ENERGY PREDICTED BY IDOCK:   -7.06 KCAL/MOL
REMARK 924 INTRA-LIGAND FREE ENERGY PREDICTED BY IDOCK:   -0.72 KCAL/MOL
REMARK 927      BINDING AFFINITY PREDICTED BY RF-SCORE:    0.00 PKD
ROOT
HETATM    1  C   UNL     1      -9.779   5.692  71.669  1.00  0.00    -0.159 C  
HETATM    2  O   UNL     1     -10.557   6.143  70.570  1.00  0.00    -0.221 OA 
ENDROOT
BRANCH   2   3
HETATM    3  C   UNL     1     -10.058   5.920  69.311  1.00  0.00    -0.194 A  
HETATM    4  C   UNL     1      -9.624   7.061  68.611  1.00  0.00    -0.138 A  
HETATM    5  C   UNL     1      -9.104   6.926  67.322  1.00  0.00    -0.127 A  
HETATM    6  C   UNL     1      -9.421   4.529  67.421  1.00  0.00    -0.189 A  
HETATM    7  C   UNL     1      -9.940   4.659  68.716  1.00  0.00    -0.153 A  
HETATM    8  C   UNL     1      -8.991   5.663  66.733  1.00  0.00    -0.116 A  
BRANCH   4   9
HETATM    9  O   UNL     1      -9.784   8.270  69.239  1.00  0.00    -0.172 OA 
BRANCH   9  10
HETATM   10  C   UNL     1     -10.873   9.097  68.828  1.00  0.00    -0.060 C  
BRANCH  10  11
HETATM   11  C   UNL     1     -10.402  10.448  68.276  1.00  0.00    -0.198 C  
BRANCH  11  12
HETATM   12  C   UNL     1     -10.459  10.567  66.742  1.00  0.00    -0.242 C  
BRANCH  12  13
HETATM   13  N   UNL     1     -10.954  11.878  66.310  1.00  0.00    -0.290 NA 
HETATM   14  C   UNL     1      -9.899  12.743  65.769  1.00  0.00    -0.214 C  
HETATM   15  C   UNL     1     -10.514  14.010  65.141  1.00  0.00    -0.415 C  
HETATM   16  C   UNL     1     -11.510  14.736  66.069  1.00  0.00    -0.316 C  
HETATM   17  C   UNL     1     -12.482  13.693  66.646  1.00  0.00    -0.291 C  
HETATM   18  C   UNL     1     -11.720  12.572  67.340  1.00  0.00    -0.366 C  
BRANCH  16  19
HETATM   19  C   UNL     1     -10.855  15.537  67.165  1.00  0.00    -0.316 A  
HETATM   20  N   UNL     1     -11.514  15.826  68.296  1.00  0.00    -0.360 NA 
HETATM   21  O   UNL     1     -10.711  16.707  68.992  1.00  0.00    -0.312 OA 
HETATM   22  C   UNL     1      -9.567  16.930  68.290  1.00  0.00    -0.258 A  
HETATM   23  C   UNL     1      -9.568  16.153  67.152  1.00  0.00    -0.235 A  
HETATM   24  C   UNL     1      -8.448  16.204  66.303  1.00  0.00    -0.357 A  
HETATM   25  C   UNL     1      -7.411  17.092  66.626  1.00  0.00    -0.285 A  
HETATM   26  C   UNL     1      -7.485  17.885  67.769  1.00  0.00    -0.206 A  
HETATM   27  C   UNL     1      -8.555  17.811  68.655  1.00  0.00    -0.264 A  
HETATM   28  F   UNL     1      -6.494  18.751  68.020  1.00  0.00    -0.205 F  
ENDBRANCH  16  19
ENDBRANCH  12  13
ENDBRANCH  11  12
ENDBRANCH  10  11
ENDBRANCH   9  10
ENDBRANCH   4   9
BRANCH   6  29
HETATM   29  C   UNL     1      -9.347   3.166  66.827  1.00  0.00    -0.124 C  
HETATM   30  O   UNL     1      -9.171   3.045  65.616  1.00  0.00    -0.150 OA 
HETATM   31  C   UNL     1      -9.423   1.954  67.722  1.00  0.00    -0.130 C  
ENDBRANCH   6  29
ENDBRANCH   2   3
TORSDOF 8
ENDMDL
MODEL      208
REMARK 921   NORMALIZED FREE ENERGY PREDICTED BY IDOCK:   -4.76 KCAL/MOL
REMARK 922        TOTAL FREE ENERGY PREDICTED BY IDOCK:   -7.77 KCAL/MOL
REMARK 923 INTER-LIGAND FREE ENERGY PREDICTED BY IDOCK:   -7.67 KCAL/MOL
REMARK 924 INTRA-LIGAND FREE ENERGY PREDICTED BY IDOCK:   -0.10 KCAL/MOL
REMARK 927      BINDING AFFINITY PREDICTED BY RF-SCORE:    0.00 PKD
ROOT
HETATM    1  C   UNL     1     -10.257   9.951  67.619  1.00  0.00    -0.208 C  
HETATM    2  O   UNL     1     -11.543  10.533  67.774  1.00  0.00    -0.462 OA 
ENDROOT
BRANCH   2   3
HETATM    3  C   UNL     1     -11.601  11.821  68.244  1.00  0.00    -0.308 A  
HETATM    4  C   UNL     1     -12.185  11.986  69.513  1.00  0.00    -0.117 A  
HETATM    5  C   UNL     1     -12.286  13.265  70.067  1.00  0.00    -0.345 A  
HETATM    6  C   UNL     1     -11.210  14.218  68.120  1.00  0.00    -0.295 A  
HETATM    7  C   UNL     1     -11.104  12.937  67.562  1.00  0.00    -0.302 A  
HETATM    8  C   UNL     1     -11.789  14.375  69.379  1.00  0.00    -0.369 A  
BRANCH   4   9
HETATM    9  O   UNL     1     -12.670  10.858  70.122  1.00  0.00    -0.278 OA 
BRANCH   9  10
HETATM   10  C   UNL     1     -11.923  10.312  71.209  1.00  0.00    -0.363 C  
BRANCH  10  11
HETATM   11  C   UNL     1     -11.947   8.779  71.221  1.00  0.00    -0.353 C  
BRANCH  11  12
HETATM   12  C   UNL     1     -11.999   8.151  72.626  1.00  0.00    -0.292 C  
BRANCH  12  13
HETATM   13  N   UNL     1     -11.054   7.038  72.767  1.00  0.00    -0.282 NA 
HETATM   14  C   UNL     1      -9.839   7.208  71.961  1.00  0.00    -0.158 C  
HETATM   15  C   UNL     1      -8.804   6.122  72.316  1.00  0.00    -0.137 C  
HETATM   16  C   UNL     1      -9.380   4.691  72.292  1.00  0.00    -0.162 C  
HETATM   17  C   UNL     1     -10.701   4.689  73.080  1.00  0.00    -0.302 C  
HETATM   18  C   UNL     1     -11.661   5.733  72.526  1.00  0.00    -0.267 C  
BRANCH  16  19
HETATM   19  C   UNL     1      -9.569   4.129  70.907  1.00  0.00    -0.179 A  
HETATM   20  N   UNL     1      -9.309   2.839  70.644  1.00  0.00    -0.138 NA 
HETATM   21  O   UNL     1      -9.407   2.701  69.275  1.00  0.00    -0.134 OA 
HETATM   22  C   UNL     1      -9.744   3.897  68.720  1.00  0.00    -0.049 A  
HETATM   23  C   UNL     1      -9.936   4.828  69.718  1.00  0.00    -0.308 A  
HETATM   24  C   UNL     1     -10.333   6.128  69.357  1.00  0.00    -0.283 A  
HETATM   25  C   UNL     1     -10.455   6.428  67.992  1.00  0.00    -0.271 A  
HETATM   26  C   UNL     1     -10.208   5.455  67.026  1.00  0.00    -0.233 A  
HETATM   27  C   UNL     1      -9.869   4.147  67.358  1.00  0.00    -0.152 A  
HETATM   28  F   UNL     1     -10.294   5.793  65.732  1.00  0.00    -0.050 F  
ENDBRANCH  16  19
ENDBRANCH  12  13
ENDBRANCH  11  12
ENDBRANCH  10  11
ENDBRANCH   9  10
ENDBRANCH   4   9
BRANCH   6  29
HETATM   29  C   UNL     1     -10.693  15.373  67.336  1.00  0.00    -0.296 C  
HETATM   30  O   UNL     1     -10.185  15.175  66.234  1.00  0.00    -0.264 OA 
HETATM   31  C   UNL     1     -10.854  16.774  67.872  1.00  0.00    -0.311 C  
ENDBRANCH   6  29
ENDBRANCH   2   3
TORSDOF 8
ENDMDL
MODEL      209
REMARK 921   NORMALIZED FREE ENERGY PREDICTED BY IDOCK:   -4.74 KCAL/MOL
REMARK 922        TOTAL FREE ENERGY PREDICTED BY IDOCK:   -7.76 KCAL/MOL
REMARK 923 INTER-LIGAND FREE ENERGY PREDICTED BY IDOCK:   -6.62 KCAL/MOL
REMARK 924 INTRA-LIGAND FREE ENERGY PREDICTED BY IDOCK:   -1.14 KCAL/MOL
REMARK 927      BINDING AFFINITY PREDICTED BY RF-SCORE:    0.00 PKD
ROOT
HETATM    1  C   UNL     1      -9.512  11.239  64.719  1.00  0.00    -0.194 C  
HETATM    2  O   UNL     1      -9.272  11.077  66.109  1.00  0.00    -0.177 OA 
ENDROOT
BRANCH   2   3
HETATM    3  C   UNL     1      -9.049  12.212  66.847  1.00  0.00    -0.203 A  
HETATM    4  C   UNL     1      -7.713  12.452  67.217  1.00  0.00    -0.158 A  
HETATM    5  C   UNL     1      -7.396  13.584  67.972  1.00  0.00    -0.133 A  
HETATM    6  C   UNL     1      -9.720  14.258  67.978  1.00  0.00    -0.223 A  
HETATM    7  C   UNL     1     -10.042  13.126  67.218  1.00  0.00    -0.233 A  
HETATM    8  C   UNL     1      -8.394  14.491  68.340  1.00  0.00    -0.153 A  
BRANCH   4   9
HETATM    9  O   UNL     1      -6.789  11.511  66.841  1.00  0.00    -0.131 OA 
BRANCH   9  10
HETATM   10  C   UNL     1      -5.814  11.109  67.804  1.00  0.00    -0.047 C  
BRANCH  10  11
HETATM   11  C   UNL     1      -5.707   9.584  67.923  1.00  0.00    -0.041 C  
BRANCH  11  12
HETATM   12  C   UNL     1      -6.004   9.031  69.330  1.00  0.00    -0.041 C  
BRANCH  12  13
HETATM   13  N   UNL     1      -7.183   8.159  69.340  1.00  0.00    -0.066 NA 
HETATM   14  C   UNL     1      -8.362   8.775  68.718  1.00  0.00    -0.124 C  
HETATM   15  C   UNL     1      -9.493   7.738  68.569  1.00  0.00    -0.148 C  
HETATM   16  C   UNL     1      -9.798   6.969  69.871  1.00  0.00    -0.173 C  
HETATM   17  C   UNL     1      -8.468   6.477  70.465  1.00  0.00    -0.138 C  
HETATM   18  C   UNL     1      -7.505   7.640  70.666  1.00  0.00    -0.072 C  
BRANCH  16  19
HETATM   19  C   UNL     1     -10.588   7.759  70.881  1.00  0.00    -0.213 A  
HETATM   20  N   UNL     1     -10.988   7.202  72.034  1.00  0.00    -0.230 NA 
HETATM   21  O   UNL     1     -11.826   8.121  72.632  1.00  0.00    -0.395 OA 
HETATM   22  C   UNL     1     -11.913   9.232  71.851  1.00  0.00    -0.363 A  
HETATM   23  C   UNL     1     -11.086   9.091  70.758  1.00  0.00    -0.328 A  
HETATM   24  C   UNL     1     -10.997  10.154  69.841  1.00  0.00    -0.344 A  
HETATM   25  C   UNL     1     -11.804  11.282  70.054  1.00  0.00    -0.448 A  
HETATM   26  C   UNL     1     -12.653  11.350  71.157  1.00  0.00    -0.386 A  
HETATM   27  C   UNL     1     -12.717  10.337  72.108  1.00  0.00    -0.277 A  
HETATM   28  F   UNL     1     -13.438  12.426  71.301  1.00  0.00    -0.275 F  
ENDBRANCH  16  19
ENDBRANCH  12  13
ENDBRANCH  11  12
ENDBRANCH  10  11
ENDBRANCH   9  10
ENDBRANCH   4   9
BRANCH   6  29
HETATM   29  C   UNL     1     -10.822  15.179  68.370  1.00  0.00    -0.255 C  
HETATM   30  O   UNL     1     -10.811  16.340  67.964  1.00  0.00    -0.321 OA 
HETATM   31  C   UNL     1     -11.968  14.662  69.204  1.00  0.00    -0.329 C  
ENDBRANCH   6  29
ENDBRANCH   2   3
TORSDOF 8
ENDMDL
MODEL      210
REMARK 921   NORMALIZED FREE ENERGY PREDICTED BY IDOCK:   -4.72 KCAL/MOL
REMARK 922        TOTAL FREE ENERGY PREDICTED BY IDOCK:   -7.72 KCAL/MOL
REMARK 923 INTER-LIGAND FREE ENERGY PREDICTED BY IDOCK:   -7.15 KCAL/MOL
REMARK 924 INTRA-LIGAND FREE ENERGY PREDICTED BY IDOCK:   -0.57 KCAL/MOL
REMARK 927      BINDING AFFINITY PREDICTED BY RF-SCORE:    0.00 PKD
ROOT
HETATM    1  C   UNL     1     -11.144   8.637  70.010  1.00  0.00    -0.157 C  
HETATM    2  O   UNL     1     -10.421   9.834  69.762  1.00  0.00    -0.215 OA 
ENDROOT
BRANCH   2   3
HETATM    3  C   UNL     1     -10.033  10.082  68.470  1.00  0.00    -0.162 A  
HETATM    4  C   UNL     1     -10.947  10.806  67.682  1.00  0.00    -0.306 A  
HETATM    5  C   UNL     1     -10.633  11.101  66.353  1.00  0.00    -0.315 A  
HETATM    6  C   UNL     1      -8.500   9.982  66.585  1.00  0.00    -0.126 A  
HETATM    7  C   UNL     1      -8.809   9.687  67.919  1.00  0.00    -0.119 A  
HETATM    8  C   UNL     1      -9.409  10.701  65.809  1.00  0.00    -0.223 A  
BRANCH   4   9
HETATM    9  O   UNL     1     -12.136  11.147  68.272  1.00  0.00    -0.620 OA 
BRANCH   9  10
HETATM   10  C   UNL     1     -12.112  12.139  69.299  1.00  0.00    -0.178 C  
BRANCH  10  11
HETATM   11  C   UNL     1     -12.145  13.564  68.734  1.00  0.00    -0.305 C  
BRANCH  11  12
HETATM   12  C   UNL     1     -11.227  14.562  69.464  1.00  0.00    -0.264 C  
BRANCH  12  13
HETATM   13  N   UNL     1     -10.271  15.198  68.552  1.00  0.00    -0.226 NA 
HETATM   14  C   UNL     1      -9.083  14.374  68.296  1.00  0.00    -0.193 C  
HETATM   15  C   UNL     1      -8.229  14.999  67.174  1.00  0.00    -0.251 C  
HETATM   16  C   UNL     1      -7.923  16.494  67.394  1.00  0.00    -0.175 C  
HETATM   17  C   UNL     1      -9.235  17.208  67.759  1.00  0.00    -0.241 C  
HETATM   18  C   UNL     1      -9.891  16.546  68.963  1.00  0.00    -0.266 C  
BRANCH  16  19
HETATM   19  C   UNL     1      -6.853  16.758  68.422  1.00  0.00    -0.160 A  
HETATM   20  N   UNL     1      -6.083  15.763  68.887  1.00  0.00    -0.110 NA 
HETATM   21  O   UNL     1      -5.350  16.301  69.925  1.00  0.00    -0.136 OA 
HETATM   22  C   UNL     1      -5.664  17.617  70.069  1.00  0.00    -0.246 A  
HETATM   23  C   UNL     1      -6.561  17.984  69.090  1.00  0.00    -0.253 A  
HETATM   24  C   UNL     1      -6.985  19.324  69.035  1.00  0.00    -0.381 A  
HETATM   25  C   UNL     1      -6.519  20.207  70.021  1.00  0.00    -0.322 A  
HETATM   26  C   UNL     1      -5.644  19.767  71.013  1.00  0.00    -0.282 A  
HETATM   27  C   UNL     1      -5.165  18.462  71.054  1.00  0.00    -0.279 A  
HETATM   28  F   UNL     1      -5.255  20.631  71.960  1.00  0.00    -0.348 F  
ENDBRANCH  16  19
ENDBRANCH  12  13
ENDBRANCH  11  12
ENDBRANCH  10  11
ENDBRANCH   9  10
ENDBRANCH   4   9
BRANCH   6  29
HETATM   29  C   UNL     1      -7.196   9.510  66.043  1.00  0.00    -0.093 C  
HETATM   30  O   UNL     1      -7.063   8.327  65.734  1.00  0.00    -0.069 OA 
HETATM   31  C   UNL     1      -6.078  10.497  65.820  1.00  0.00    -0.133 C  
ENDBRANCH   6  29
ENDBRANCH   2   3
TORSDOF 8
ENDMDL
MODEL      211
REMARK 921   NORMALIZED FREE ENERGY PREDICTED BY IDOCK:   -4.69 KCAL/MOL
REMARK 922        TOTAL FREE ENERGY PREDICTED BY IDOCK:   -7.68 KCAL/MOL
REMARK 923 INTER-LIGAND FREE ENERGY PREDICTED BY IDOCK:   -6.90 KCAL/MOL
REMARK 924 INTRA-LIGAND FREE ENERGY PREDICTED BY IDOCK:   -0.78 KCAL/MOL
REMARK 927      BINDING AFFINITY PREDICTED BY RF-SCORE:    0.00 PKD
ROOT
HETATM    1  C   UNL     1     -11.582  11.793  64.374  1.00  0.00    -0.245 C  
HETATM    2  O   UNL     1     -12.287  12.381  65.457  1.00  0.00    -0.621 OA 
ENDROOT
BRANCH   2   3
HETATM    3  C   UNL     1     -11.569  13.160  66.330  1.00  0.00    -0.356 A  
HETATM    4  C   UNL     1     -11.291  12.582  67.583  1.00  0.00    -0.306 A  
HETATM    5  C   UNL     1     -10.566  13.306  68.532  1.00  0.00    -0.270 A  
HETATM    6  C   UNL     1     -10.369  15.166  66.998  1.00  0.00    -0.271 A  
HETATM    7  C   UNL     1     -11.093  14.443  66.041  1.00  0.00    -0.324 A  
HETATM    8  C   UNL     1     -10.096  14.588  68.237  1.00  0.00    -0.232 A  
BRANCH   4   9
HETATM    9  O   UNL     1     -11.801  11.330  67.812  1.00  0.00    -0.610 OA 
BRANCH   9  10
HETATM   10  C   UNL     1     -11.658  10.781  69.123  1.00  0.00    -0.305 C  
BRANCH  10  11
HETATM   11  C   UNL     1     -10.761   9.538  69.139  1.00  0.00    -0.228 C  
BRANCH  11  12
HETATM   12  C   UNL     1     -10.685   8.822  70.501  1.00  0.00    -0.223 C  
BRANCH  12  13
HETATM   13  N   UNL     1     -10.362   7.399  70.357  1.00  0.00    -0.206 NA 
HETATM   14  C   UNL     1      -8.957   7.093  70.651  1.00  0.00    -0.154 C  
HETATM   15  C   UNL     1      -8.737   5.568  70.690  1.00  0.00    -0.134 C  
HETATM   16  C   UNL     1      -9.296   4.833  69.454  1.00  0.00    -0.197 C  
HETATM   17  C   UNL     1     -10.729   5.331  69.202  1.00  0.00    -0.054 C  
HETATM   18  C   UNL     1     -10.756   6.847  69.064  1.00  0.00    -0.230 C  
BRANCH  16  19
HETATM   19  C   UNL     1      -8.444   4.974  68.220  1.00  0.00    -0.098 A  
HETATM   20  N   UNL     1      -7.237   5.557  68.276  1.00  0.00    -0.070 NA 
HETATM   21  O   UNL     1      -6.812   5.686  66.970  1.00  0.00    -0.060 OA 
HETATM   22  C   UNL     1      -7.751   5.165  66.134  1.00  0.00    -0.091 A  
HETATM   23  C   UNL     1      -8.780   4.628  66.877  1.00  0.00    -0.107 A  
HETATM   24  C   UNL     1      -9.840   3.998  66.200  1.00  0.00    -0.176 A  
HETATM   25  C   UNL     1      -9.827   4.004  64.797  1.00  0.00    -0.201 A  
HETATM   26  C   UNL     1      -8.778   4.600  64.099  1.00  0.00    -0.145 A  
HETATM   27  C   UNL     1      -7.691   5.178  64.745  1.00  0.00    -0.086 A  
HETATM   28  F   UNL     1      -8.824   4.621  62.760  1.00  0.00    -0.107 F  
ENDBRANCH  16  19
ENDBRANCH  12  13
ENDBRANCH  11  12
ENDBRANCH  10  11
ENDBRANCH   9  10
ENDBRANCH   4   9
BRANCH   6  29
HETATM   29  C   UNL     1      -9.915  16.540  66.647  1.00  0.00    -0.276 C  
HETATM   30  O   UNL     1     -10.624  17.502  66.935  1.00  0.00    -0.305 OA 
HETATM   31  C   UNL     1      -8.566  16.739  66.002  1.00  0.00    -0.213 C  
ENDBRANCH   6  29
ENDBRANCH   2   3
TORSDOF 8
ENDMDL
MODEL      212
REMARK 921   NORMALIZED FREE ENERGY PREDICTED BY IDOCK:   -4.67 KCAL/MOL
REMARK 922        TOTAL FREE ENERGY PREDICTED BY IDOCK:   -7.65 KCAL/MOL
REMARK 923 INTER-LIGAND FREE ENERGY PREDICTED BY IDOCK:   -7.02 KCAL/MOL
REMARK 924 INTRA-LIGAND FREE ENERGY PREDICTED BY IDOCK:   -0.62 KCAL/MOL
REMARK 927      BINDING AFFINITY PREDICTED BY RF-SCORE:    0.00 PKD
ROOT
HETATM    1  C   UNL     1     -11.875  13.880  67.364  1.00  0.00    -0.402 C  
HETATM    2  O   UNL     1     -10.746  13.734  66.515  1.00  0.00    -0.282 OA 
ENDROOT
BRANCH   2   3
HETATM    3  C   UNL     1      -9.714  14.624  66.678  1.00  0.00    -0.270 A  
HETATM    4  C   UNL     1      -8.469  14.066  67.022  1.00  0.00    -0.147 A  
HETATM    5  C   UNL     1      -7.365  14.902  67.208  1.00  0.00    -0.174 A  
HETATM    6  C   UNL     1      -8.716  16.842  66.693  1.00  0.00    -0.281 A  
HETATM    7  C   UNL     1      -9.826  16.008  66.501  1.00  0.00    -0.284 A  
HETATM    8  C   UNL     1      -7.484  16.283  67.032  1.00  0.00    -0.257 A  
BRANCH   4   9
HETATM    9  O   UNL     1      -8.429  12.708  67.199  1.00  0.00    -0.184 OA 
BRANCH   9  10
HETATM   10  C   UNL     1      -7.913  12.211  68.434  1.00  0.00    -0.152 C  
BRANCH  10  11
HETATM   11  C   UNL     1      -7.800  10.682  68.445  1.00  0.00    -0.113 C  
BRANCH  11  12
HETATM   12  C   UNL     1      -8.074  10.030  69.814  1.00  0.00    -0.177 C  
BRANCH  12  13
HETATM   13  N   UNL     1      -9.297   9.221  69.802  1.00  0.00    -0.175 NA 
HETATM   14  C   UNL     1     -10.189   9.507  70.932  1.00  0.00    -0.286 C  
HETATM   15  C   UNL     1     -11.539   8.786  70.745  1.00  0.00    -0.288 C  
HETATM   16  C   UNL     1     -11.396   7.285  70.422  1.00  0.00    -0.299 C  
HETATM   17  C   UNL     1     -10.354   7.129  69.301  1.00  0.00    -0.209 C  
HETATM   18  C   UNL     1      -9.039   7.788  69.693  1.00  0.00    -0.146 C  
BRANCH  16  19
HETATM   19  C   UNL     1     -11.048   6.431  71.613  1.00  0.00    -0.267 A  
HETATM   20  N   UNL     1     -11.277   6.862  72.862  1.00  0.00    -0.250 NA 
HETATM   21  O   UNL     1     -10.688   5.937  73.700  1.00  0.00    -0.262 OA 
HETATM   22  C   UNL     1     -10.125   4.946  72.958  1.00  0.00    -0.163 A  
HETATM   23  C   UNL     1     -10.387   5.166  71.623  1.00  0.00    -0.274 A  
HETATM   24  C   UNL     1      -9.925   4.227  70.683  1.00  0.00    -0.218 A  
HETATM   25  C   UNL     1      -9.166   3.143  71.149  1.00  0.00    -0.197 A  
HETATM   26  C   UNL     1      -8.897   2.995  72.508  1.00  0.00    -0.083 A  
HETATM   27  C   UNL     1      -9.390   3.879  73.463  1.00  0.00    -0.117 A  
HETATM   28  F   UNL     1      -8.132   1.970  72.907  1.00  0.00    -0.049 F  
ENDBRANCH  16  19
ENDBRANCH  12  13
ENDBRANCH  11  12
ENDBRANCH  10  11
ENDBRANCH   9  10
ENDBRANCH   4   9
BRANCH   6  29
HETATM   29  C   UNL     1      -8.900  18.309  66.521  1.00  0.00    -0.271 C  
HETATM   30  O   UNL     1      -9.916  18.730  65.971  1.00  0.00    -0.473 OA 
HETATM   31  C   UNL     1      -7.873  19.262  67.080  1.00  0.00    -0.274 C  
ENDBRANCH   6  29
ENDBRANCH   2   3
TORSDOF 8
ENDMDL
MODEL      213
REMARK 921   NORMALIZED FREE ENERGY PREDICTED BY IDOCK:   -4.67 KCAL/MOL
REMARK 922        TOTAL FREE ENERGY PREDICTED BY IDOCK:   -7.64 KCAL/MOL
REMARK 923 INTER-LIGAND FREE ENERGY PREDICTED BY IDOCK:   -6.58 KCAL/MOL
REMARK 924 INTRA-LIGAND FREE ENERGY PREDICTED BY IDOCK:   -1.06 KCAL/MOL
REMARK 927      BINDING AFFINITY PREDICTED BY RF-SCORE:    0.00 PKD
ROOT
HETATM    1  C   UNL     1     -10.976  19.897  66.944  1.00  0.00    -0.100 C  
HETATM    2  O   UNL     1     -10.761  18.614  67.512  1.00  0.00    -0.432 OA 
ENDROOT
BRANCH   2   3
HETATM    3  C   UNL     1      -9.489  18.103  67.454  1.00  0.00    -0.255 A  
HETATM    4  C   UNL     1      -9.232  17.212  66.396  1.00  0.00    -0.258 A  
HETATM    5  C   UNL     1      -7.963  16.643  66.263  1.00  0.00    -0.340 A  
HETATM    6  C   UNL     1      -7.192  17.852  68.211  1.00  0.00    -0.236 A  
HETATM    7  C   UNL     1      -8.462  18.428  68.347  1.00  0.00    -0.345 A  
HETATM    8  C   UNL     1      -6.943  16.971  67.159  1.00  0.00    -0.213 A  
BRANCH   4   9
HETATM    9  O   UNL     1     -10.284  16.918  65.566  1.00  0.00    -0.580 OA 
BRANCH   9  10
HETATM   10  C   UNL     1     -10.491  15.551  65.209  1.00  0.00    -0.411 C  
BRANCH  10  11
HETATM   11  C   UNL     1     -11.654  14.917  65.981  1.00  0.00    -0.226 C  
BRANCH  11  12
HETATM   12  C   UNL     1     -11.228  14.049  67.179  1.00  0.00    -0.313 C  
BRANCH  12  13
HETATM   13  N   UNL     1     -10.012  13.280  66.896  1.00  0.00    -0.245 NA 
HETATM   14  C   UNL     1     -10.219  11.828  66.960  1.00  0.00    -0.214 C  
HETATM   15  C   UNL     1      -8.969  11.085  66.446  1.00  0.00    -0.190 C  
HETATM   16  C   UNL     1      -7.657  11.564  67.101  1.00  0.00    -0.149 C  
HETATM   17  C   UNL     1      -7.628  13.100  67.060  1.00  0.00     0.123 C  
HETATM   18  C   UNL     1      -8.873  13.680  67.717  1.00  0.00    -0.190 C  
BRANCH  16  19
HETATM   19  C   UNL     1      -7.447  11.051  68.502  1.00  0.00    -0.106 A  
HETATM   20  N   UNL     1      -6.747  11.760  69.400  1.00  0.00    -0.114 NA 
HETATM   21  O   UNL     1      -6.593  10.940  70.499  1.00  0.00    -0.309 OA 
HETATM   22  C   UNL     1      -7.213   9.751  70.269  1.00  0.00    -0.149 A  
HETATM   23  C   UNL     1      -7.840   9.790  69.043  1.00  0.00    -0.087 A  
HETATM   24  C   UNL     1      -8.580   8.667  68.631  1.00  0.00    -0.131 A  
HETATM   25  C   UNL     1      -8.589   7.538  69.464  1.00  0.00    -0.133 A  
HETATM   26  C   UNL     1      -7.901   7.543  70.675  1.00  0.00    -0.095 A  
HETATM   27  C   UNL     1      -7.210   8.661  71.132  1.00  0.00    -0.085 A  
HETATM   28  F   UNL     1      -7.900   6.430  71.422  1.00  0.00    -0.097 F  
ENDBRANCH  16  19
ENDBRANCH  12  13
ENDBRANCH  11  12
ENDBRANCH  10  11
ENDBRANCH   9  10
ENDBRANCH   4   9
BRANCH   6  29
HETATM   29  C   UNL     1      -6.146  18.211  69.208  1.00  0.00    -0.245 C  
HETATM   30  O   UNL     1      -5.881  19.396  69.406  1.00  0.00    -0.231 OA 
HETATM   31  C   UNL     1      -5.471  17.124  70.009  1.00  0.00    -0.225 C  
ENDBRANCH   6  29
ENDBRANCH   2   3
TORSDOF 8
ENDMDL
MODEL      214
REMARK 921   NORMALIZED FREE ENERGY PREDICTED BY IDOCK:   -4.65 KCAL/MOL
REMARK 922        TOTAL FREE ENERGY PREDICTED BY IDOCK:   -7.62 KCAL/MOL
REMARK 923 INTER-LIGAND FREE ENERGY PREDICTED BY IDOCK:   -6.92 KCAL/MOL
REMARK 924 INTRA-LIGAND FREE ENERGY PREDICTED BY IDOCK:   -0.70 KCAL/MOL
REMARK 927      BINDING AFFINITY PREDICTED BY RF-SCORE:    0.00 PKD
ROOT
HETATM    1  C   UNL     1     -11.150  13.521  65.310  1.00  0.00    -0.297 C  
HETATM    2  O   UNL     1     -11.934  14.480  66.003  1.00  0.00    -0.370 OA 
ENDROOT
BRANCH   2   3
HETATM    3  C   UNL     1     -11.273  15.377  66.804  1.00  0.00    -0.197 A  
HETATM    4  C   UNL     1     -11.451  15.211  68.190  1.00  0.00    -0.342 A  
HETATM    5  C   UNL     1     -10.815  16.082  69.078  1.00  0.00    -0.283 A  
HETATM    6  C   UNL     1      -9.807  17.270  67.227  1.00  0.00    -0.267 A  
HETATM    7  C   UNL     1     -10.440  16.397  66.332  1.00  0.00    -0.288 A  
HETATM    8  C   UNL     1      -9.986  17.100  68.599  1.00  0.00    -0.313 A  
BRANCH   4   9
HETATM    9  O   UNL     1     -12.294  14.206  68.589  1.00  0.00    -0.257 OA 
BRANCH   9  10
HETATM   10  C   UNL     1     -11.740  13.133  69.352  1.00  0.00    -0.327 C  
BRANCH  10  11
HETATM   11  C   UNL     1     -10.624  12.399  68.600  1.00  0.00    -0.243 C  
BRANCH  11  12
HETATM   12  C   UNL     1     -11.050  11.056  67.978  1.00  0.00    -0.286 C  
BRANCH  12  13
HETATM   13  N   UNL     1     -10.054  10.004  68.207  1.00  0.00    -0.153 NA 
HETATM   14  C   UNL     1      -9.255   9.696  67.015  1.00  0.00    -0.142 C  
HETATM   15  C   UNL     1      -8.096   8.746  67.377  1.00  0.00    -0.105 C  
HETATM   16  C   UNL     1      -8.545   7.502  68.172  1.00  0.00    -0.123 C  
HETATM   17  C   UNL     1      -9.459   7.965  69.318  1.00  0.00    -0.152 C  
HETATM   18  C   UNL     1     -10.623   8.788  68.781  1.00  0.00    -0.145 C  
BRANCH  16  19
HETATM   19  C   UNL     1      -9.214   6.446  67.332  1.00  0.00    -0.117 A  
HETATM   20  N   UNL     1     -10.239   5.728  67.814  1.00  0.00    -0.173 NA 
HETATM   21  O   UNL     1     -10.492   4.746  66.878  1.00  0.00    -0.194 OA 
HETATM   22  C   UNL     1      -9.636   4.886  65.830  1.00  0.00    -0.175 A  
HETATM   23  C   UNL     1      -8.847   5.999  66.028  1.00  0.00    -0.159 A  
HETATM   24  C   UNL     1      -7.916   6.348  65.033  1.00  0.00    -0.120 A  
HETATM   25  C   UNL     1      -7.794   5.508  63.915  1.00  0.00    -0.100 A  
HETATM   26  C   UNL     1      -8.591   4.372  63.791  1.00  0.00    -0.122 A  
HETATM   27  C   UNL     1      -9.559   4.036  64.732  1.00  0.00    -0.178 A  
HETATM   28  F   UNL     1      -8.414   3.573  62.730  1.00  0.00    -0.078 F  
ENDBRANCH  16  19
ENDBRANCH  12  13
ENDBRANCH  11  12
ENDBRANCH  10  11
ENDBRANCH   9  10
ENDBRANCH   4   9
BRANCH   6  29
HETATM   29  C   UNL     1      -8.957  18.357  66.667  1.00  0.00    -0.289 C  
HETATM   30  O   UNL     1      -8.180  18.103  65.748  1.00  0.00    -0.509 OA 
HETATM   31  C   UNL     1      -9.103  19.765  67.189  1.00  0.00    -0.418 C  
ENDBRANCH   6  29
ENDBRANCH   2   3
TORSDOF 8
ENDMDL
MODEL      215
REMARK 921   NORMALIZED FREE ENERGY PREDICTED BY IDOCK:   -4.65 KCAL/MOL
REMARK 922        TOTAL FREE ENERGY PREDICTED BY IDOCK:   -7.61 KCAL/MOL
REMARK 923 INTER-LIGAND FREE ENERGY PREDICTED BY IDOCK:   -6.70 KCAL/MOL
REMARK 924 INTRA-LIGAND FREE ENERGY PREDICTED BY IDOCK:   -0.91 KCAL/MOL
REMARK 927      BINDING AFFINITY PREDICTED BY RF-SCORE:    0.00 PKD
ROOT
HETATM    1  C   UNL     1      -8.958   4.206  65.932  1.00  0.00    -0.126 C  
HETATM    2  O   UNL     1      -8.829   5.356  66.754  1.00  0.00    -0.113 OA 
ENDROOT
BRANCH   2   3
HETATM    3  C   UNL     1      -8.642   6.562  66.128  1.00  0.00    -0.145 A  
HETATM    4  C   UNL     1      -9.374   7.645  66.649  1.00  0.00    -0.190 A  
HETATM    5  C   UNL     1      -9.245   8.910  66.069  1.00  0.00    -0.287 A  
HETATM    6  C   UNL     1      -7.649   8.040  64.471  1.00  0.00    -0.114 A  
HETATM    7  C   UNL     1      -7.773   6.771  65.051  1.00  0.00    -0.108 A  
HETATM    8  C   UNL     1      -8.377   9.110  64.993  1.00  0.00    -0.165 A  
BRANCH   4   9
HETATM    9  O   UNL     1     -10.223   7.374  67.690  1.00  0.00    -0.171 OA 
BRANCH   9  10
HETATM   10  C   UNL     1     -11.001   8.449  68.216  1.00  0.00     0.216 C  
BRANCH  10  11
HETATM   11  C   UNL     1     -10.496   8.920  69.584  1.00  0.00    -0.218 C  
BRANCH  11  12
HETATM   12  C   UNL     1     -10.684  10.425  69.852  1.00  0.00    -0.279 C  
BRANCH  12  13
HETATM   13  N   UNL     1     -10.573  11.220  68.624  1.00  0.00    -0.193 NA 
HETATM   14  C   UNL     1      -9.344  12.020  68.563  1.00  0.00    -0.124 C  
HETATM   15  C   UNL     1      -9.188  12.657  67.167  1.00  0.00    -0.214 C  
HETATM   16  C   UNL     1     -10.450  13.404  66.687  1.00  0.00    -0.280 C  
HETATM   17  C   UNL     1     -11.667  12.490  66.911  1.00  0.00    -0.447 C  
HETATM   18  C   UNL     1     -11.747  12.048  68.366  1.00  0.00    -0.332 C  
BRANCH  16  19
HETATM   19  C   UNL     1     -10.650  14.749  67.334  1.00  0.00    -0.268 A  
HETATM   20  N   UNL     1     -11.637  14.949  68.220  1.00  0.00    -0.325 NA 
HETATM   21  O   UNL     1     -11.654  16.306  68.474  1.00  0.00    -0.346 OA 
HETATM   22  C   UNL     1     -10.670  16.914  67.758  1.00  0.00    -0.315 A  
HETATM   23  C   UNL     1      -9.948  15.963  67.071  1.00  0.00    -0.248 A  
HETATM   24  C   UNL     1      -8.850  16.382  66.297  1.00  0.00    -0.367 A  
HETATM   25  C   UNL     1      -8.584  17.757  66.215  1.00  0.00    -0.217 A  
HETATM   26  C   UNL     1      -9.376  18.676  66.900  1.00  0.00    -0.304 A  
HETATM   27  C   UNL     1     -10.431  18.283  67.717  1.00  0.00    -0.430 A  
HETATM   28  F   UNL     1      -9.115  19.983  66.762  1.00  0.00    -0.359 F  
ENDBRANCH  16  19
ENDBRANCH  12  13
ENDBRANCH  11  12
ENDBRANCH  10  11
ENDBRANCH   9  10
ENDBRANCH   4   9
BRANCH   6  29
HETATM   29  C   UNL     1      -6.733   8.197  63.309  1.00  0.00    -0.084 C  
HETATM   30  O   UNL     1      -6.386   7.201  62.675  1.00  0.00    -0.051 OA 
HETATM   31  C   UNL     1      -6.294   9.576  62.883  1.00  0.00    -0.100 C  
ENDBRANCH   6  29
ENDBRANCH   2   3
TORSDOF 8
ENDMDL
MODEL      216
REMARK 921   NORMALIZED FREE ENERGY PREDICTED BY IDOCK:   -4.64 KCAL/MOL
REMARK 922        TOTAL FREE ENERGY PREDICTED BY IDOCK:   -7.61 KCAL/MOL
REMARK 923 INTER-LIGAND FREE ENERGY PREDICTED BY IDOCK:   -5.76 KCAL/MOL
REMARK 924 INTRA-LIGAND FREE ENERGY PREDICTED BY IDOCK:   -1.85 KCAL/MOL
REMARK 927      BINDING AFFINITY PREDICTED BY RF-SCORE:    0.00 PKD
ROOT
HETATM    1  C   UNL     1      -9.815   3.710  71.460  1.00  0.00    -0.157 C  
HETATM    2  O   UNL     1      -9.970   4.164  70.124  1.00  0.00    -0.209 OA 
ENDROOT
BRANCH   2   3
HETATM    3  C   UNL     1     -10.165   5.509  69.932  1.00  0.00    -0.268 A  
HETATM    4  C   UNL     1      -9.326   6.122  68.984  1.00  0.00    -0.128 A  
HETATM    5  C   UNL     1      -9.455   7.489  68.728  1.00  0.00    -0.148 A  
HETATM    6  C   UNL     1     -11.260   7.643  70.333  1.00  0.00    -0.258 A  
HETATM    7  C   UNL     1     -11.137   6.271  70.590  1.00  0.00    -0.389 A  
HETATM    8  C   UNL     1     -10.426   8.245  69.390  1.00  0.00    -0.224 A  
BRANCH   4   9
HETATM    9  O   UNL     1      -8.382   5.327  68.387  1.00  0.00    -0.093 OA 
BRANCH   9  10
HETATM   10  C   UNL     1      -7.010   5.688  68.542  1.00  0.00    -0.064 C  
BRANCH  10  11
HETATM   11  C   UNL     1      -6.196   5.448  67.266  1.00  0.00    -0.031 C  
BRANCH  11  12
HETATM   12  C   UNL     1      -7.020   5.491  65.965  1.00  0.00    -0.066 C  
BRANCH  12  13
HETATM   13  N   UNL     1      -7.051   6.835  65.378  1.00  0.00    -0.062 NA 
HETATM   14  C   UNL     1      -6.036   7.734  65.941  1.00  0.00    -0.038 C  
HETATM   15  C   UNL     1      -5.980   9.049  65.139  1.00  0.00    -0.059 C  
HETATM   16  C   UNL     1      -7.362   9.706  64.938  1.00  0.00    -0.118 C  
HETATM   17  C   UNL     1      -8.344   8.627  64.453  1.00  0.00    -0.148 C  
HETATM   18  C   UNL     1      -8.373   7.451  65.419  1.00  0.00    -0.117 C  
BRANCH  16  19
HETATM   19  C   UNL     1      -7.888  10.415  66.158  1.00  0.00    -0.135 A  
HETATM   20  N   UNL     1      -7.211  10.392  67.316  1.00  0.00    -0.088 NA 
HETATM   21  O   UNL     1      -8.040  10.968  68.256  1.00  0.00    -0.115 OA 
HETATM   22  C   UNL     1      -9.202  11.353  67.661  1.00  0.00    -0.158 A  
HETATM   23  C   UNL     1      -9.133  11.095  66.310  1.00  0.00    -0.207 A  
HETATM   24  C   UNL     1     -10.224  11.460  65.499  1.00  0.00    -0.312 A  
HETATM   25  C   UNL     1     -11.355  12.012  66.120  1.00  0.00    -0.407 A  
HETATM   26  C   UNL     1     -11.382  12.212  67.499  1.00  0.00    -0.326 A  
HETATM   27  C   UNL     1     -10.295  11.913  68.314  1.00  0.00    -0.211 A  
HETATM   28  F   UNL     1     -12.496  12.703  68.058  1.00  0.00    -0.203 F  
ENDBRANCH  16  19
ENDBRANCH  12  13
ENDBRANCH  11  12
ENDBRANCH  10  11
ENDBRANCH   9  10
ENDBRANCH   4   9
BRANCH   6  29
HETATM   29  C   UNL     1     -12.290   8.411  71.084  1.00  0.00    -0.200 C  
HETATM   30  O   UNL     1     -13.253   7.816  71.566  1.00  0.00    -0.334 OA 
HETATM   31  C   UNL     1     -12.109   9.892  71.301  1.00  0.00    -0.485 C  
ENDBRANCH   6  29
ENDBRANCH   2   3
TORSDOF 8
ENDMDL
MODEL      217
REMARK 921   NORMALIZED FREE ENERGY PREDICTED BY IDOCK:   -4.62 KCAL/MOL
REMARK 922        TOTAL FREE ENERGY PREDICTED BY IDOCK:   -7.58 KCAL/MOL
REMARK 923 INTER-LIGAND FREE ENERGY PREDICTED BY IDOCK:   -6.88 KCAL/MOL
REMARK 924 INTRA-LIGAND FREE ENERGY PREDICTED BY IDOCK:   -0.70 KCAL/MOL
REMARK 927      BINDING AFFINITY PREDICTED BY RF-SCORE:    0.00 PKD
ROOT
HETATM    1  C   UNL     1     -10.968  15.770  65.496  1.00  0.00    -0.268 C  
HETATM    2  O   UNL     1     -11.149  14.728  66.444  1.00  0.00    -0.330 OA 
ENDROOT
BRANCH   2   3
HETATM    3  C   UNL     1     -10.912  15.025  67.762  1.00  0.00    -0.298 A  
HETATM    4  C   UNL     1      -9.561  15.165  68.128  1.00  0.00    -0.205 A  
HETATM    5  C   UNL     1      -9.230  15.466  69.451  1.00  0.00    -0.268 A  
HETATM    6  C   UNL     1     -11.574  15.513  70.051  1.00  0.00    -0.356 A  
HETATM    7  C   UNL     1     -11.911  15.215  68.724  1.00  0.00    -0.329 A  
HETATM    8  C   UNL     1     -10.232  15.652  70.407  1.00  0.00    -0.009 A  
BRANCH   4   9
HETATM    9  O   UNL     1      -8.629  14.948  67.145  1.00  0.00    -0.197 OA 
BRANCH   9  10
HETATM   10  C   UNL     1      -7.661  13.920  67.358  1.00  0.00    -0.148 C  
BRANCH  10  11
HETATM   11  C   UNL     1      -8.260  12.517  67.214  1.00  0.00    -0.184 C  
BRANCH  11  12
HETATM   12  C   UNL     1      -7.865  11.535  68.333  1.00  0.00    -0.136 C  
BRANCH  12  13
HETATM   13  N   UNL     1      -8.934  10.574  68.625  1.00  0.00    -0.153 NA 
HETATM   14  C   UNL     1      -8.733   9.853  69.887  1.00  0.00    -0.201 C  
HETATM   15  C   UNL     1      -9.986   9.025  70.238  1.00  0.00    -0.229 C  
HETATM   16  C   UNL     1     -10.482   8.138  69.077  1.00  0.00    -0.211 C  
HETATM   17  C   UNL     1     -10.540   8.996  67.803  1.00  0.00    -0.278 C  
HETATM   18  C   UNL     1      -9.189   9.645  67.528  1.00  0.00    -0.133 C  
BRANCH  16  19
HETATM   19  C   UNL     1      -9.660   6.894  68.861  1.00  0.00    -0.139 A  
HETATM   20  N   UNL     1      -8.617   6.609  69.655  1.00  0.00    -0.132 NA 
HETATM   21  O   UNL     1      -7.987   5.523  69.083  1.00  0.00    -0.092 OA 
HETATM   22  C   UNL     1      -8.660   5.145  67.962  1.00  0.00    -0.103 A  
HETATM   23  C   UNL     1      -9.779   5.935  67.811  1.00  0.00    -0.124 A  
HETATM   24  C   UNL     1     -10.641   5.679  66.730  1.00  0.00    -0.372 A  
HETATM   25  C   UNL     1     -10.283   4.671  65.822  1.00  0.00    -0.283 A  
HETATM   26  C   UNL     1      -9.116   3.932  66.004  1.00  0.00    -0.148 A  
HETATM   27  C   UNL     1      -8.277   4.127  67.096  1.00  0.00    -0.100 A  
HETATM   28  F   UNL     1      -8.788   3.007  65.092  1.00  0.00    -0.108 F  
ENDBRANCH  16  19
ENDBRANCH  12  13
ENDBRANCH  11  12
ENDBRANCH  10  11
ENDBRANCH   9  10
ENDBRANCH   4   9
BRANCH   6  29
HETATM   29  C   UNL     1     -12.676  15.674  71.038  1.00  0.00    -0.460 C  
HETATM   30  O   UNL     1     -13.835  15.454  70.690  1.00  0.00    -0.300 OA 
HETATM   31  C   UNL     1     -12.354  16.041  72.466  1.00  0.00    -0.584 C  
ENDBRANCH   6  29
ENDBRANCH   2   3
TORSDOF 8
ENDMDL
MODEL      218
REMARK 921   NORMALIZED FREE ENERGY PREDICTED BY IDOCK:   -4.61 KCAL/MOL
REMARK 922        TOTAL FREE ENERGY PREDICTED BY IDOCK:   -7.56 KCAL/MOL
REMARK 923 INTER-LIGAND FREE ENERGY PREDICTED BY IDOCK:   -7.03 KCAL/MOL
REMARK 924 INTRA-LIGAND FREE ENERGY PREDICTED BY IDOCK:   -0.53 KCAL/MOL
REMARK 927      BINDING AFFINITY PREDICTED BY RF-SCORE:    0.00 PKD
ROOT
HETATM    1  C   UNL     1      -8.128  16.612  68.708  1.00  0.00    -0.247 C  
HETATM    2  O   UNL     1      -9.458  16.883  68.291  1.00  0.00    -0.236 OA 
ENDROOT
BRANCH   2   3
HETATM    3  C   UNL     1     -10.459  16.117  68.835  1.00  0.00    -0.258 A  
HETATM    4  C   UNL     1     -10.938  15.068  68.029  1.00  0.00    -0.284 A  
HETATM    5  C   UNL     1     -11.957  14.241  68.505  1.00  0.00    -0.352 A  
HETATM    6  C   UNL     1     -12.018  15.473  70.587  1.00  0.00    -0.416 A  
HETATM    7  C   UNL     1     -10.993  16.304  70.115  1.00  0.00    -0.335 A  
HETATM    8  C   UNL     1     -12.487  14.434  69.784  1.00  0.00    -0.262 A  
BRANCH   4   9
HETATM    9  O   UNL     1     -10.389  14.949  66.779  1.00  0.00    -0.262 OA 
BRANCH   9  10
HETATM   10  C   UNL     1      -9.562  13.815  66.517  1.00  0.00    -0.285 C  
BRANCH  10  11
HETATM   11  C   UNL     1     -10.216  12.830  65.541  1.00  0.00    -0.293 C  
BRANCH  11  12
HETATM   12  C   UNL     1     -10.935  11.646  66.214  1.00  0.00    -0.289 C  
BRANCH  12  13
HETATM   13  N   UNL     1     -10.004  10.780  66.945  1.00  0.00    -0.193 NA 
HETATM   14  C   UNL     1      -8.795  10.456  66.177  1.00  0.00    -0.158 C  
HETATM   15  C   UNL     1      -7.772   9.728  67.072  1.00  0.00    -0.095 C  
HETATM   16  C   UNL     1      -8.368   8.533  67.843  1.00  0.00    -0.126 C  
HETATM   17  C   UNL     1      -9.680   8.988  68.503  1.00  0.00    -0.171 C  
HETATM   18  C   UNL     1     -10.631   9.569  67.465  1.00  0.00    -0.275 C  
BRANCH  16  19
HETATM   19  C   UNL     1      -8.579   7.302  67.000  1.00  0.00    -0.122 A  
HETATM   20  N   UNL     1      -9.814   6.843  66.745  1.00  0.00    -0.183 NA 
HETATM   21  O   UNL     1      -9.647   5.627  66.114  1.00  0.00    -0.158 OA 
HETATM   22  C   UNL     1      -8.319   5.367  65.974  1.00  0.00    -0.120 A  
HETATM   23  C   UNL     1      -7.589   6.433  66.451  1.00  0.00    -0.090 A  
HETATM   24  C   UNL     1      -6.186   6.382  66.359  1.00  0.00    -0.037 A  
HETATM   25  C   UNL     1      -5.598   5.218  65.842  1.00  0.00    -0.014 A  
HETATM   26  C   UNL     1      -6.388   4.154  65.413  1.00  0.00    -0.032 A  
HETATM   27  C   UNL     1      -7.778   4.202  65.440  1.00  0.00    -0.086 A  
HETATM   28  F   UNL     1      -5.787   3.043  64.964  1.00  0.00    -0.016 F  
ENDBRANCH  16  19
ENDBRANCH  12  13
ENDBRANCH  11  12
ENDBRANCH  10  11
ENDBRANCH   9  10
ENDBRANCH   4   9
BRANCH   6  29
HETATM   29  C   UNL     1     -12.569  15.737  71.944  1.00  0.00    -0.457 C  
HETATM   30  O   UNL     1     -11.884  16.344  72.766  1.00  0.00    -0.534 OA 
HETATM   31  C   UNL     1     -13.979  15.315  72.274  1.00  0.00    -0.646 C  
ENDBRANCH   6  29
ENDBRANCH   2   3
TORSDOF 8
ENDMDL
MODEL      219
REMARK 921   NORMALIZED FREE ENERGY PREDICTED BY IDOCK:   -4.61 KCAL/MOL
REMARK 922        TOTAL FREE ENERGY PREDICTED BY IDOCK:   -7.56 KCAL/MOL
REMARK 923 INTER-LIGAND FREE ENERGY PREDICTED BY IDOCK:   -7.09 KCAL/MOL
REMARK 924 INTRA-LIGAND FREE ENERGY PREDICTED BY IDOCK:   -0.47 KCAL/MOL
REMARK 927      BINDING AFFINITY PREDICTED BY RF-SCORE:    0.00 PKD
ROOT
HETATM    1  C   UNL     1      -7.215  15.377  67.543  1.00  0.00    -0.196 C  
HETATM    2  O   UNL     1      -7.966  15.705  66.383  1.00  0.00    -0.168 OA 
ENDROOT
BRANCH   2   3
HETATM    3  C   UNL     1      -8.436  16.990  66.278  1.00  0.00    -0.269 A  
HETATM    4  C   UNL     1      -9.825  17.124  66.102  1.00  0.00    -0.262 A  
HETATM    5  C   UNL     1     -10.388  18.397  65.984  1.00  0.00    -0.397 A  
HETATM    6  C   UNL     1      -8.205  19.410  66.236  1.00  0.00    -0.338 A  
HETATM    7  C   UNL     1      -7.636  18.136  66.359  1.00  0.00    -0.291 A  
HETATM    8  C   UNL     1      -9.583  19.537  66.063  1.00  0.00    -0.347 A  
BRANCH   4   9
HETATM    9  O   UNL     1     -10.551  15.964  66.011  1.00  0.00    -0.317 OA 
BRANCH   9  10
HETATM   10  C   UNL     1     -11.150  15.648  64.754  1.00  0.00    -0.412 C  
BRANCH  10  11
HETATM   11  C   UNL     1     -11.921  14.323  64.793  1.00  0.00    -0.449 C  
BRANCH  11  12
HETATM   12  C   UNL     1     -11.123  13.136  65.366  1.00  0.00    -0.278 C  
BRANCH  12  13
HETATM   13  N   UNL     1     -11.361  12.957  66.802  1.00  0.00    -0.305 NA 
HETATM   14  C   UNL     1     -10.236  13.402  67.633  1.00  0.00    -0.228 C  
HETATM   15  C   UNL     1     -10.631  13.387  69.124  1.00  0.00    -0.035 C  
HETATM   16  C   UNL     1     -11.261  12.055  69.579  1.00  0.00    -0.220 C  
HETATM   17  C   UNL     1     -12.343  11.658  68.561  1.00  0.00     0.329 C  
HETATM   18  C   UNL     1     -11.762  11.598  67.154  1.00  0.00    -0.133 C  
BRANCH  16  19
HETATM   19  C   UNL     1     -10.266  10.942  69.781  1.00  0.00     0.129 A  
HETATM   20  N   UNL     1      -9.092  10.940  69.132  1.00  0.00    -0.101 NA 
HETATM   21  O   UNL     1      -8.512   9.716  69.396  1.00  0.00    -0.131 OA 
HETATM   22  C   UNL     1      -9.325   8.995  70.214  1.00  0.00    -0.198 A  
HETATM   23  C   UNL     1     -10.423   9.754  70.555  1.00  0.00    -0.366 A  
HETATM   24  C   UNL     1     -11.373   9.204  71.435  1.00  0.00    -0.414 A  
HETATM   25  C   UNL     1     -11.185   7.884  71.873  1.00  0.00    -0.320 A  
HETATM   26  C   UNL     1     -10.074   7.151  71.461  1.00  0.00    -0.186 A  
HETATM   27  C   UNL     1      -9.091   7.691  70.637  1.00  0.00    -0.158 A  
HETATM   28  F   UNL     1      -9.953   5.880  71.867  1.00  0.00    -0.181 F  
ENDBRANCH  16  19
ENDBRANCH  12  13
ENDBRANCH  11  12
ENDBRANCH  10  11
ENDBRANCH   9  10
ENDBRANCH   4   9
BRANCH   6  29
HETATM   29  C   UNL     1      -7.303  20.593  66.299  1.00  0.00    -0.072 C  
HETATM   30  O   UNL     1      -7.402  21.379  67.239  1.00  0.00    -0.496 OA 
HETATM   31  C   UNL     1      -6.238  20.777  65.246  1.00  0.00    -0.279 C  
ENDBRANCH   6  29
ENDBRANCH   2   3
TORSDOF 8
ENDMDL
MODEL      220
REMARK 921   NORMALIZED FREE ENERGY PREDICTED BY IDOCK:   -4.58 KCAL/MOL
REMARK 922        TOTAL FREE ENERGY PREDICTED BY IDOCK:   -7.52 KCAL/MOL
REMARK 923 INTER-LIGAND FREE ENERGY PREDICTED BY IDOCK:   -6.99 KCAL/MOL
REMARK 924 INTRA-LIGAND FREE ENERGY PREDICTED BY IDOCK:   -0.53 KCAL/MOL
REMARK 927      BINDING AFFINITY PREDICTED BY RF-SCORE:    0.00 PKD
ROOT
HETATM    1  C   UNL     1     -12.111  14.921  70.533  1.00  0.00    -0.320 C  
HETATM    2  O   UNL     1     -11.997  14.582  69.158  1.00  0.00    -0.313 OA 
ENDROOT
BRANCH   2   3
HETATM    3  C   UNL     1     -11.180  15.364  68.381  1.00  0.00    -0.315 A  
HETATM    4  C   UNL     1     -10.611  14.733  67.259  1.00  0.00    -0.273 A  
HETATM    5  C   UNL     1      -9.764  15.455  66.415  1.00  0.00    -0.311 A  
HETATM    6  C   UNL     1     -10.058  17.435  67.776  1.00  0.00    -0.323 A  
HETATM    7  C   UNL     1     -10.911  16.716  68.624  1.00  0.00    -0.344 A  
HETATM    8  C   UNL     1      -9.498  16.804  66.665  1.00  0.00    -0.275 A  
BRANCH   4   9
HETATM    9  O   UNL     1     -10.897  13.403  67.087  1.00  0.00    -0.271 OA 
BRANCH   9  10
HETATM   10  C   UNL     1      -9.945  12.601  66.389  1.00  0.00    -0.255 C  
BRANCH  10  11
HETATM   11  C   UNL     1      -9.665  11.274  67.104  1.00  0.00    -0.201 C  
BRANCH  11  12
HETATM   12  C   UNL     1      -9.952  10.019  66.260  1.00  0.00    -0.245 C  
BRANCH  12  13
HETATM   13  N   UNL     1     -10.492   8.922  67.070  1.00  0.00    -0.273 NA 
HETATM   14  C   UNL     1     -10.452   9.196  68.512  1.00  0.00    -0.204 C  
HETATM   15  C   UNL     1     -11.222   8.108  69.286  1.00  0.00     0.271 C  
HETATM   16  C   UNL     1     -10.807   6.672  68.907  1.00  0.00    -0.326 C  
HETATM   17  C   UNL     1     -10.788   6.563  67.373  1.00  0.00    -0.449 C  
HETATM   18  C   UNL     1      -9.884   7.630  66.769  1.00  0.00    -0.237 C  
BRANCH  16  19
HETATM   19  C   UNL     1      -9.494   6.235  69.502  1.00  0.00    -0.141 A  
HETATM   20  N   UNL     1      -8.520   5.729  68.730  1.00  0.00    -0.107 NA 
HETATM   21  O   UNL     1      -7.547   5.270  69.594  1.00  0.00    -0.067 OA 
HETATM   22  C   UNL     1      -7.926   5.517  70.877  1.00  0.00    -0.105 A  
HETATM   23  C   UNL     1      -9.123   6.198  70.880  1.00  0.00    -0.155 A  
HETATM   24  C   UNL     1      -9.672   6.589  72.114  1.00  0.00    -0.157 A  
HETATM   25  C   UNL     1      -9.002   6.209  73.287  1.00  0.00    -0.129 A  
HETATM   26  C   UNL     1      -7.814   5.484  73.223  1.00  0.00    -0.104 A  
HETATM   27  C   UNL     1      -7.221   5.135  72.014  1.00  0.00    -0.085 A  
HETATM   28  F   UNL     1      -7.227   5.104  74.366  1.00  0.00    -0.077 F  
ENDBRANCH  16  19
ENDBRANCH  12  13
ENDBRANCH  11  12
ENDBRANCH  10  11
ENDBRANCH   9  10
ENDBRANCH   4   9
BRANCH   6  29
HETATM   29  C   UNL     1      -9.783  18.862  68.099  1.00  0.00    -0.347 C  
HETATM   30  O   UNL     1      -8.902  19.137  68.912  1.00  0.00    -0.349 OA 
HETATM   31  C   UNL     1     -10.542  19.951  67.382  1.00  0.00    -0.505 C  
ENDBRANCH   6  29
ENDBRANCH   2   3
TORSDOF 8
ENDMDL
MODEL      221
REMARK 921   NORMALIZED FREE ENERGY PREDICTED BY IDOCK:   -4.58 KCAL/MOL
REMARK 922        TOTAL FREE ENERGY PREDICTED BY IDOCK:   -7.52 KCAL/MOL
REMARK 923 INTER-LIGAND FREE ENERGY PREDICTED BY IDOCK:   -6.69 KCAL/MOL
REMARK 924 INTRA-LIGAND FREE ENERGY PREDICTED BY IDOCK:   -0.83 KCAL/MOL
REMARK 927      BINDING AFFINITY PREDICTED BY RF-SCORE:    0.00 PKD
ROOT
HETATM    1  C   UNL     1      -8.878  10.532  68.280  1.00  0.00    -0.139 C  
HETATM    2  O   UNL     1      -9.217   9.633  67.233  1.00  0.00    -0.133 OA 
ENDROOT
BRANCH   2   3
HETATM    3  C   UNL     1      -9.633  10.178  66.044  1.00  0.00    -0.210 A  
HETATM    4  C   UNL     1      -8.976   9.710  64.891  1.00  0.00    -0.217 A  
HETATM    5  C   UNL     1      -9.336  10.213  63.639  1.00  0.00    -0.336 A  
HETATM    6  C   UNL     1     -11.013  11.626  64.662  1.00  0.00    -0.363 A  
HETATM    7  C   UNL     1     -10.658  11.123  65.920  1.00  0.00    -0.294 A  
HETATM    8  C   UNL     1     -10.359  11.158  63.522  1.00  0.00    -0.446 A  
BRANCH   4   9
HETATM    9  O   UNL     1      -7.968   8.800  65.080  1.00  0.00    -0.111 OA 
BRANCH   9  10
HETATM   10  C   UNL     1      -7.462   8.116  63.934  1.00  0.00    -0.116 C  
BRANCH  10  11
HETATM   11  C   UNL     1      -7.791   6.619  63.956  1.00  0.00    -0.112 C  
BRANCH  11  12
HETATM   12  C   UNL     1      -7.211   5.855  65.162  1.00  0.00    -0.066 C  
BRANCH  12  13
HETATM   13  N   UNL     1      -8.264   5.289  66.012  1.00  0.00    -0.113 NA 
HETATM   14  C   UNL     1      -9.034   6.309  66.733  1.00  0.00    -0.125 C  
HETATM   15  C   UNL     1     -10.250   5.668  67.432  1.00  0.00    -0.249 C  
HETATM   16  C   UNL     1      -9.890   4.433  68.283  1.00  0.00    -0.132 C  
HETATM   17  C   UNL     1      -8.996   3.509  67.440  1.00  0.00    -0.168 C  
HETATM   18  C   UNL     1      -7.775   4.262  66.927  1.00  0.00    -0.093 C  
BRANCH  16  19
HETATM   19  C   UNL     1      -9.243   4.764  69.603  1.00  0.00    -0.122 A  
HETATM   20  N   UNL     1      -8.175   4.078  70.039  1.00  0.00    -0.057 NA 
HETATM   21  O   UNL     1      -7.951   4.503  71.333  1.00  0.00    -0.083 OA 
HETATM   22  C   UNL     1      -8.867   5.453  71.664  1.00  0.00    -0.135 A  
HETATM   23  C   UNL     1      -9.670   5.716  70.576  1.00  0.00    -0.233 A  
HETATM   24  C   UNL     1     -10.663   6.705  70.696  1.00  0.00    -0.286 A  
HETATM   25  C   UNL     1     -10.826   7.332  71.941  1.00  0.00    -0.255 A  
HETATM   26  C   UNL     1     -10.010   6.994  73.019  1.00  0.00    -0.196 A  
HETATM   27  C   UNL     1      -8.984   6.061  72.909  1.00  0.00    -0.125 A  
HETATM   28  F   UNL     1     -10.226   7.585  74.202  1.00  0.00    -0.296 F  
ENDBRANCH  16  19
ENDBRANCH  12  13
ENDBRANCH  11  12
ENDBRANCH  10  11
ENDBRANCH   9  10
ENDBRANCH   4   9
BRANCH   6  29
HETATM   29  C   UNL     1     -12.089  12.652  64.592  1.00  0.00    -0.420 C  
HETATM   30  O   UNL     1     -13.234  12.349  64.921  1.00  0.00    -0.714 OA 
HETATM   31  C   UNL     1     -11.751  14.064  64.182  1.00  0.00    -0.340 C  
ENDBRANCH   6  29
ENDBRANCH   2   3
TORSDOF 8
ENDMDL
MODEL      222
REMARK 921   NORMALIZED FREE ENERGY PREDICTED BY IDOCK:   -4.57 KCAL/MOL
REMARK 922        TOTAL FREE ENERGY PREDICTED BY IDOCK:   -7.50 KCAL/MOL
REMARK 923 INTER-LIGAND FREE ENERGY PREDICTED BY IDOCK:   -7.50 KCAL/MOL
REMARK 924 INTRA-LIGAND FREE ENERGY PREDICTED BY IDOCK:    0.00 KCAL/MOL
REMARK 927      BINDING AFFINITY PREDICTED BY RF-SCORE:    0.00 PKD
ROOT
HETATM    1  C   UNL     1     -10.221  10.319  67.041  1.00  0.00    -0.228 C  
HETATM    2  O   UNL     1      -9.427  11.447  67.381  1.00  0.00    -0.165 OA 
ENDROOT
BRANCH   2   3
HETATM    3  C   UNL     1     -10.073  12.646  67.546  1.00  0.00    -0.212 A  
HETATM    4  C   UNL     1     -11.074  12.675  68.535  1.00  0.00    -0.266 A  
HETATM    5  C   UNL     1     -11.782  13.856  68.768  1.00  0.00    -0.392 A  
HETATM    6  C   UNL     1     -10.497  14.991  67.061  1.00  0.00    -0.278 A  
HETATM    7  C   UNL     1      -9.781  13.810  66.826  1.00  0.00    -0.277 A  
HETATM    8  C   UNL     1     -11.487  15.013  68.043  1.00  0.00    -0.357 A  
BRANCH   4   9
HETATM    9  O   UNL     1     -11.326  11.499  69.193  1.00  0.00    -0.239 OA 
BRANCH   9  10
HETATM   10  C   UNL     1     -11.684  11.569  70.573  1.00  0.00    -0.150 C  
BRANCH  10  11
HETATM   11  C   UNL     1     -13.007  10.852  70.869  1.00  0.00    -0.347 C  
BRANCH  11  12
HETATM   12  C   UNL     1     -12.849   9.417  71.406  1.00  0.00    -0.345 C  
BRANCH  12  13
HETATM   13  N   UNL     1     -11.443   9.010  71.483  1.00  0.00    -0.310 NA 
HETATM   14  C   UNL     1     -10.977   8.313  70.278  1.00  0.00    -0.232 C  
HETATM   15  C   UNL     1      -9.450   8.106  70.335  1.00  0.00    -0.163 C  
HETATM   16  C   UNL     1      -8.963   7.474  71.656  1.00  0.00    -0.137 C  
HETATM   17  C   UNL     1      -9.614   8.234  72.824  1.00  0.00    -0.338 C  
HETATM   18  C   UNL     1     -11.130   8.240  72.684  1.00  0.00    -0.330 C  
BRANCH  16  19
HETATM   19  C   UNL     1      -9.218   5.993  71.758  1.00  0.00    -0.145 A  
HETATM   20  N   UNL     1      -9.236   5.376  72.949  1.00  0.00    -0.135 NA 
HETATM   21  O   UNL     1      -9.310   4.025  72.678  1.00  0.00    -0.114 OA 
HETATM   22  C   UNL     1      -9.355   3.833  71.332  1.00  0.00    -0.138 A  
HETATM   23  C   UNL     1      -9.376   5.054  70.694  1.00  0.00    -0.216 A  
HETATM   24  C   UNL     1      -9.465   5.079  69.291  1.00  0.00    -0.197 A  
HETATM   25  C   UNL     1      -9.465   3.854  68.606  1.00  0.00    -0.217 A  
HETATM   26  C   UNL     1      -9.400   2.650  69.304  1.00  0.00    -0.118 A  
HETATM   27  C   UNL     1      -9.369   2.598  70.694  1.00  0.00    -0.215 A  
HETATM   28  F   UNL     1      -9.360   1.504  68.611  1.00  0.00    -0.143 F  
ENDBRANCH  16  19
ENDBRANCH  12  13
ENDBRANCH  11  12
ENDBRANCH  10  11
ENDBRANCH   9  10
ENDBRANCH   4   9
BRANCH   6  29
HETATM   29  C   UNL     1     -10.165  16.190  66.243  1.00  0.00    -0.320 C  
HETATM   30  O   UNL     1     -10.073  16.080  65.021  1.00  0.00    -0.463 OA 
HETATM   31  C   UNL     1     -10.010  17.533  66.912  1.00  0.00    -0.313 C  
ENDBRANCH   6  29
ENDBRANCH   2   3
TORSDOF 8
ENDMDL
MODEL      223
REMARK 921   NORMALIZED FREE ENERGY PREDICTED BY IDOCK:   -4.56 KCAL/MOL
REMARK 922        TOTAL FREE ENERGY PREDICTED BY IDOCK:   -7.48 KCAL/MOL
REMARK 923 INTER-LIGAND FREE ENERGY PREDICTED BY IDOCK:   -6.78 KCAL/MOL
REMARK 924 INTRA-LIGAND FREE ENERGY PREDICTED BY IDOCK:   -0.71 KCAL/MOL
REMARK 927      BINDING AFFINITY PREDICTED BY RF-SCORE:    0.00 PKD
ROOT
HETATM    1  C   UNL     1     -10.296   8.039  66.805  1.00  0.00    -0.290 C  
HETATM    2  O   UNL     1     -10.265   9.338  66.231  1.00  0.00    -0.273 OA 
ENDROOT
BRANCH   2   3
HETATM    3  C   UNL     1      -9.451   9.528  65.142  1.00  0.00    -0.236 A  
HETATM    4  C   UNL     1      -9.846  10.541  64.249  1.00  0.00    -0.338 A  
HETATM    5  C   UNL     1      -9.076  10.800  63.113  1.00  0.00    -0.276 A  
HETATM    6  C   UNL     1      -7.509   9.071  63.753  1.00  0.00    -0.107 A  
HETATM    7  C   UNL     1      -8.276   8.809  64.896  1.00  0.00    -0.160 A  
HETATM    8  C   UNL     1      -7.905  10.077  62.872  1.00  0.00    -0.140 A  
BRANCH   4   9
HETATM    9  O   UNL     1     -11.016  11.196  64.535  1.00  0.00    -0.300 OA 
BRANCH   9  10
HETATM   10  C   UNL     1     -11.652  11.919  63.481  1.00  0.00    -0.441 C  
BRANCH  10  11
HETATM   11  C   UNL     1     -12.377  13.171  63.988  1.00  0.00    -0.425 C  
BRANCH  11  12
HETATM   12  C   UNL     1     -11.508  14.443  64.019  1.00  0.00     0.072 C  
BRANCH  12  13
HETATM   13  N   UNL     1     -11.015  14.738  65.368  1.00  0.00    -0.338 NA 
HETATM   14  C   UNL     1     -10.907  16.176  65.641  1.00  0.00    -0.238 C  
HETATM   15  C   UNL     1     -10.592  16.417  67.131  1.00  0.00    -0.276 C  
HETATM   16  C   UNL     1      -9.400  15.587  67.651  1.00  0.00    -0.203 C  
HETATM   17  C   UNL     1      -9.593  14.129  67.199  1.00  0.00    -0.244 C  
HETATM   18  C   UNL     1      -9.767  14.052  65.688  1.00  0.00    -0.151 C  
BRANCH  16  19
HETATM   19  C   UNL     1      -8.054  16.115  67.230  1.00  0.00    -0.175 A  
HETATM   20  N   UNL     1      -6.939  15.392  67.416  1.00  0.00    -0.194 NA 
HETATM   21  O   UNL     1      -5.886  16.224  67.096  1.00  0.00    -0.249 OA 
HETATM   22  C   UNL     1      -6.367  17.434  66.702  1.00  0.00    -0.214 A  
HETATM   23  C   UNL     1      -7.744  17.401  66.694  1.00  0.00    -0.293 A  
HETATM   24  C   UNL     1      -8.442  18.547  66.273  1.00  0.00    -0.227 A  
HETATM   25  C   UNL     1      -7.699  19.691  65.942  1.00  0.00    -0.307 A  
HETATM   26  C   UNL     1      -6.307  19.678  66.009  1.00  0.00    -0.189 A  
HETATM   27  C   UNL     1      -5.592  18.539  66.367  1.00  0.00    -0.179 A  
HETATM   28  F   UNL     1      -5.636  20.802  65.725  1.00  0.00    -0.206 F  
ENDBRANCH  16  19
ENDBRANCH  12  13
ENDBRANCH  11  12
ENDBRANCH  10  11
ENDBRANCH   9  10
ENDBRANCH   4   9
BRANCH   6  29
HETATM   29  C   UNL     1      -6.285   8.255  63.525  1.00  0.00    -0.073 C  
HETATM   30  O   UNL     1      -6.032   7.322  64.285  1.00  0.00    -0.036 OA 
HETATM   31  C   UNL     1      -5.407   8.540  62.332  1.00  0.00    -0.071 C  
ENDBRANCH   6  29
ENDBRANCH   2   3
TORSDOF 8
ENDMDL
MODEL      224
REMARK 921   NORMALIZED FREE ENERGY PREDICTED BY IDOCK:   -4.55 KCAL/MOL
REMARK 922        TOTAL FREE ENERGY PREDICTED BY IDOCK:   -7.47 KCAL/MOL
REMARK 923 INTER-LIGAND FREE ENERGY PREDICTED BY IDOCK:   -6.44 KCAL/MOL
REMARK 924 INTRA-LIGAND FREE ENERGY PREDICTED BY IDOCK:   -1.03 KCAL/MOL
REMARK 927      BINDING AFFINITY PREDICTED BY RF-SCORE:    0.00 PKD
ROOT
HETATM    1  C   UNL     1     -10.140   8.634  66.149  1.00  0.00    -0.035 C  
HETATM    2  O   UNL     1      -9.123   9.342  66.843  1.00  0.00    -0.128 OA 
ENDROOT
BRANCH   2   3
HETATM    3  C   UNL     1      -9.041   9.158  68.201  1.00  0.00    -0.132 A  
HETATM    4  C   UNL     1      -7.883   9.663  68.820  1.00  0.00    -0.081 A  
HETATM    5  C   UNL     1      -7.717   9.518  70.199  1.00  0.00    -0.161 A  
HETATM    6  C   UNL     1      -9.852   8.392  70.361  1.00  0.00    -0.194 A  
HETATM    7  C   UNL     1     -10.025   8.538  68.979  1.00  0.00    -0.197 A  
HETATM    8  C   UNL     1      -8.703   8.896  70.969  1.00  0.00    -0.276 A  
BRANCH   4   9
HETATM    9  O   UNL     1      -6.947  10.242  68.002  1.00  0.00    -0.079 OA 
BRANCH   9  10
HETATM   10  C   UNL     1      -5.831  10.887  68.616  1.00  0.00    -0.043 C  
BRANCH  10  11
HETATM   11  C   UNL     1      -5.572  12.282  68.033  1.00  0.00    -0.064 C  
BRANCH  11  12
HETATM   12  C   UNL     1      -5.369  13.387  69.086  1.00  0.00    -0.073 C  
BRANCH  12  13
HETATM   13  N   UNL     1      -6.425  14.404  69.026  1.00  0.00    -0.093 NA 
HETATM   14  C   UNL     1      -7.774  13.844  69.173  1.00  0.00     0.109 C  
HETATM   15  C   UNL     1      -8.811  14.976  69.316  1.00  0.00    -0.157 C  
HETATM   16  C   UNL     1      -8.694  16.059  68.223  1.00  0.00    -0.177 C  
HETATM   17  C   UNL     1      -7.217  16.469  68.105  1.00  0.00    -0.156 C  
HETATM   18  C   UNL     1      -6.340  15.253  67.842  1.00  0.00    -0.157 C  
BRANCH  16  19
HETATM   19  C   UNL     1      -9.255  15.646  66.888  1.00  0.00    -0.236 A  
HETATM   20  N   UNL     1      -9.002  16.361  65.781  1.00  0.00    -0.444 NA 
HETATM   21  O   UNL     1      -9.798  15.826  64.789  1.00  0.00    -0.138 OA 
HETATM   22  C   UNL     1     -10.511  14.783  65.293  1.00  0.00    -0.404 A  
HETATM   23  C   UNL     1     -10.152  14.572  66.606  1.00  0.00    -0.275 A  
HETATM   24  C   UNL     1     -10.747  13.505  67.303  1.00  0.00    -0.272 A  
HETATM   25  C   UNL     1     -11.725  12.746  66.642  1.00  0.00    -0.459 A  
HETATM   26  C   UNL     1     -12.077  13.033  65.325  1.00  0.00    -0.441 A  
HETATM   27  C   UNL     1     -11.463  14.046  64.596  1.00  0.00    -0.389 A  
HETATM   28  F   UNL     1     -13.045  12.312  64.744  1.00  0.00    -0.520 F  
ENDBRANCH  16  19
ENDBRANCH  12  13
ENDBRANCH  11  12
ENDBRANCH  10  11
ENDBRANCH   9  10
ENDBRANCH   4   9
BRANCH   6  29
HETATM   29  C   UNL     1     -10.918   7.697  71.134  1.00  0.00    -0.246 C  
HETATM   30  O   UNL     1     -12.079   8.097  71.056  1.00  0.00    -0.286 OA 
HETATM   31  C   UNL     1     -10.574   6.476  71.951  1.00  0.00    -0.239 C  
ENDBRANCH   6  29
ENDBRANCH   2   3
TORSDOF 8
ENDMDL
MODEL      225
REMARK 921   NORMALIZED FREE ENERGY PREDICTED BY IDOCK:   -4.55 KCAL/MOL
REMARK 922        TOTAL FREE ENERGY PREDICTED BY IDOCK:   -7.47 KCAL/MOL
REMARK 923 INTER-LIGAND FREE ENERGY PREDICTED BY IDOCK:   -6.44 KCAL/MOL
REMARK 924 INTRA-LIGAND FREE ENERGY PREDICTED BY IDOCK:   -1.03 KCAL/MOL
REMARK 927      BINDING AFFINITY PREDICTED BY RF-SCORE:    0.00 PKD
ROOT
HETATM    1  C   UNL     1     -10.184  14.420  66.160  1.00  0.00    -0.306 C  
HETATM    2  O   UNL     1     -11.457  13.945  66.573  1.00  0.00    -0.324 OA 
ENDROOT
BRANCH   2   3
HETATM    3  C   UNL     1     -11.644  13.727  67.915  1.00  0.00    -0.341 A  
HETATM    4  C   UNL     1     -11.796  12.383  68.304  1.00  0.00    -0.309 A  
HETATM    5  C   UNL     1     -11.994  12.071  69.651  1.00  0.00    -0.360 A  
HETATM    6  C   UNL     1     -11.869  14.416  70.236  1.00  0.00    -0.382 A  
HETATM    7  C   UNL     1     -11.667  14.734  68.887  1.00  0.00    -0.340 A  
HETATM    8  C   UNL     1     -12.018  13.082  70.615  1.00  0.00    -0.224 A  
BRANCH   4   9
HETATM    9  O   UNL     1     -11.785  11.446  67.304  1.00  0.00    -0.577 OA 
BRANCH   9  10
HETATM   10  C   UNL     1     -11.006  10.265  67.504  1.00  0.00    -0.280 C  
BRANCH  10  11
HETATM   11  C   UNL     1      -9.502  10.559  67.548  1.00  0.00    -0.166 C  
BRANCH  11  12
HETATM   12  C   UNL     1      -8.814  10.576  66.170  1.00  0.00    -0.159 C  
BRANCH  12  13
HETATM   13  N   UNL     1      -7.992   9.382  65.952  1.00  0.00    -0.105 NA 
HETATM   14  C   UNL     1      -8.559   8.465  64.956  1.00  0.00    -0.106 C  
HETATM   15  C   UNL     1      -7.550   7.348  64.619  1.00  0.00    -0.105 C  
HETATM   16  C   UNL     1      -6.972   6.645  65.864  1.00  0.00    -0.061 C  
HETATM   17  C   UNL     1      -6.519   7.724  66.862  1.00  0.00    -0.055 C  
HETATM   18  C   UNL     1      -7.666   8.673  67.186  1.00  0.00    -0.096 C  
BRANCH  16  19
HETATM   19  C   UNL     1      -7.916   5.665  66.510  1.00  0.00    -0.101 A  
HETATM   20  N   UNL     1      -9.129   5.429  65.989  1.00  0.00    -0.152 NA 
HETATM   21  O   UNL     1      -9.792   4.638  66.905  1.00  0.00    -0.183 OA 
HETATM   22  C   UNL     1      -8.975   4.386  67.963  1.00  0.00    -0.119 A  
HETATM   23  C   UNL     1      -7.739   4.951  67.733  1.00  0.00    -0.083 A  
HETATM   24  C   UNL     1      -6.728   4.770  68.694  1.00  0.00    -0.050 A  
HETATM   25  C   UNL     1      -7.048   4.072  69.869  1.00  0.00    -0.042 A  
HETATM   26  C   UNL     1      -8.328   3.558  70.063  1.00  0.00    -0.052 A  
HETATM   27  C   UNL     1      -9.329   3.675  69.104  1.00  0.00    -0.244 A  
HETATM   28  F   UNL     1      -8.605   2.936  71.217  1.00  0.00    -0.071 F  
ENDBRANCH  16  19
ENDBRANCH  12  13
ENDBRANCH  11  12
ENDBRANCH  10  11
ENDBRANCH   9  10
ENDBRANCH   4   9
BRANCH   6  29
HETATM   29  C   UNL     1     -11.915  15.530  71.222  1.00  0.00    -0.388 C  
HETATM   30  O   UNL     1     -11.487  16.638  70.902  1.00  0.00    -0.214 OA 
HETATM   31  C   UNL     1     -12.541  15.305  72.576  1.00  0.00    -0.446 C  
ENDBRANCH   6  29
ENDBRANCH   2   3
TORSDOF 8
ENDMDL
MODEL      226
REMARK 921   NORMALIZED FREE ENERGY PREDICTED BY IDOCK:   -4.54 KCAL/MOL
REMARK 922        TOTAL FREE ENERGY PREDICTED BY IDOCK:   -7.46 KCAL/MOL
REMARK 923 INTER-LIGAND FREE ENERGY PREDICTED BY IDOCK:   -6.88 KCAL/MOL
REMARK 924 INTRA-LIGAND FREE ENERGY PREDICTED BY IDOCK:   -0.58 KCAL/MOL
REMARK 927      BINDING AFFINITY PREDICTED BY RF-SCORE:    0.00 PKD
ROOT
HETATM    1  C   UNL     1     -10.319  10.713  65.769  1.00  0.00    -0.219 C  
HETATM    2  O   UNL     1     -10.784  11.614  66.763  1.00  0.00    -0.237 OA 
ENDROOT
BRANCH   2   3
HETATM    3  C   UNL     1     -10.113  12.803  66.901  1.00  0.00    -0.232 A  
HETATM    4  C   UNL     1      -8.997  12.782  67.758  1.00  0.00    -0.190 A  
HETATM    5  C   UNL     1      -8.257  13.950  67.958  1.00  0.00    -0.161 A  
HETATM    6  C   UNL     1      -9.710  15.157  66.445  1.00  0.00    -0.300 A  
HETATM    7  C   UNL     1     -10.453  13.987  66.239  1.00  0.00    -0.286 A  
HETATM    8  C   UNL     1      -8.604  15.130  67.295  1.00  0.00    -0.218 A  
BRANCH   4   9
HETATM    9  O   UNL     1      -8.727  11.598  68.393  1.00  0.00    -0.158 OA 
BRANCH   9  10
HETATM   10  C   UNL     1      -7.384  11.358  68.816  1.00  0.00    -0.114 C  
BRANCH  10  11
HETATM   11  C   UNL     1      -7.038   9.864  68.836  1.00  0.00    -0.071 C  
BRANCH  11  12
HETATM   12  C   UNL     1      -5.847   9.497  69.741  1.00  0.00    -0.036 C  
BRANCH  12  13
HETATM   13  N   UNL     1      -6.225   8.538  70.784  1.00  0.00    -0.033 NA 
HETATM   14  C   UNL     1      -6.259   7.150  70.308  1.00  0.00    -0.030 C  
HETATM   15  C   UNL     1      -6.450   6.181  71.493  1.00  0.00    -0.050 C  
HETATM   16  C   UNL     1      -7.628   6.560  72.413  1.00  0.00    -0.095 C  
HETATM   17  C   UNL     1      -7.524   8.059  72.740  1.00  0.00    -0.145 C  
HETATM   18  C   UNL     1      -7.470   8.886  71.463  1.00  0.00    -0.050 C  
BRANCH  16  19
HETATM   19  C   UNL     1      -8.982   6.216  71.849  1.00  0.00    -0.140 A  
HETATM   20  N   UNL     1      -9.138   5.182  71.009  1.00  0.00    -0.142 NA 
HETATM   21  O   UNL     1     -10.437   5.256  70.548  1.00  0.00    -0.264 OA 
HETATM   22  C   UNL     1     -11.063   6.318  71.124  1.00  0.00    -0.298 A  
HETATM   23  C   UNL     1     -10.210   6.924  72.020  1.00  0.00    -0.206 A  
HETATM   24  C   UNL     1     -10.681   8.025  72.758  1.00  0.00    -0.431 A  
HETATM   25  C   UNL     1     -11.979   8.490  72.498  1.00  0.00    -0.401 A  
HETATM   26  C   UNL     1     -12.782   7.861  71.549  1.00  0.00    -0.322 A  
HETATM   27  C   UNL     1     -12.360   6.737  70.847  1.00  0.00    -0.336 A  
HETATM   28  F   UNL     1     -13.999   8.362  71.300  1.00  0.00    -0.371 F  
ENDBRANCH  16  19
ENDBRANCH  12  13
ENDBRANCH  11  12
ENDBRANCH  10  11
ENDBRANCH   9  10
ENDBRANCH   4   9
BRANCH   6  29
HETATM   29  C   UNL     1     -10.136  16.396  65.738  1.00  0.00    -0.327 C  
HETATM   30  O   UNL     1     -10.795  16.304  64.703  1.00  0.00    -0.687 OA 
HETATM   31  C   UNL     1      -9.812  17.745  66.330  1.00  0.00    -0.328 C  
ENDBRANCH   6  29
ENDBRANCH   2   3
TORSDOF 8
ENDMDL
MODEL      227
REMARK 921   NORMALIZED FREE ENERGY PREDICTED BY IDOCK:   -4.46 KCAL/MOL
REMARK 922        TOTAL FREE ENERGY PREDICTED BY IDOCK:   -7.34 KCAL/MOL
REMARK 923 INTER-LIGAND FREE ENERGY PREDICTED BY IDOCK:   -6.78 KCAL/MOL
REMARK 924 INTRA-LIGAND FREE ENERGY PREDICTED BY IDOCK:   -0.56 KCAL/MOL
REMARK 927      BINDING AFFINITY PREDICTED BY RF-SCORE:    0.00 PKD
ROOT
HETATM    1  C   UNL     1     -11.419  10.610  69.099  1.00  0.00    -0.280 C  
HETATM    2  O   UNL     1     -11.814  11.698  68.277  1.00  0.00    -0.445 OA 
ENDROOT
BRANCH   2   3
HETATM    3  C   UNL     1     -11.166  11.850  67.077  1.00  0.00    -0.323 A  
HETATM    4  C   UNL     1     -11.193  13.143  66.523  1.00  0.00    -0.310 A  
HETATM    5  C   UNL     1     -10.560  13.386  65.302  1.00  0.00    -0.333 A  
HETATM    6  C   UNL     1      -9.850  11.076  65.184  1.00  0.00    -0.319 A  
HETATM    7  C   UNL     1     -10.481  10.828  66.410  1.00  0.00    -0.293 A  
HETATM    8  C   UNL     1      -9.880  12.360  64.640  1.00  0.00    -0.101 A  
BRANCH   4   9
HETATM    9  O   UNL     1     -11.896  14.097  67.214  1.00  0.00    -0.379 OA 
BRANCH   9  10
HETATM   10  C   UNL     1     -11.835  15.443  66.743  1.00  0.00     0.258 C  
BRANCH  10  11
HETATM   11  C   UNL     1     -10.791  16.277  67.496  1.00  0.00    -0.268 C  
BRANCH  11  12
HETATM   12  C   UNL     1     -10.475  17.639  66.851  1.00  0.00    -0.290 C  
BRANCH  12  13
HETATM   13  N   UNL     1      -9.062  18.002  66.999  1.00  0.00    -0.253 NA 
HETATM   14  C   UNL     1      -8.150  16.871  66.789  1.00  0.00    -0.241 C  
HETATM   15  C   UNL     1      -6.689  17.361  66.747  1.00  0.00    -0.248 C  
HETATM   16  C   UNL     1      -6.307  18.264  67.938  1.00  0.00    -0.190 C  
HETATM   17  C   UNL     1      -7.402  19.331  68.105  1.00  0.00    -0.316 C  
HETATM   18  C   UNL     1      -8.770  18.680  68.259  1.00  0.00    -0.323 C  
BRANCH  16  19
HETATM   19  C   UNL     1      -6.071  17.517  69.224  1.00  0.00    -0.232 A  
HETATM   20  N   UNL     1      -5.604  18.146  70.312  1.00  0.00    -0.242 NA 
HETATM   21  O   UNL     1      -5.334  17.159  71.239  1.00  0.00    -0.148 OA 
HETATM   22  C   UNL     1      -5.656  15.945  70.715  1.00  0.00    -0.009 A  
HETATM   23  C   UNL     1      -6.201  16.116  69.462  1.00  0.00    -0.181 A  
HETATM   24  C   UNL     1      -6.643  14.979  68.760  1.00  0.00    -0.094 A  
HETATM   25  C   UNL     1      -6.448  13.720  69.349  1.00  0.00    -0.111 A  
HETATM   26  C   UNL     1      -5.851  13.608  70.603  1.00  0.00    -0.179 A  
HETATM   27  C   UNL     1      -5.458  14.720  71.341  1.00  0.00    -0.075 A  
HETATM   28  F   UNL     1      -5.644  12.386  71.112  1.00  0.00    -0.162 F  
ENDBRANCH  16  19
ENDBRANCH  12  13
ENDBRANCH  11  12
ENDBRANCH  10  11
ENDBRANCH   9  10
ENDBRANCH   4   9
BRANCH   6  29
HETATM   29  C   UNL     1      -9.164   9.944  64.504  1.00  0.00    -0.261 C  
HETATM   30  O   UNL     1      -8.859   8.945  65.153  1.00  0.00    -0.195 OA 
HETATM   31  C   UNL     1      -8.909  10.007  63.018  1.00  0.00    -0.237 C  
ENDBRANCH   6  29
ENDBRANCH   2   3
TORSDOF 8
ENDMDL
MODEL      228
REMARK 921   NORMALIZED FREE ENERGY PREDICTED BY IDOCK:   -4.46 KCAL/MOL
REMARK 922        TOTAL FREE ENERGY PREDICTED BY IDOCK:   -7.34 KCAL/MOL
REMARK 923 INTER-LIGAND FREE ENERGY PREDICTED BY IDOCK:   -6.16 KCAL/MOL
REMARK 924 INTRA-LIGAND FREE ENERGY PREDICTED BY IDOCK:   -1.19 KCAL/MOL
REMARK 927      BINDING AFFINITY PREDICTED BY RF-SCORE:    0.00 PKD
ROOT
HETATM    1  C   UNL     1      -7.940   9.787  64.762  1.00  0.00    -0.138 C  
HETATM    2  O   UNL     1      -7.919   9.165  66.039  1.00  0.00    -0.101 OA 
ENDROOT
BRANCH   2   3
HETATM    3  C   UNL     1      -7.147   9.748  67.012  1.00  0.00    -0.086 A  
HETATM    4  C   UNL     1      -6.568   8.868  67.946  1.00  0.00    -0.061 A  
HETATM    5  C   UNL     1      -5.769   9.377  68.971  1.00  0.00    -0.036 A  
HETATM    6  C   UNL     1      -6.093  11.626  68.140  1.00  0.00    -0.046 A  
HETATM    7  C   UNL     1      -6.894  11.121  67.107  1.00  0.00    -0.107 A  
HETATM    8  C   UNL     1      -5.522  10.750  69.062  1.00  0.00    -0.040 A  
BRANCH   4   9
HETATM    9  O   UNL     1      -6.870   7.538  67.811  1.00  0.00    -0.066 OA 
BRANCH   9  10
HETATM   10  C   UNL     1      -6.909   6.738  68.993  1.00  0.00    -0.069 C  
BRANCH  10  11
HETATM   11  C   UNL     1      -8.302   6.156  69.257  1.00  0.00    -0.116 C  
BRANCH  11  12
HETATM   12  C   UNL     1      -9.142   6.945  70.279  1.00  0.00    -0.153 C  
BRANCH  12  13
HETATM   13  N   UNL     1      -9.616   8.221  69.731  1.00  0.00    -0.170 NA 
HETATM   14  C   UNL     1      -9.057   9.389  70.423  1.00  0.00    -0.256 C  
HETATM   15  C   UNL     1      -9.422  10.683  69.669  1.00  0.00     0.063 C  
HETATM   16  C   UNL     1     -10.926  10.803  69.345  1.00  0.00    -0.305 C  
HETATM   17  C   UNL     1     -11.395   9.475  68.729  1.00  0.00     0.166 C  
HETATM   18  C   UNL     1     -11.071   8.309  69.653  1.00  0.00    -0.001 C  
BRANCH  16  19
HETATM   19  C   UNL     1     -11.779  11.191  70.524  1.00  0.00    -0.293 A  
HETATM   20  N   UNL     1     -12.347  10.257  71.302  1.00  0.00    -0.371 NA 
HETATM   21  O   UNL     1     -13.190  10.934  72.159  1.00  0.00    -0.474 OA 
HETATM   22  C   UNL     1     -13.115  12.269  71.910  1.00  0.00    -0.363 A  
HETATM   23  C   UNL     1     -12.175  12.501  70.929  1.00  0.00    -0.277 A  
HETATM   24  C   UNL     1     -11.911  13.829  70.551  1.00  0.00    -0.367 A  
HETATM   25  C   UNL     1     -12.666  14.851  71.149  1.00  0.00    -0.411 A  
HETATM   26  C   UNL     1     -13.633  14.551  72.105  1.00  0.00    -0.419 A  
HETATM   27  C   UNL     1     -13.873  13.251  72.538  1.00  0.00    -0.554 A  
HETATM   28  F   UNL     1     -14.362  15.551  72.622  1.00  0.00    -0.575 F  
ENDBRANCH  16  19
ENDBRANCH  12  13
ENDBRANCH  11  12
ENDBRANCH  10  11
ENDBRANCH   9  10
ENDBRANCH   4   9
BRANCH   6  29
HETATM   29  C   UNL     1      -5.883  13.099  68.211  1.00  0.00    -0.087 C  
HETATM   30  O   UNL     1      -5.451  13.694  67.226  1.00  0.00    -0.333 OA 
HETATM   31  C   UNL     1      -6.261  13.849  69.464  1.00  0.00    -0.115 C  
ENDBRANCH   6  29
ENDBRANCH   2   3
TORSDOF 8
ENDMDL
MODEL      229
REMARK 921   NORMALIZED FREE ENERGY PREDICTED BY IDOCK:   -4.46 KCAL/MOL
REMARK 922        TOTAL FREE ENERGY PREDICTED BY IDOCK:   -7.34 KCAL/MOL
REMARK 923 INTER-LIGAND FREE ENERGY PREDICTED BY IDOCK:   -6.29 KCAL/MOL
REMARK 924 INTRA-LIGAND FREE ENERGY PREDICTED BY IDOCK:   -1.04 KCAL/MOL
REMARK 927      BINDING AFFINITY PREDICTED BY RF-SCORE:    0.00 PKD
ROOT
HETATM    1  C   UNL     1     -12.252  12.003  70.017  1.00  0.00    -0.206 C  
HETATM    2  O   UNL     1     -11.326  12.947  69.502  1.00  0.00    -0.230 OA 
ENDROOT
BRANCH   2   3
HETATM    3  C   UNL     1     -11.466  13.317  68.187  1.00  0.00    -0.312 A  
HETATM    4  C   UNL     1     -11.705  14.685  67.956  1.00  0.00    -0.342 A  
HETATM    5  C   UNL     1     -11.862  15.147  66.648  1.00  0.00     0.038 A  
HETATM    6  C   UNL     1     -11.526  12.909  65.791  1.00  0.00    -0.376 A  
HETATM    7  C   UNL     1     -11.364  12.441  67.101  1.00  0.00    -0.390 A  
HETATM    8  C   UNL     1     -11.761  14.266  65.568  1.00  0.00    -0.353 A  
BRANCH   4   9
HETATM    9  O   UNL     1     -11.813  15.489  69.061  1.00  0.00    -0.361 OA 
BRANCH   9  10
HETATM   10  C   UNL     1     -10.831  16.509  69.244  1.00  0.00    -0.326 C  
BRANCH  10  11
HETATM   11  C   UNL     1      -9.681  16.398  68.237  1.00  0.00    -0.224 C  
BRANCH  11  12
HETATM   12  C   UNL     1      -8.380  17.097  68.672  1.00  0.00    -0.257 C  
BRANCH  12  13
HETATM   13  N   UNL     1      -7.277  16.146  68.849  1.00  0.00    -0.165 NA 
HETATM   14  C   UNL     1      -6.663  15.734  67.581  1.00  0.00    -0.172 C  
HETATM   15  C   UNL     1      -5.386  14.911  67.846  1.00  0.00    -0.099 C  
HETATM   16  C   UNL     1      -5.594  13.758  68.850  1.00  0.00    -0.078 C  
HETATM   17  C   UNL     1      -6.341  14.312  70.074  1.00  0.00    -0.150 C  
HETATM   18  C   UNL     1      -7.641  14.984  69.654  1.00  0.00    -0.140 C  
BRANCH  16  19
HETATM   19  C   UNL     1      -6.304  12.562  68.272  1.00  0.00    -0.062 A  
HETATM   20  N   UNL     1      -6.585  12.492  66.962  1.00  0.00    -0.113 NA 
HETATM   21  O   UNL     1      -7.382  11.377  66.801  1.00  0.00    -0.141 OA 
HETATM   22  C   UNL     1      -7.563  10.770  68.005  1.00  0.00    -0.092 A  
HETATM   23  C   UNL     1      -6.838  11.436  68.968  1.00  0.00    -0.102 A  
HETATM   24  C   UNL     1      -6.854  10.941  70.285  1.00  0.00     0.107 A  
HETATM   25  C   UNL     1      -7.661   9.827  70.563  1.00  0.00    -0.094 A  
HETATM   26  C   UNL     1      -8.406   9.220  69.554  1.00  0.00    -0.131 A  
HETATM   27  C   UNL     1      -8.362   9.655  68.234  1.00  0.00    -0.117 A  
HETATM   28  F   UNL     1      -9.196   8.185  69.869  1.00  0.00    -0.148 F  
ENDBRANCH  16  19
ENDBRANCH  12  13
ENDBRANCH  11  12
ENDBRANCH  10  11
ENDBRANCH   9  10
ENDBRANCH   4   9
BRANCH   6  29
HETATM   29  C   UNL     1     -11.438  11.926  64.676  1.00  0.00    -0.279 C  
HETATM   30  O   UNL     1     -10.648  10.987  64.761  1.00  0.00    -0.319 OA 
HETATM   31  C   UNL     1     -12.360  12.057  63.489  1.00  0.00    -0.661 C  
ENDBRANCH   6  29
ENDBRANCH   2   3
TORSDOF 8
ENDMDL
MODEL      230
REMARK 921   NORMALIZED FREE ENERGY PREDICTED BY IDOCK:   -4.45 KCAL/MOL
REMARK 922        TOTAL FREE ENERGY PREDICTED BY IDOCK:   -7.32 KCAL/MOL
REMARK 923 INTER-LIGAND FREE ENERGY PREDICTED BY IDOCK:   -6.82 KCAL/MOL
REMARK 924 INTRA-LIGAND FREE ENERGY PREDICTED BY IDOCK:   -0.50 KCAL/MOL
REMARK 927      BINDING AFFINITY PREDICTED BY RF-SCORE:    0.00 PKD
ROOT
HETATM    1  C   UNL     1     -11.031  15.076  66.359  1.00  0.00    -0.336 C  
HETATM    2  O   UNL     1     -10.452  14.073  67.180  1.00  0.00    -0.267 OA 
ENDROOT
BRANCH   2   3
HETATM    3  C   UNL     1     -11.105  13.755  68.344  1.00  0.00    -0.263 A  
HETATM    4  C   UNL     1     -11.171  12.384  68.656  1.00  0.00    -0.271 A  
HETATM    5  C   UNL     1     -11.820  11.971  69.822  1.00  0.00    -0.401 A  
HETATM    6  C   UNL     1     -12.320  14.271  70.386  1.00  0.00    -0.419 A  
HETATM    7  C   UNL     1     -11.667  14.690  69.220  1.00  0.00    -0.348 A  
HETATM    8  C   UNL     1     -12.381  12.911  70.691  1.00  0.00    -0.385 A  
BRANCH   4   9
HETATM    9  O   UNL     1     -10.619  11.516  67.749  1.00  0.00    -0.181 OA 
BRANCH   9  10
HETATM   10  C   UNL     1      -9.208  11.304  67.802  1.00  0.00    -0.156 C  
BRANCH  10  11
HETATM   11  C   UNL     1      -8.825  10.168  68.758  1.00  0.00    -0.146 C  
BRANCH  11  12
HETATM   12  C   UNL     1      -7.520  10.402  69.540  1.00  0.00    -0.148 C  
BRANCH  12  13
HETATM   13  N   UNL     1      -6.911   9.144  69.983  1.00  0.00    -0.044 NA 
HETATM   14  C   UNL     1      -7.728   7.966  69.671  1.00  0.00    -0.103 C  
HETATM   15  C   UNL     1      -6.941   6.673  69.966  1.00  0.00    -0.062 C  
HETATM   16  C   UNL     1      -6.309   6.646  71.373  1.00  0.00    -0.042 C  
HETATM   17  C   UNL     1      -5.581   7.981  71.602  1.00  0.00    -0.035 C  
HETATM   18  C   UNL     1      -6.528   9.154  71.392  1.00  0.00    -0.067 C  
BRANCH  16  19
HETATM   19  C   UNL     1      -7.289   6.361  72.481  1.00  0.00    -0.087 A  
HETATM   20  N   UNL     1      -7.056   6.780  73.734  1.00  0.00    -0.079 NA 
HETATM   21  O   UNL     1      -8.036   6.207  74.518  1.00  0.00    -0.116 OA 
HETATM   22  C   UNL     1      -8.865   5.462  73.736  1.00  0.00    -0.124 A  
HETATM   23  C   UNL     1      -8.484   5.583  72.418  1.00  0.00    -0.118 A  
HETATM   24  C   UNL     1      -9.242   4.921  71.435  1.00  0.00    -0.188 A  
HETATM   25  C   UNL     1     -10.314   4.118  71.855  1.00  0.00    -0.112 A  
HETATM   26  C   UNL     1     -10.626   4.001  73.208  1.00  0.00    -0.189 A  
HETATM   27  C   UNL     1      -9.928   4.691  74.194  1.00  0.00    -0.209 A  
HETATM   28  F   UNL     1     -11.630   3.192  73.571  1.00  0.00    -0.320 F  
ENDBRANCH  16  19
ENDBRANCH  12  13
ENDBRANCH  11  12
ENDBRANCH  10  11
ENDBRANCH   9  10
ENDBRANCH   4   9
BRANCH   6  29
HETATM   29  C   UNL     1     -12.927  15.308  71.265  1.00  0.00    -0.441 C  
HETATM   30  O   UNL     1     -14.142  15.490  71.232  1.00  0.00    -0.548 OA 
HETATM   31  C   UNL     1     -12.055  16.075  72.228  1.00  0.00    -0.617 C  
ENDBRANCH   6  29
ENDBRANCH   2   3
TORSDOF 8
ENDMDL
MODEL      231
REMARK 921   NORMALIZED FREE ENERGY PREDICTED BY IDOCK:   -4.45 KCAL/MOL
REMARK 922        TOTAL FREE ENERGY PREDICTED BY IDOCK:   -7.32 KCAL/MOL
REMARK 923 INTER-LIGAND FREE ENERGY PREDICTED BY IDOCK:   -6.90 KCAL/MOL
REMARK 924 INTRA-LIGAND FREE ENERGY PREDICTED BY IDOCK:   -0.42 KCAL/MOL
REMARK 927      BINDING AFFINITY PREDICTED BY RF-SCORE:    0.00 PKD
ROOT
HETATM    1  C   UNL     1     -12.336  14.101  66.244  1.00  0.00    -0.422 C  
HETATM    2  O   UNL     1     -11.544  13.124  66.903  1.00  0.00    -0.330 OA 
ENDROOT
BRANCH   2   3
HETATM    3  C   UNL     1     -11.825  12.867  68.221  1.00  0.00    -0.330 A  
HETATM    4  C   UNL     1     -11.874  11.508  68.585  1.00  0.00    -0.318 A  
HETATM    5  C   UNL     1     -12.156  11.157  69.907  1.00  0.00    -0.418 A  
HETATM    6  C   UNL     1     -12.319  13.492  70.518  1.00  0.00    -0.412 A  
HETATM    7  C   UNL     1     -12.034  13.850  69.194  1.00  0.00    -0.404 A  
HETATM    8  C   UNL     1     -12.366  12.144  70.873  1.00  0.00    -0.370 A  
BRANCH   4   9
HETATM    9  O   UNL     1     -11.681  10.593  67.583  1.00  0.00    -0.480 OA 
BRANCH   9  10
HETATM   10  C   UNL     1     -10.337  10.256  67.236  1.00  0.00    -0.232 C  
BRANCH  10  11
HETATM   11  C   UNL     1      -9.990   8.806  67.592  1.00  0.00    -0.247 C  
BRANCH  11  12
HETATM   12  C   UNL     1      -8.787   8.651  68.541  1.00  0.00    -0.142 C  
BRANCH  12  13
HETATM   13  N   UNL     1      -8.217   7.301  68.491  1.00  0.00    -0.124 NA 
HETATM   14  C   UNL     1      -9.183   6.253  68.844  1.00  0.00    -0.123 C  
HETATM   15  C   UNL     1      -8.588   4.859  68.566  1.00  0.00    -0.099 C  
HETATM   16  C   UNL     1      -7.186   4.655  69.177  1.00  0.00    -0.052 C  
HETATM   17  C   UNL     1      -6.320   5.874  68.819  1.00  0.00    -0.037 C  
HETATM   18  C   UNL     1      -6.992   7.164  69.272  1.00  0.00    -0.070 C  
BRANCH  16  19
HETATM   19  C   UNL     1      -7.195   4.409  70.664  1.00  0.00    -0.045 A  
HETATM   20  N   UNL     1      -6.100   4.629  71.407  1.00  0.00    -0.017 NA 
HETATM   21  O   UNL     1      -6.387   4.140  72.665  1.00  0.00    -0.016 OA 
HETATM   22  C   UNL     1      -7.654   3.646  72.682  1.00  0.00    -0.060 A  
HETATM   23  C   UNL     1      -8.246   3.857  71.456  1.00  0.00    -0.076 A  
HETATM   24  C   UNL     1      -9.582   3.455  71.276  1.00  0.00    -0.232 A  
HETATM   25  C   UNL     1     -10.226   2.800  72.337  1.00  0.00    -0.209 A  
HETATM   26  C   UNL     1      -9.561   2.577  73.541  1.00  0.00    -0.087 A  
HETATM   27  C   UNL     1      -8.260   3.016  73.764  1.00  0.00    -0.073 A  
HETATM   28  F   UNL     1     -10.196   1.911  74.515  1.00  0.00    -0.125 F  
ENDBRANCH  16  19
ENDBRANCH  12  13
ENDBRANCH  11  12
ENDBRANCH  10  11
ENDBRANCH   9  10
ENDBRANCH   4   9
BRANCH   6  29
HETATM   29  C   UNL     1     -12.563  14.580  71.505  1.00  0.00    -0.348 C  
HETATM   30  O   UNL     1     -11.613  15.060  72.121  1.00  0.00    -0.388 OA 
HETATM   31  C   UNL     1     -13.958  15.124  71.689  1.00  0.00    -0.618 C  
ENDBRANCH   6  29
ENDBRANCH   2   3
TORSDOF 8
ENDMDL
MODEL      232
REMARK 921   NORMALIZED FREE ENERGY PREDICTED BY IDOCK:   -4.45 KCAL/MOL
REMARK 922        TOTAL FREE ENERGY PREDICTED BY IDOCK:   -7.32 KCAL/MOL
REMARK 923 INTER-LIGAND FREE ENERGY PREDICTED BY IDOCK:   -6.14 KCAL/MOL
REMARK 924 INTRA-LIGAND FREE ENERGY PREDICTED BY IDOCK:   -1.18 KCAL/MOL
REMARK 927      BINDING AFFINITY PREDICTED BY RF-SCORE:    0.00 PKD
ROOT
HETATM    1  C   UNL     1     -10.424   5.407  69.100  1.00  0.00    -0.207 C  
HETATM    2  O   UNL     1     -10.669   6.730  69.556  1.00  0.00    -0.226 OA 
ENDROOT
BRANCH   2   3
HETATM    3  C   UNL     1     -10.161   7.080  70.782  1.00  0.00    -0.194 A  
HETATM    4  C   UNL     1     -10.954   7.953  71.549  1.00  0.00    -0.231 A  
HETATM    5  C   UNL     1     -10.511   8.361  72.809  1.00  0.00    -0.231 A  
HETATM    6  C   UNL     1      -8.508   7.027  72.564  1.00  0.00    -0.123 A  
HETATM    7  C   UNL     1      -8.949   6.611  71.301  1.00  0.00    -0.144 A  
HETATM    8  C   UNL     1      -9.298   7.891  73.321  1.00  0.00    -0.351 A  
BRANCH   4   9
HETATM    9  O   UNL     1     -12.120   8.392  70.978  1.00  0.00    -0.279 OA 
BRANCH   9  10
HETATM   10  C   UNL     1     -12.493   9.755  71.184  1.00  0.00    -0.350 C  
BRANCH  10  11
HETATM   11  C   UNL     1     -12.350  10.596  69.910  1.00  0.00    -0.304 C  
BRANCH  11  12
HETATM   12  C   UNL     1     -12.002  12.076  70.157  1.00  0.00    -0.321 C  
BRANCH  12  13
HETATM   13  N   UNL     1     -11.165  12.630  69.088  1.00  0.00    -0.258 NA 
HETATM   14  C   UNL     1     -11.880  12.778  67.814  1.00  0.00    -0.332 C  
HETATM   15  C   UNL     1     -11.016  13.558  66.802  1.00  0.00    -0.297 C  
HETATM   16  C   UNL     1      -9.584  13.003  66.659  1.00  0.00    -0.259 C  
HETATM   17  C   UNL     1      -9.003  12.796  68.068  1.00  0.00    -0.196 C  
HETATM   18  C   UNL     1      -9.913  11.903  68.901  1.00  0.00    -0.006 C  
BRANCH  16  19
HETATM   19  C   UNL     1      -9.493  11.741  65.840  1.00  0.00    -0.223 A  
HETATM   20  N   UNL     1     -10.479  11.391  65.000  1.00  0.00    -0.290 NA 
HETATM   21  O   UNL     1     -10.170  10.122  64.556  1.00  0.00    -0.256 OA 
HETATM   22  C   UNL     1      -8.995   9.720  65.112  1.00  0.00    -0.197 A  
HETATM   23  C   UNL     1      -8.478  10.739  65.881  1.00  0.00    -0.166 A  
HETATM   24  C   UNL     1      -7.238  10.541  66.515  1.00  0.00    -0.124 A  
HETATM   25  C   UNL     1      -6.619   9.289  66.382  1.00  0.00    -0.067 A  
HETATM   26  C   UNL     1      -7.211   8.281  65.624  1.00  0.00    -0.071 A  
HETATM   27  C   UNL     1      -8.408   8.471  64.941  1.00  0.00    -0.171 A  
HETATM   28  F   UNL     1      -6.608   7.086  65.556  1.00  0.00    -0.046 F  
ENDBRANCH  16  19
ENDBRANCH  12  13
ENDBRANCH  11  12
ENDBRANCH  10  11
ENDBRANCH   9  10
ENDBRANCH   4   9
BRANCH   6  29
HETATM   29  C   UNL     1      -7.196   6.520  73.053  1.00  0.00    -0.081 C  
HETATM   30  O   UNL     1      -6.326   7.323  73.389  1.00  0.00    -0.063 OA 
HETATM   31  C   UNL     1      -6.972   5.035  73.191  1.00  0.00    -0.079 C  
ENDBRANCH   6  29
ENDBRANCH   2   3
TORSDOF 8
ENDMDL
MODEL      233
REMARK 921   NORMALIZED FREE ENERGY PREDICTED BY IDOCK:   -4.44 KCAL/MOL
REMARK 922        TOTAL FREE ENERGY PREDICTED BY IDOCK:   -7.32 KCAL/MOL
REMARK 923 INTER-LIGAND FREE ENERGY PREDICTED BY IDOCK:   -6.23 KCAL/MOL
REMARK 924 INTRA-LIGAND FREE ENERGY PREDICTED BY IDOCK:   -1.09 KCAL/MOL
REMARK 927      BINDING AFFINITY PREDICTED BY RF-SCORE:    0.00 PKD
ROOT
HETATM    1  C   UNL     1     -11.505  15.493  70.102  1.00  0.00    -0.327 C  
HETATM    2  O   UNL     1     -12.012  14.784  68.981  1.00  0.00    -0.305 OA 
ENDROOT
BRANCH   2   3
HETATM    3  C   UNL     1     -11.842  13.422  68.965  1.00  0.00    -0.335 A  
HETATM    4  C   UNL     1     -11.318  12.882  67.776  1.00  0.00    -0.299 A  
HETATM    5  C   UNL     1     -11.115  11.504  67.674  1.00  0.00    -0.324 A  
HETATM    6  C   UNL     1     -11.927  11.193  69.932  1.00  0.00    -0.439 A  
HETATM    7  C   UNL     1     -12.130  12.575  70.041  1.00  0.00    -0.337 A  
HETATM    8  C   UNL     1     -11.406  10.663  68.752  1.00  0.00    -0.339 A  
BRANCH   4   9
HETATM    9  O   UNL     1     -11.075  13.761  66.753  1.00  0.00    -0.300 OA 
BRANCH   9  10
HETATM   10  C   UNL     1      -9.715  14.052  66.431  1.00  0.00    -0.296 C  
BRANCH  10  11
HETATM   11  C   UNL     1      -8.803  14.013  67.663  1.00  0.00    -0.190 C  
BRANCH  11  12
HETATM   12  C   UNL     1      -7.311  13.803  67.347  1.00  0.00    -0.107 C  
BRANCH  12  13
HETATM   13  N   UNL     1      -6.818  12.517  67.849  1.00  0.00    -0.092 NA 
HETATM   14  C   UNL     1      -6.200  11.689  66.806  1.00  0.00    -0.123 C  
HETATM   15  C   UNL     1      -5.517  10.457  67.434  1.00  0.00    -0.041 C  
HETATM   16  C   UNL     1      -6.429   9.674  68.402  1.00  0.00    -0.052 C  
HETATM   17  C   UNL     1      -7.089  10.678  69.362  1.00  0.00    -0.120 C  
HETATM   18  C   UNL     1      -7.826  11.761  68.586  1.00  0.00    -0.117 C  
BRANCH  16  19
HETATM   19  C   UNL     1      -7.459   8.815  67.716  1.00  0.00    -0.093 A  
HETATM   20  N   UNL     1      -8.717   8.745  68.176  1.00  0.00    -0.134 NA 
HETATM   21  O   UNL     1      -9.336   7.752  67.446  1.00  0.00    -0.137 OA 
HETATM   22  C   UNL     1      -8.461   7.242  66.538  1.00  0.00    -0.125 A  
HETATM   23  C   UNL     1      -7.270   7.931  66.611  1.00  0.00    -0.084 A  
HETATM   24  C   UNL     1      -6.237   7.585  65.722  1.00  0.00    -0.038 A  
HETATM   25  C   UNL     1      -6.450   6.511  64.844  1.00  0.00    -0.041 A  
HETATM   26  C   UNL     1      -7.662   5.824  64.845  1.00  0.00    -0.095 A  
HETATM   27  C   UNL     1      -8.719   6.183  65.675  1.00  0.00    -0.133 A  
HETATM   28  F   UNL     1      -7.811   4.777  64.022  1.00  0.00    -0.073 F  
ENDBRANCH  16  19
ENDBRANCH  12  13
ENDBRANCH  11  12
ENDBRANCH  10  11
ENDBRANCH   9  10
ENDBRANCH   4   9
BRANCH   6  29
HETATM   29  C   UNL     1     -12.279  10.336  71.097  1.00  0.00    -0.397 C  
HETATM   30  O   UNL     1     -13.427  10.359  71.539  1.00  0.00    -0.309 OA 
HETATM   31  C   UNL     1     -11.245   9.404  71.680  1.00  0.00    -0.431 C  
ENDBRANCH   6  29
ENDBRANCH   2   3
TORSDOF 8
ENDMDL
MODEL      234
REMARK 921   NORMALIZED FREE ENERGY PREDICTED BY IDOCK:   -4.44 KCAL/MOL
REMARK 922        TOTAL FREE ENERGY PREDICTED BY IDOCK:   -7.31 KCAL/MOL
REMARK 923 INTER-LIGAND FREE ENERGY PREDICTED BY IDOCK:   -5.95 KCAL/MOL
REMARK 924 INTRA-LIGAND FREE ENERGY PREDICTED BY IDOCK:   -1.37 KCAL/MOL
REMARK 927      BINDING AFFINITY PREDICTED BY RF-SCORE:    0.00 PKD
ROOT
HETATM    1  C   UNL     1     -11.289   6.423  69.011  1.00  0.00    -0.255 C  
HETATM    2  O   UNL     1     -10.705   5.145  68.810  1.00  0.00    -0.064 OA 
ENDROOT
BRANCH   2   3
HETATM    3  C   UNL     1      -9.829   4.694  69.765  1.00  0.00    -0.226 A  
HETATM    4  C   UNL     1      -8.669   4.058  69.284  1.00  0.00    -0.082 A  
HETATM    5  C   UNL     1      -7.724   3.567  70.188  1.00  0.00    -0.047 A  
HETATM    6  C   UNL     1      -9.060   4.352  72.047  1.00  0.00    -0.159 A  
HETATM    7  C   UNL     1     -10.009   4.849  71.144  1.00  0.00    -0.278 A  
HETATM    8  C   UNL     1      -7.913   3.724  71.564  1.00  0.00    -0.065 A  
BRANCH   4   9
HETATM    9  O   UNL     1      -8.559   3.919  67.925  1.00  0.00    -0.093 OA 
BRANCH   9  10
HETATM   10  C   UNL     1      -8.315   5.094  67.151  1.00  0.00    -0.107 C  
BRANCH  10  11
HETATM   11  C   UNL     1      -7.127   5.905  67.682  1.00  0.00    -0.074 C  
BRANCH  11  12
HETATM   12  C   UNL     1      -6.797   7.167  66.863  1.00  0.00    -0.072 C  
BRANCH  12  13
HETATM   13  N   UNL     1      -7.189   8.394  67.563  1.00  0.00    -0.087 NA 
HETATM   14  C   UNL     1      -6.440   8.615  68.806  1.00  0.00    -0.053 C  
HETATM   15  C   UNL     1      -6.744  10.015  69.374  1.00  0.00    -0.060 C  
HETATM   16  C   UNL     1      -8.253  10.320  69.485  1.00  0.00    -0.165 C  
HETATM   17  C   UNL     1      -8.922   9.941  68.154  1.00  0.00    -0.118 C  
HETATM   18  C   UNL     1      -8.627   8.490  67.797  1.00  0.00    -0.134 C  
BRANCH  16  19
HETATM   19  C   UNL     1      -8.931   9.646  70.649  1.00  0.00    -0.041 A  
HETATM   20  N   UNL     1      -8.233   8.896  71.515  1.00  0.00    -0.306 NA 
HETATM   21  O   UNL     1      -9.165   8.290  72.334  1.00  0.00    -0.206 OA 
HETATM   22  C   UNL     1     -10.414   8.690  71.973  1.00  0.00    -0.352 A  
HETATM   23  C   UNL     1     -10.325   9.613  70.954  1.00  0.00    -0.334 A  
HETATM   24  C   UNL     1     -11.510  10.188  70.461  1.00  0.00    -0.417 A  
HETATM   25  C   UNL     1     -12.731   9.744  70.991  1.00  0.00    -0.392 A  
HETATM   26  C   UNL     1     -12.761   8.776  71.993  1.00  0.00    -0.387 A  
HETATM   27  C   UNL     1     -11.601   8.235  72.537  1.00  0.00    -0.454 A  
HETATM   28  F   UNL     1     -13.948   8.348  72.443  1.00  0.00    -0.370 F  
ENDBRANCH  16  19
ENDBRANCH  12  13
ENDBRANCH  11  12
ENDBRANCH  10  11
ENDBRANCH   9  10
ENDBRANCH   4   9
BRANCH   6  29
HETATM   29  C   UNL     1      -9.320   4.518  73.503  1.00  0.00    -0.117 C  
HETATM   30  O   UNL     1      -8.476   4.139  74.314  1.00  0.00    -0.096 OA 
HETATM   31  C   UNL     1     -10.581   5.205  73.965  1.00  0.00    -0.335 C  
ENDBRANCH   6  29
ENDBRANCH   2   3
TORSDOF 8
ENDMDL
MODEL      235
REMARK 921   NORMALIZED FREE ENERGY PREDICTED BY IDOCK:   -4.44 KCAL/MOL
REMARK 922        TOTAL FREE ENERGY PREDICTED BY IDOCK:   -7.31 KCAL/MOL
REMARK 923 INTER-LIGAND FREE ENERGY PREDICTED BY IDOCK:   -6.55 KCAL/MOL
REMARK 924 INTRA-LIGAND FREE ENERGY PREDICTED BY IDOCK:   -0.76 KCAL/MOL
REMARK 927      BINDING AFFINITY PREDICTED BY RF-SCORE:    0.00 PKD
ROOT
HETATM    1  C   UNL     1      -6.355   6.414  70.096  1.00  0.00    -0.039 C  
HETATM    2  O   UNL     1      -6.851   5.108  70.353  1.00  0.00    -0.041 OA 
ENDROOT
BRANCH   2   3
HETATM    3  C   UNL     1      -7.544   4.487  69.344  1.00  0.00    -0.055 A  
HETATM    4  C   UNL     1      -8.456   3.493  69.747  1.00  0.00    -0.053 A  
HETATM    5  C   UNL     1      -9.202   2.809  68.784  1.00  0.00    -0.231 A  
HETATM    6  C   UNL     1      -8.163   4.104  67.024  1.00  0.00    -0.100 A  
HETATM    7  C   UNL     1      -7.414   4.795  67.986  1.00  0.00    -0.074 A  
HETATM    8  C   UNL     1      -9.065   3.121  67.429  1.00  0.00    -0.205 A  
BRANCH   4   9
HETATM    9  O   UNL     1      -8.523   3.223  71.089  1.00  0.00    -0.065 OA 
BRANCH   9  10
HETATM   10  C   UNL     1      -9.788   3.363  71.736  1.00  0.00    -0.159 C  
BRANCH  10  11
HETATM   11  C   UNL     1     -10.516   4.647  71.321  1.00  0.00    -0.070 C  
BRANCH  11  12
HETATM   12  C   UNL     1     -11.152   5.426  72.488  1.00  0.00    -0.253 C  
BRANCH  12  13
HETATM   13  N   UNL     1     -11.074   6.877  72.287  1.00  0.00    -0.241 NA 
HETATM   14  C   UNL     1     -12.290   7.444  71.692  1.00  0.00    -0.341 C  
HETATM   15  C   UNL     1     -12.227   8.984  71.707  1.00  0.00    -0.434 C  
HETATM   16  C   UNL     1     -10.916   9.552  71.124  1.00  0.00    -0.438 C  
HETATM   17  C   UNL     1      -9.737   8.794  71.756  1.00  0.00    -0.380 C  
HETATM   18  C   UNL     1      -9.887   7.293  71.545  1.00  0.00    -0.174 C  
BRANCH  16  19
HETATM   19  C   UNL     1     -10.847   9.515  69.620  1.00  0.00    -0.235 A  
HETATM   20  N   UNL     1     -10.319   8.462  68.978  1.00  0.00    -0.218 NA 
HETATM   21  O   UNL     1     -10.244   8.822  67.648  1.00  0.00    -0.208 OA 
HETATM   22  C   UNL     1     -10.742  10.078  67.489  1.00  0.00    -0.281 A  
HETATM   23  C   UNL     1     -11.212  10.542  68.698  1.00  0.00    -0.328 A  
HETATM   24  C   UNL     1     -11.810  11.815  68.744  1.00  0.00    -0.380 A  
HETATM   25  C   UNL     1     -11.842  12.574  67.564  1.00  0.00    -0.389 A  
HETATM   26  C   UNL     1     -11.312  12.067  66.379  1.00  0.00    -0.354 A  
HETATM   27  C   UNL     1     -10.768  10.790  66.295  1.00  0.00    -0.205 A  
HETATM   28  F   UNL     1     -11.324  12.840  65.284  1.00  0.00    -0.308 F  
ENDBRANCH  16  19
ENDBRANCH  12  13
ENDBRANCH  11  12
ENDBRANCH  10  11
ENDBRANCH   9  10
ENDBRANCH   4   9
BRANCH   6  29
HETATM   29  C   UNL     1      -7.961   4.453  65.591  1.00  0.00    -0.095 C  
HETATM   30  O   UNL     1      -8.568   5.409  65.111  1.00  0.00    -0.147 OA 
HETATM   31  C   UNL     1      -6.970   3.672  64.763  1.00  0.00    -0.050 C  
ENDBRANCH   6  29
ENDBRANCH   2   3
TORSDOF 8
ENDMDL
MODEL      236
REMARK 921   NORMALIZED FREE ENERGY PREDICTED BY IDOCK:   -4.43 KCAL/MOL
REMARK 922        TOTAL FREE ENERGY PREDICTED BY IDOCK:   -7.29 KCAL/MOL
REMARK 923 INTER-LIGAND FREE ENERGY PREDICTED BY IDOCK:   -6.32 KCAL/MOL
REMARK 924 INTRA-LIGAND FREE ENERGY PREDICTED BY IDOCK:   -0.98 KCAL/MOL
REMARK 927      BINDING AFFINITY PREDICTED BY RF-SCORE:    0.00 PKD
ROOT
HETATM    1  C   UNL     1     -10.207  13.975  68.578  1.00  0.00    -0.237 C  
HETATM    2  O   UNL     1      -9.377  14.576  67.595  1.00  0.00    -0.195 OA 
ENDROOT
BRANCH   2   3
HETATM    3  C   UNL     1      -8.933  15.852  67.836  1.00  0.00    -0.181 A  
HETATM    4  C   UNL     1      -7.559  15.983  68.108  1.00  0.00    -0.136 A  
HETATM    5  C   UNL     1      -7.023  17.247  68.367  1.00  0.00    -0.202 A  
HETATM    6  C   UNL     1      -9.201  18.257  68.068  1.00  0.00    -0.300 A  
HETATM    7  C   UNL     1      -9.743  16.992  67.804  1.00  0.00    -0.258 A  
HETATM    8  C   UNL     1      -7.838  18.381  68.335  1.00  0.00    -0.323 A  
BRANCH   4   9
HETATM    9  O   UNL     1      -6.823  14.827  68.145  1.00  0.00    -0.101 OA 
BRANCH   9  10
HETATM   10  C   UNL     1      -6.563  14.241  69.421  1.00  0.00    -0.132 C  
BRANCH  10  11
HETATM   11  C   UNL     1      -5.776  12.930  69.310  1.00  0.00    -0.081 C  
BRANCH  11  12
HETATM   12  C   UNL     1      -6.573  11.671  69.699  1.00  0.00    -0.096 C  
BRANCH  12  13
HETATM   13  N   UNL     1      -7.698  11.430  68.790  1.00  0.00    -0.139 NA 
HETATM   14  C   UNL     1      -8.564  10.328  69.224  1.00  0.00    -0.168 C  
HETATM   15  C   UNL     1      -9.834  10.268  68.351  1.00  0.00    -0.168 C  
HETATM   16  C   UNL     1      -9.540  10.279  66.836  1.00  0.00    -0.211 C  
HETATM   17  C   UNL     1      -8.540  11.411  66.547  1.00  0.00    -0.175 C  
HETATM   18  C   UNL     1      -7.288  11.255  67.400  1.00  0.00    -0.115 C  
BRANCH  16  19
HETATM   19  C   UNL     1      -9.047   8.962  66.297  1.00  0.00    -0.190 A  
HETATM   20  N   UNL     1      -8.219   8.915  65.243  1.00  0.00    -0.129 NA 
HETATM   21  O   UNL     1      -8.111   7.582  64.900  1.00  0.00    -0.131 OA 
HETATM   22  C   UNL     1      -8.857   6.832  65.756  1.00  0.00    -0.069 A  
HETATM   23  C   UNL     1      -9.416   7.649  66.715  1.00  0.00    -0.244 A  
HETATM   24  C   UNL     1     -10.195   7.061  67.727  1.00  0.00    -0.227 A  
HETATM   25  C   UNL     1     -10.415   5.676  67.674  1.00  0.00    -0.284 A  
HETATM   26  C   UNL     1      -9.857   4.907  66.655  1.00  0.00    -0.204 A  
HETATM   27  C   UNL     1      -9.036   5.456  65.675  1.00  0.00    -0.160 A  
HETATM   28  F   UNL     1     -10.125   3.595  66.616  1.00  0.00    -0.167 F  
ENDBRANCH  16  19
ENDBRANCH  12  13
ENDBRANCH  11  12
ENDBRANCH  10  11
ENDBRANCH   9  10
ENDBRANCH   4   9
BRANCH   6  29
HETATM   29  C   UNL     1     -10.116  19.432  68.050  1.00  0.00    -0.412 C  
HETATM   30  O   UNL     1     -10.402  19.990  69.108  1.00  0.00    -0.350 OA 
HETATM   31  C   UNL     1     -10.627  19.962  66.733  1.00  0.00    -0.536 C  
ENDBRANCH   6  29
ENDBRANCH   2   3
TORSDOF 8
ENDMDL
MODEL      237
REMARK 921   NORMALIZED FREE ENERGY PREDICTED BY IDOCK:   -4.38 KCAL/MOL
REMARK 922        TOTAL FREE ENERGY PREDICTED BY IDOCK:   -7.22 KCAL/MOL
REMARK 923 INTER-LIGAND FREE ENERGY PREDICTED BY IDOCK:   -4.82 KCAL/MOL
REMARK 924 INTRA-LIGAND FREE ENERGY PREDICTED BY IDOCK:   -2.40 KCAL/MOL
REMARK 927      BINDING AFFINITY PREDICTED BY RF-SCORE:    0.00 PKD
ROOT
HETATM    1  C   UNL     1     -10.585   5.368  66.548  1.00  0.00    -0.289 C  
HETATM    2  O   UNL     1     -11.077   6.622  66.998  1.00  0.00    -0.403 OA 
ENDROOT
BRANCH   2   3
HETATM    3  C   UNL     1     -10.861   6.950  68.313  1.00  0.00    -0.184 A  
HETATM    4  C   UNL     1     -10.497   8.287  68.560  1.00  0.00    -0.162 A  
HETATM    5  C   UNL     1     -10.256   8.706  69.871  1.00  0.00    -0.206 A  
HETATM    6  C   UNL     1     -10.755   6.488  70.698  1.00  0.00    -0.297 A  
HETATM    7  C   UNL     1     -11.001   6.063  69.386  1.00  0.00    -0.455 A  
HETATM    8  C   UNL     1     -10.396   7.814  70.937  1.00  0.00    -0.208 A  
BRANCH   4   9
HETATM    9  O   UNL     1     -10.357   9.102  67.467  1.00  0.00    -0.228 OA 
BRANCH   9  10
HETATM   10  C   UNL     1     -11.192  10.257  67.383  1.00  0.00    -0.068 C  
BRANCH  10  11
HETATM   11  C   UNL     1     -10.401  11.561  67.536  1.00  0.00    -0.220 C  
BRANCH  11  12
HETATM   12  C   UNL     1      -9.287  11.759  66.491  1.00  0.00    -0.210 C  
BRANCH  12  13
HETATM   13  N   UNL     1      -7.968  11.394  67.017  1.00  0.00    -0.151 NA 
HETATM   14  C   UNL     1      -7.512  10.073  66.567  1.00  0.00    -0.105 C  
HETATM   15  C   UNL     1      -6.043   9.844  66.976  1.00  0.00    -0.059 C  
HETATM   16  C   UNL     1      -5.768  10.130  68.466  1.00  0.00    -0.038 C  
HETATM   17  C   UNL     1      -6.393  11.490  68.821  1.00  0.00    -0.054 C  
HETATM   18  C   UNL     1      -7.875  11.509  68.469  1.00  0.00    -0.140 C  
BRANCH  16  19
HETATM   19  C   UNL     1      -6.248   9.048  69.398  1.00  0.00    -0.040 A  
HETATM   20  N   UNL     1      -6.215   9.218  70.728  1.00  0.00    -0.058 NA 
HETATM   21  O   UNL     1      -6.544   7.995  71.278  1.00  0.00    -0.040 OA 
HETATM   22  C   UNL     1      -6.792   7.102  70.282  1.00  0.00    -0.056 A  
HETATM   23  C   UNL     1      -6.693   7.735  69.062  1.00  0.00    -0.049 A  
HETATM   24  C   UNL     1      -6.956   6.992  67.896  1.00  0.00    -0.083 A  
HETATM   25  C   UNL     1      -7.246   5.626  68.032  1.00  0.00    -0.072 A  
HETATM   26  C   UNL     1      -7.291   5.032  69.292  1.00  0.00    -0.057 A  
HETATM   27  C   UNL     1      -7.092   5.756  70.463  1.00  0.00    -0.067 A  
HETATM   28  F   UNL     1      -7.530   3.716  69.377  1.00  0.00    -0.050 F  
ENDBRANCH  16  19
ENDBRANCH  12  13
ENDBRANCH  11  12
ENDBRANCH  10  11
ENDBRANCH   9  10
ENDBRANCH   4   9
BRANCH   6  29
HETATM   29  C   UNL     1     -10.890   5.493  71.797  1.00  0.00    -0.211 C  
HETATM   30  O   UNL     1     -11.749   5.661  72.661  1.00  0.00    -0.303 OA 
HETATM   31  C   UNL     1     -10.018   4.262  71.803  1.00  0.00    -0.254 C  
ENDBRANCH   6  29
ENDBRANCH   2   3
TORSDOF 8
ENDMDL
MODEL      238
REMARK 921   NORMALIZED FREE ENERGY PREDICTED BY IDOCK:   -4.37 KCAL/MOL
REMARK 922        TOTAL FREE ENERGY PREDICTED BY IDOCK:   -7.21 KCAL/MOL
REMARK 923 INTER-LIGAND FREE ENERGY PREDICTED BY IDOCK:   -7.87 KCAL/MOL
REMARK 924 INTRA-LIGAND FREE ENERGY PREDICTED BY IDOCK:    0.66 KCAL/MOL
REMARK 927      BINDING AFFINITY PREDICTED BY RF-SCORE:    0.00 PKD
ROOT
HETATM    1  C   UNL     1     -12.319  12.330  63.523  1.00  0.00    -0.565 C  
HETATM    2  O   UNL     1     -12.431  12.470  64.932  1.00  0.00    -0.489 OA 
ENDROOT
BRANCH   2   3
HETATM    3  C   UNL     1     -11.400  13.095  65.588  1.00  0.00    -0.303 A  
HETATM    4  C   UNL     1     -10.422  12.249  66.142  1.00  0.00    -0.240 A  
HETATM    5  C   UNL     1      -9.339  12.802  66.829  1.00  0.00    -0.241 A  
HETATM    6  C   UNL     1     -10.176  15.032  66.403  1.00  0.00    -0.286 A  
HETATM    7  C   UNL     1     -11.263  14.482  65.710  1.00  0.00    -0.334 A  
HETATM    8  C   UNL     1      -9.209  14.188  66.949  1.00  0.00    -0.270 A  
BRANCH   4   9
HETATM    9  O   UNL     1     -10.623  10.900  66.007  1.00  0.00    -0.246 OA 
BRANCH   9  10
HETATM   10  C   UNL     1     -10.183  10.049  67.066  1.00  0.00    -0.237 C  
BRANCH  10  11
HETATM   11  C   UNL     1     -10.508   8.574  66.801  1.00  0.00    -0.308 C  
BRANCH  11  12
HETATM   12  C   UNL     1      -9.326   7.746  66.265  1.00  0.00    -0.151 C  
BRANCH  12  13
HETATM   13  N   UNL     1      -9.073   6.555  67.083  1.00  0.00    -0.119 NA 
HETATM   14  C   UNL     1     -10.251   5.689  67.222  1.00  0.00    -0.206 C  
HETATM   15  C   UNL     1      -9.864   4.362  67.905  1.00  0.00    -0.141 C  
HETATM   16  C   UNL     1      -9.065   4.552  69.210  1.00  0.00    -0.167 C  
HETATM   17  C   UNL     1      -7.936   5.562  68.944  1.00  0.00    -0.095 C  
HETATM   18  C   UNL     1      -8.497   6.864  68.388  1.00  0.00    -0.123 C  
BRANCH  16  19
HETATM   19  C   UNL     1      -9.905   4.971  70.389  1.00  0.00    -0.230 A  
HETATM   20  N   UNL     1     -10.216   4.099  71.360  1.00  0.00    -0.089 NA 
HETATM   21  O   UNL     1     -11.127   4.741  72.173  1.00  0.00    -0.033 OA 
HETATM   22  C   UNL     1     -11.348   5.999  71.703  1.00  0.00    -0.252 A  
HETATM   23  C   UNL     1     -10.540   6.230  70.611  1.00  0.00    -0.301 A  
HETATM   24  C   UNL     1     -10.585   7.494  69.997  1.00  0.00    -0.242 A  
HETATM   25  C   UNL     1     -11.497   8.439  70.492  1.00  0.00    -0.189 A  
HETATM   26  C   UNL     1     -12.319   8.133  71.574  1.00  0.00    -0.306 A  
HETATM   27  C   UNL     1     -12.254   6.911  72.235  1.00  0.00    -0.173 A  
HETATM   28  F   UNL     1     -13.206   9.047  71.989  1.00  0.00    -0.340 F  
ENDBRANCH  16  19
ENDBRANCH  12  13
ENDBRANCH  11  12
ENDBRANCH  10  11
ENDBRANCH   9  10
ENDBRANCH   4   9
BRANCH   6  29
HETATM   29  C   UNL     1     -10.097  16.513  66.528  1.00  0.00    -0.299 C  
HETATM   30  O   UNL     1      -9.890  17.193  65.524  1.00  0.00    -0.549 OA 
HETATM   31  C   UNL     1     -10.335  17.165  67.867  1.00  0.00    -0.350 C  
ENDBRANCH   6  29
ENDBRANCH   2   3
TORSDOF 8
ENDMDL
MODEL      239
REMARK 921   NORMALIZED FREE ENERGY PREDICTED BY IDOCK:   -4.37 KCAL/MOL
REMARK 922        TOTAL FREE ENERGY PREDICTED BY IDOCK:   -7.21 KCAL/MOL
REMARK 923 INTER-LIGAND FREE ENERGY PREDICTED BY IDOCK:   -5.19 KCAL/MOL
REMARK 924 INTRA-LIGAND FREE ENERGY PREDICTED BY IDOCK:   -2.02 KCAL/MOL
REMARK 927      BINDING AFFINITY PREDICTED BY RF-SCORE:    0.00 PKD
ROOT
HETATM    1  C   UNL     1     -12.010  11.860  70.007  1.00  0.00    -0.332 C  
HETATM    2  O   UNL     1     -10.825  11.215  69.564  1.00  0.00    -0.239 OA 
ENDROOT
BRANCH   2   3
HETATM    3  C   UNL     1     -10.844   9.845  69.484  1.00  0.00    -0.246 A  
HETATM    4  C   UNL     1     -10.314   9.292  68.303  1.00  0.00    -0.217 A  
HETATM    5  C   UNL     1     -10.296   7.905  68.137  1.00  0.00    -0.249 A  
HETATM    6  C   UNL     1     -11.307   7.608  70.315  1.00  0.00    -0.197 A  
HETATM    7  C   UNL     1     -11.324   8.998  70.488  1.00  0.00    -0.282 A  
HETATM    8  C   UNL     1     -10.779   7.065  69.144  1.00  0.00    -0.240 A  
BRANCH   4   9
HETATM    9  O   UNL     1      -9.878  10.174  67.349  1.00  0.00    -0.175 OA 
BRANCH   9  10
HETATM   10  C   UNL     1     -10.504  10.135  66.067  1.00  0.00    -0.095 C  
BRANCH  10  11
HETATM   11  C   UNL     1      -9.491  10.224  64.920  1.00  0.00    -0.337 C  
BRANCH  11  12
HETATM   12  C   UNL     1      -8.017  10.229  65.368  1.00  0.00    -0.148 C  
BRANCH  12  13
HETATM   13  N   UNL     1      -7.381   8.921  65.181  1.00  0.00    -0.090 NA 
HETATM   14  C   UNL     1      -8.072   8.079  64.197  1.00  0.00    -0.102 C  
HETATM   15  C   UNL     1      -7.240   6.818  63.892  1.00  0.00    -0.068 C  
HETATM   16  C   UNL     1      -6.780   6.062  65.156  1.00  0.00    -0.044 C  
HETATM   17  C   UNL     1      -6.178   7.082  66.136  1.00  0.00    -0.039 C  
HETATM   18  C   UNL     1      -7.172   8.198  66.431  1.00  0.00    -0.079 C  
BRANCH  16  19
HETATM   19  C   UNL     1      -7.864   5.248  65.812  1.00  0.00    -0.099 A  
HETATM   20  N   UNL     1      -9.087   5.159  65.268  1.00  0.00    -0.149 NA 
HETATM   21  O   UNL     1      -9.872   4.504  66.195  1.00  0.00    -0.186 OA 
HETATM   22  C   UNL     1      -9.119   4.184  67.282  1.00  0.00    -0.144 A  
HETATM   23  C   UNL     1      -7.813   4.565  67.065  1.00  0.00    -0.098 A  
HETATM   24  C   UNL     1      -6.857   4.285  68.057  1.00  0.00    -0.051 A  
HETATM   25  C   UNL     1      -7.294   3.686  69.248  1.00  0.00    -0.049 A  
HETATM   26  C   UNL     1      -8.637   3.361  69.428  1.00  0.00    -0.069 A  
HETATM   27  C   UNL     1      -9.592   3.575  68.439  1.00  0.00    -0.154 A  
HETATM   28  F   UNL     1      -9.022   2.828  70.596  1.00  0.00    -0.114 F  
ENDBRANCH  16  19
ENDBRANCH  12  13
ENDBRANCH  11  12
ENDBRANCH  10  11
ENDBRANCH   9  10
ENDBRANCH   4   9
BRANCH   6  29
HETATM   29  C   UNL     1     -11.859   6.756  71.405  1.00  0.00    -0.338 C  
HETATM   30  O   UNL     1     -12.958   7.029  71.886  1.00  0.00    -0.320 OA 
HETATM   31  C   UNL     1     -11.097   5.536  71.860  1.00  0.00    -0.233 C  
ENDBRANCH   6  29
ENDBRANCH   2   3
TORSDOF 8
ENDMDL
MODEL      240
REMARK 921   NORMALIZED FREE ENERGY PREDICTED BY IDOCK:   -4.36 KCAL/MOL
REMARK 922        TOTAL FREE ENERGY PREDICTED BY IDOCK:   -7.20 KCAL/MOL
REMARK 923 INTER-LIGAND FREE ENERGY PREDICTED BY IDOCK:   -6.51 KCAL/MOL
REMARK 924 INTRA-LIGAND FREE ENERGY PREDICTED BY IDOCK:   -0.69 KCAL/MOL
REMARK 927      BINDING AFFINITY PREDICTED BY RF-SCORE:    0.00 PKD
ROOT
HETATM    1  C   UNL     1     -11.808  14.445  68.261  1.00  0.00    -0.326 C  
HETATM    2  O   UNL     1     -10.857  14.568  67.214  1.00  0.00    -0.286 OA 
ENDROOT
BRANCH   2   3
HETATM    3  C   UNL     1      -9.982  15.624  67.276  1.00  0.00    -0.236 A  
HETATM    4  C   UNL     1      -8.621  15.305  67.115  1.00  0.00    -0.211 A  
HETATM    5  C   UNL     1      -7.663  16.319  67.167  1.00  0.00    -0.223 A  
HETATM    6  C   UNL     1      -9.395  17.972  67.515  1.00  0.00    -0.257 A  
HETATM    7  C   UNL     1     -10.361  16.958  67.461  1.00  0.00    -0.318 A  
HETATM    8  C   UNL     1      -8.048  17.649  67.353  1.00  0.00    -0.217 A  
BRANCH   4   9
HETATM    9  O   UNL     1      -8.312  13.979  66.958  1.00  0.00    -0.184 OA 
BRANCH   9  10
HETATM   10  C   UNL     1      -7.339  13.411  67.835  1.00  0.00    -0.140 C  
BRANCH  10  11
HETATM   11  C   UNL     1      -6.907  12.007  67.396  1.00  0.00    -0.142 C  
BRANCH  11  12
HETATM   12  C   UNL     1      -7.175  10.901  68.433  1.00  0.00    -0.087 C  
BRANCH  12  13
HETATM   13  N   UNL     1      -8.456  10.226  68.198  1.00  0.00    -0.121 NA 
HETATM   14  C   UNL     1      -8.949   9.500  69.375  1.00  0.00    -0.172 C  
HETATM   15  C   UNL     1     -10.387   8.998  69.131  1.00  0.00    -0.229 C  
HETATM   16  C   UNL     1     -10.554   8.233  67.802  1.00  0.00    -0.236 C  
HETATM   17  C   UNL     1      -9.898   9.058  66.683  1.00  0.00    -0.316 C  
HETATM   18  C   UNL     1      -8.445   9.364  67.021  1.00  0.00    -0.127 C  
BRANCH  16  19
HETATM   19  C   UNL     1     -10.016   6.826  67.832  1.00  0.00    -0.141 A  
HETATM   20  N   UNL     1      -9.633   6.209  66.704  1.00  0.00    -0.150 NA 
HETATM   21  O   UNL     1      -9.371   4.901  67.054  1.00  0.00    -0.119 OA 
HETATM   22  C   UNL     1      -9.576   4.738  68.389  1.00  0.00    -0.151 A  
HETATM   23  C   UNL     1      -9.915   5.948  68.953  1.00  0.00    -0.201 A  
HETATM   24  C   UNL     1     -10.130   6.007  70.341  1.00  0.00    -0.249 A  
HETATM   25  C   UNL     1     -10.049   4.813  71.075  1.00  0.00    -0.269 A  
HETATM   26  C   UNL     1      -9.742   3.610  70.443  1.00  0.00    -0.131 A  
HETATM   27  C   UNL     1      -9.469   3.536  69.081  1.00  0.00    -0.224 A  
HETATM   28  F   UNL     1      -9.715   2.486  71.171  1.00  0.00    -0.205 F  
ENDBRANCH  16  19
ENDBRANCH  12  13
ENDBRANCH  11  12
ENDBRANCH  10  11
ENDBRANCH   9  10
ENDBRANCH   4   9
BRANCH   6  29
HETATM   29  C   UNL     1      -9.854  19.370  67.744  1.00  0.00    -0.347 C  
HETATM   30  O   UNL     1     -10.999  19.571  68.144  1.00  0.00    -0.145 OA 
HETATM   31  C   UNL     1      -8.892  20.514  67.544  1.00  0.00    -0.352 C  
ENDBRANCH   6  29
ENDBRANCH   2   3
TORSDOF 8
ENDMDL
MODEL      241
REMARK 921   NORMALIZED FREE ENERGY PREDICTED BY IDOCK:   -4.35 KCAL/MOL
REMARK 922        TOTAL FREE ENERGY PREDICTED BY IDOCK:   -7.18 KCAL/MOL
REMARK 923 INTER-LIGAND FREE ENERGY PREDICTED BY IDOCK:   -6.73 KCAL/MOL
REMARK 924 INTRA-LIGAND FREE ENERGY PREDICTED BY IDOCK:   -0.45 KCAL/MOL
REMARK 927      BINDING AFFINITY PREDICTED BY RF-SCORE:    0.00 PKD
ROOT
HETATM    1  C   UNL     1      -7.335  11.545  66.707  1.00  0.00    -0.111 C  
HETATM    2  O   UNL     1      -7.947  11.282  67.961  1.00  0.00    -0.109 OA 
ENDROOT
BRANCH   2   3
HETATM    3  C   UNL     1      -9.181  11.836  68.190  1.00  0.00    -0.186 A  
HETATM    4  C   UNL     1     -10.261  10.935  68.236  1.00  0.00    -0.173 A  
HETATM    5  C   UNL     1     -11.553  11.414  68.462  1.00  0.00    -0.384 A  
HETATM    6  C   UNL     1     -10.711  13.677  68.620  1.00  0.00    -0.272 A  
HETATM    7  C   UNL     1      -9.412  13.201  68.397  1.00  0.00    -0.166 A  
HETATM    8  C   UNL     1     -11.776  12.778  68.666  1.00  0.00    -0.360 A  
BRANCH   4   9
HETATM    9  O   UNL     1      -9.973   9.614  68.006  1.00  0.00    -0.150 OA 
BRANCH   9  10
HETATM   10  C   UNL     1     -10.263   9.082  66.713  1.00  0.00    -0.271 C  
BRANCH  10  11
HETATM   11  C   UNL     1     -10.251   7.549  66.698  1.00  0.00    -0.261 C  
BRANCH  11  12
HETATM   12  C   UNL     1      -8.847   6.921  66.631  1.00  0.00    -0.135 C  
BRANCH  12  13
HETATM   13  N   UNL     1      -8.651   5.900  67.666  1.00  0.00    -0.103 NA 
HETATM   14  C   UNL     1      -9.907   5.453  68.279  1.00  0.00    -0.150 C  
HETATM   15  C   UNL     1      -9.653   4.239  69.196  1.00  0.00    -0.249 C  
HETATM   16  C   UNL     1      -8.504   4.457  70.201  1.00  0.00    -0.091 C  
HETATM   17  C   UNL     1      -7.296   5.027  69.439  1.00  0.00    -0.057 C  
HETATM   18  C   UNL     1      -7.684   6.293  68.686  1.00  0.00    -0.101 C  
BRANCH  16  19
HETATM   19  C   UNL     1      -8.871   5.328  71.374  1.00  0.00    -0.134 A  
HETATM   20  N   UNL     1      -8.288   5.157  72.570  1.00  0.00    -0.117 NA 
HETATM   21  O   UNL     1      -8.969   5.976  73.448  1.00  0.00    -0.130 OA 
HETATM   22  C   UNL     1      -9.943   6.650  72.778  1.00  0.00    -0.172 A  
HETATM   23  C   UNL     1      -9.880   6.335  71.438  1.00  0.00    -0.195 A  
HETATM   24  C   UNL     1     -10.780   6.961  70.557  1.00  0.00    -0.267 A  
HETATM   25  C   UNL     1     -11.740   7.831  71.098  1.00  0.00    -0.304 A  
HETATM   26  C   UNL     1     -11.781   8.079  72.469  1.00  0.00    -0.387 A  
HETATM   27  C   UNL     1     -10.865   7.516  73.353  1.00  0.00    -0.339 A  
HETATM   28  F   UNL     1     -12.738   8.882  72.951  1.00  0.00    -0.444 F  
ENDBRANCH  16  19
ENDBRANCH  12  13
ENDBRANCH  11  12
ENDBRANCH  10  11
ENDBRANCH   9  10
ENDBRANCH   4   9
BRANCH   6  29
HETATM   29  C   UNL     1     -10.901  15.142  68.803  1.00  0.00    -0.247 C  
HETATM   30  O   UNL     1     -10.986  15.868  67.814  1.00  0.00    -0.321 OA 
HETATM   31  C   UNL     1     -11.052  15.709  70.193  1.00  0.00    -0.347 C  
ENDBRANCH   6  29
ENDBRANCH   2   3
TORSDOF 8
ENDMDL
MODEL      242
REMARK 921   NORMALIZED FREE ENERGY PREDICTED BY IDOCK:   -4.35 KCAL/MOL
REMARK 922        TOTAL FREE ENERGY PREDICTED BY IDOCK:   -7.18 KCAL/MOL
REMARK 923 INTER-LIGAND FREE ENERGY PREDICTED BY IDOCK:   -7.55 KCAL/MOL
REMARK 924 INTRA-LIGAND FREE ENERGY PREDICTED BY IDOCK:    0.37 KCAL/MOL
REMARK 927      BINDING AFFINITY PREDICTED BY RF-SCORE:    0.00 PKD
ROOT
HETATM    1  C   UNL     1     -12.343  12.412  63.527  1.00  0.00    -0.546 C  
HETATM    2  O   UNL     1     -12.609  12.299  64.917  1.00  0.00    -0.547 OA 
ENDROOT
BRANCH   2   3
HETATM    3  C   UNL     1     -11.684  12.829  65.782  1.00  0.00    -0.402 A  
HETATM    4  C   UNL     1     -10.690  11.943  66.237  1.00  0.00    -0.271 A  
HETATM    5  C   UNL     1      -9.709  12.399  67.121  1.00  0.00    -0.207 A  
HETATM    6  C   UNL     1     -10.680  14.615  67.090  1.00  0.00    -0.292 A  
HETATM    7  C   UNL     1     -11.663  14.164  66.201  1.00  0.00    -0.402 A  
HETATM    8  C   UNL     1      -9.696  13.733  67.537  1.00  0.00    -0.230 A  
BRANCH   4   9
HETATM    9  O   UNL     1     -10.775  10.644  65.806  1.00  0.00    -0.149 OA 
BRANCH   9  10
HETATM   10  C   UNL     1      -9.560   9.958  65.506  1.00  0.00    -0.277 C  
BRANCH  10  11
HETATM   11  C   UNL     1      -9.241   8.862  66.529  1.00  0.00    -0.231 C  
BRANCH  11  12
HETATM   12  C   UNL     1     -10.471   8.290  67.257  1.00  0.00    -0.303 C  
BRANCH  12  13
HETATM   13  N   UNL     1     -10.093   7.438  68.389  1.00  0.00    -0.172 NA 
HETATM   14  C   UNL     1      -8.758   6.845  68.245  1.00  0.00    -0.123 C  
HETATM   15  C   UNL     1      -8.339   6.143  69.551  1.00  0.00    -0.120 C  
HETATM   16  C   UNL     1      -9.404   5.169  70.096  1.00  0.00    -0.208 C  
HETATM   17  C   UNL     1     -10.764   5.886  70.088  1.00  0.00    -0.389 C  
HETATM   18  C   UNL     1     -11.087   6.414  68.696  1.00  0.00    -0.311 C  
BRANCH  16  19
HETATM   19  C   UNL     1      -9.473   3.859  69.356  1.00  0.00    -0.190 A  
HETATM   20  N   UNL     1      -9.517   2.693  70.018  1.00  0.00    -0.115 NA 
HETATM   21  O   UNL     1      -9.392   1.705  69.062  1.00  0.00    -0.120 OA 
HETATM   22  C   UNL     1      -9.292   2.275  67.831  1.00  0.00    -0.184 A  
HETATM   23  C   UNL     1      -9.414   3.642  67.946  1.00  0.00    -0.224 A  
HETATM   24  C   UNL     1      -9.381   4.422  66.776  1.00  0.00    -0.173 A  
HETATM   25  C   UNL     1      -9.163   3.770  65.552  1.00  0.00    -0.153 A  
HETATM   26  C   UNL     1      -9.005   2.386  65.503  1.00  0.00    -0.125 A  
HETATM   27  C   UNL     1      -9.091   1.588  66.639  1.00  0.00    -0.065 A  
HETATM   28  F   UNL     1      -8.756   1.807  64.320  1.00  0.00    -0.085 F  
ENDBRANCH  16  19
ENDBRANCH  12  13
ENDBRANCH  11  12
ENDBRANCH  10  11
ENDBRANCH   9  10
ENDBRANCH   4   9
BRANCH   6  29
HETATM   29  C   UNL     1     -10.725  16.038  67.526  1.00  0.00    -0.314 C  
HETATM   30  O   UNL     1     -11.432  16.354  68.481  1.00  0.00    -0.351 OA 
HETATM   31  C   UNL     1      -9.856  17.060  66.836  1.00  0.00    -0.273 C  
ENDBRANCH   6  29
ENDBRANCH   2   3
TORSDOF 8
ENDMDL
MODEL      243
REMARK 921   NORMALIZED FREE ENERGY PREDICTED BY IDOCK:   -4.34 KCAL/MOL
REMARK 922        TOTAL FREE ENERGY PREDICTED BY IDOCK:   -7.16 KCAL/MOL
REMARK 923 INTER-LIGAND FREE ENERGY PREDICTED BY IDOCK:   -6.10 KCAL/MOL
REMARK 924 INTRA-LIGAND FREE ENERGY PREDICTED BY IDOCK:   -1.06 KCAL/MOL
REMARK 927      BINDING AFFINITY PREDICTED BY RF-SCORE:    0.00 PKD
ROOT
HETATM    1  C   UNL     1     -10.548   9.478  67.535  1.00  0.00    -0.275 C  
HETATM    2  O   UNL     1     -11.727  10.255  67.695  1.00  0.00    -0.192 OA 
ENDROOT
BRANCH   2   3
HETATM    3  C   UNL     1     -11.571  11.581  68.010  1.00  0.00    -0.300 A  
HETATM    4  C   UNL     1     -12.106  11.986  69.247  1.00  0.00    -0.190 A  
HETATM    5  C   UNL     1     -11.993  13.320  69.646  1.00  0.00    -0.376 A  
HETATM    6  C   UNL     1     -10.801  13.853  67.609  1.00  0.00    -0.264 A  
HETATM    7  C   UNL     1     -10.909  12.515  67.206  1.00  0.00    -0.277 A  
HETATM    8  C   UNL     1     -11.333  14.248  68.836  1.00  0.00    -0.302 A  
BRANCH   4   9
HETATM    9  O   UNL     1     -12.760  11.030  69.980  1.00  0.00    -0.230 OA 
BRANCH   9  10
HETATM   10  C   UNL     1     -12.102  10.510  71.137  1.00  0.00    -0.370 C  
BRANCH  10  11
HETATM   11  C   UNL     1     -11.751   9.025  70.989  1.00  0.00    -0.353 C  
BRANCH  11  12
HETATM   12  C   UNL     1     -11.817   8.219  72.299  1.00  0.00    -0.388 C  
BRANCH  12  13
HETATM   13  N   UNL     1     -10.611   7.412  72.510  1.00  0.00    -0.240 NA 
HETATM   14  C   UNL     1      -9.372   8.194  72.426  1.00  0.00    -0.240 C  
HETATM   15  C   UNL     1      -8.167   7.338  72.866  1.00  0.00    -0.126 C  
HETATM   16  C   UNL     1      -8.095   5.968  72.162  1.00  0.00    -0.107 C  
HETATM   17  C   UNL     1      -9.485   5.314  72.234  1.00  0.00    -0.164 C  
HETATM   18  C   UNL     1     -10.545   6.237  71.647  1.00  0.00    -0.227 C  
BRANCH  16  19
HETATM   19  C   UNL     1      -7.594   6.032  70.743  1.00  0.00    -0.093 A  
HETATM   20  N   UNL     1      -7.235   7.200  70.190  1.00  0.00    -0.076 NA 
HETATM   21  O   UNL     1      -7.005   6.937  68.855  1.00  0.00    -0.076 OA 
HETATM   22  C   UNL     1      -7.207   5.613  68.612  1.00  0.00    -0.078 A  
HETATM   23  C   UNL     1      -7.510   4.971  69.792  1.00  0.00    -0.056 A  
HETATM   24  C   UNL     1      -7.716   3.580  69.767  1.00  0.00    -0.050 A  
HETATM   25  C   UNL     1      -7.662   2.924  68.528  1.00  0.00    -0.054 A  
HETATM   26  C   UNL     1      -7.391   3.635  67.360  1.00  0.00    -0.066 A  
HETATM   27  C   UNL     1      -7.128   5.001  67.366  1.00  0.00    -0.066 A  
HETATM   28  F   UNL     1      -7.390   2.980  66.191  1.00  0.00    -0.065 F  
ENDBRANCH  16  19
ENDBRANCH  12  13
ENDBRANCH  11  12
ENDBRANCH  10  11
ENDBRANCH   9  10
ENDBRANCH   4   9
BRANCH   6  29
HETATM   29  C   UNL     1     -10.113  14.809  66.698  1.00  0.00    -0.264 C  
HETATM   30  O   UNL     1      -9.549  14.384  65.692  1.00  0.00    -0.255 OA 
HETATM   31  C   UNL     1     -10.170  16.289  66.987  1.00  0.00    -0.280 C  
ENDBRANCH   6  29
ENDBRANCH   2   3
TORSDOF 8
ENDMDL
MODEL      244
REMARK 921   NORMALIZED FREE ENERGY PREDICTED BY IDOCK:   -4.33 KCAL/MOL
REMARK 922        TOTAL FREE ENERGY PREDICTED BY IDOCK:   -7.14 KCAL/MOL
REMARK 923 INTER-LIGAND FREE ENERGY PREDICTED BY IDOCK:   -5.30 KCAL/MOL
REMARK 924 INTRA-LIGAND FREE ENERGY PREDICTED BY IDOCK:   -1.84 KCAL/MOL
REMARK 927      BINDING AFFINITY PREDICTED BY RF-SCORE:    0.00 PKD
ROOT
HETATM    1  C   UNL     1     -11.056   6.497  67.088  1.00  0.00    -0.360 C  
HETATM    2  O   UNL     1     -10.643   7.823  66.790  1.00  0.00    -0.331 OA 
ENDROOT
BRANCH   2   3
HETATM    3  C   UNL     1      -9.294   8.063  66.718  1.00  0.00    -0.180 A  
HETATM    4  C   UNL     1      -8.917   9.269  66.099  1.00  0.00    -0.165 A  
HETATM    5  C   UNL     1      -7.563   9.592  65.981  1.00  0.00    -0.102 A  
HETATM    6  C   UNL     1      -6.952   7.540  67.109  1.00  0.00    -0.083 A  
HETATM    7  C   UNL     1      -8.308   7.213  67.232  1.00  0.00    -0.119 A  
HETATM    8  C   UNL     1      -6.584   8.738  66.495  1.00  0.00    -0.063 A  
BRANCH   4   9
HETATM    9  O   UNL     1      -9.928  10.049  65.598  1.00  0.00    -0.272 OA 
BRANCH   9  10
HETATM   10  C   UNL     1      -9.722  10.677  64.333  1.00  0.00    -0.311 C  
BRANCH  10  11
HETATM   11  C   UNL     1     -10.867  11.626  63.961  1.00  0.00    -0.455 C  
BRANCH  11  12
HETATM   12  C   UNL     1     -10.572  13.116  64.217  1.00  0.00    -0.412 C  
BRANCH  12  13
HETATM   13  N   UNL     1     -10.880  13.508  65.596  1.00  0.00    -0.284 NA 
HETATM   14  C   UNL     1      -9.700  13.519  66.470  1.00  0.00    -0.283 C  
HETATM   15  C   UNL     1     -10.051  14.141  67.836  1.00  0.00    -0.235 C  
HETATM   16  C   UNL     1     -11.310  13.530  68.486  1.00  0.00    -0.327 C  
HETATM   17  C   UNL     1     -12.425  13.482  67.428  1.00  0.00     0.075 C  
HETATM   18  C   UNL     1     -11.961  12.727  66.190  1.00  0.00    -0.414 C  
BRANCH  16  19
HETATM   19  C   UNL     1     -11.085  12.175  69.105  1.00  0.00    -0.205 A  
HETATM   20  N   UNL     1     -12.106  11.471  69.615  1.00  0.00    -0.310 NA 
HETATM   21  O   UNL     1     -11.542  10.385  70.252  1.00  0.00    -0.278 OA 
HETATM   22  C   UNL     1     -10.190  10.427  70.109  1.00  0.00     0.008 A  
HETATM   23  C   UNL     1      -9.844  11.504  69.322  1.00  0.00     0.207 A  
HETATM   24  C   UNL     1      -8.486  11.705  69.015  1.00  0.00     0.158 A  
HETATM   25  C   UNL     1      -7.544  10.830  69.578  1.00  0.00    -0.094 A  
HETATM   26  C   UNL     1      -7.950   9.782  70.401  1.00  0.00    -0.109 A  
HETATM   27  C   UNL     1      -9.291   9.528  70.673  1.00  0.00    -0.263 A  
HETATM   28  F   UNL     1      -7.016   8.996  70.953  1.00  0.00    -0.057 F  
ENDBRANCH  16  19
ENDBRANCH  12  13
ENDBRANCH  11  12
ENDBRANCH  10  11
ENDBRANCH   9  10
ENDBRANCH   4   9
BRANCH   6  29
HETATM   29  C   UNL     1      -5.945   6.584  67.646  1.00  0.00    -0.020 C  
HETATM   30  O   UNL     1      -5.253   5.934  66.865  1.00  0.00    -0.005 OA 
HETATM   31  C   UNL     1      -5.743   6.471  69.137  1.00  0.00    -0.017 C  
ENDBRANCH   6  29
ENDBRANCH   2   3
TORSDOF 8
ENDMDL
MODEL      245
REMARK 921   NORMALIZED FREE ENERGY PREDICTED BY IDOCK:   -4.32 KCAL/MOL
REMARK 922        TOTAL FREE ENERGY PREDICTED BY IDOCK:   -7.13 KCAL/MOL
REMARK 923 INTER-LIGAND FREE ENERGY PREDICTED BY IDOCK:   -6.42 KCAL/MOL
REMARK 924 INTRA-LIGAND FREE ENERGY PREDICTED BY IDOCK:   -0.71 KCAL/MOL
REMARK 927      BINDING AFFINITY PREDICTED BY RF-SCORE:    0.00 PKD
ROOT
HETATM    1  C   UNL     1      -6.858  15.897  67.494  1.00  0.00    -0.183 C  
HETATM    2  O   UNL     1      -7.259  14.573  67.817  1.00  0.00    -0.142 OA 
ENDROOT
BRANCH   2   3
HETATM    3  C   UNL     1      -8.387  14.088  67.205  1.00  0.00    -0.194 A  
HETATM    4  C   UNL     1      -8.692  12.738  67.458  1.00  0.00    -0.185 A  
HETATM    5  C   UNL     1      -9.822  12.162  66.873  1.00  0.00    -0.213 A  
HETATM    6  C   UNL     1     -10.367  14.263  65.804  1.00  0.00    -0.341 A  
HETATM    7  C   UNL     1      -9.236  14.846  66.391  1.00  0.00    -0.317 A  
HETATM    8  C   UNL     1     -10.664  12.925  66.059  1.00  0.00    -0.296 A  
BRANCH   4   9
HETATM    9  O   UNL     1      -7.812  12.044  68.248  1.00  0.00    -0.130 OA 
BRANCH   9  10
HETATM   10  C   UNL     1      -7.788  10.621  68.130  1.00  0.00    -0.110 C  
BRANCH  10  11
HETATM   11  C   UNL     1      -6.483  10.014  68.659  1.00  0.00    -0.049 C  
BRANCH  11  12
HETATM   12  C   UNL     1      -5.687   9.203  67.619  1.00  0.00    -0.042 C  
BRANCH  12  13
HETATM   13  N   UNL     1      -6.133   7.808  67.552  1.00  0.00    -0.048 NA 
HETATM   14  C   UNL     1      -7.041   7.545  66.430  1.00  0.00    -0.071 C  
HETATM   15  C   UNL     1      -7.299   6.031  66.290  1.00  0.00    -0.081 C  
HETATM   16  C   UNL     1      -7.719   5.355  67.611  1.00  0.00    -0.092 C  
HETATM   17  C   UNL     1      -6.747   5.804  68.715  1.00  0.00    -0.064 C  
HETATM   18  C   UNL     1      -6.702   7.324  68.807  1.00  0.00    -0.067 C  
BRANCH  16  19
HETATM   19  C   UNL     1      -9.150   5.612  68.005  1.00  0.00    -0.107 A  
HETATM   20  N   UNL     1     -10.067   5.954  67.088  1.00  0.00    -0.156 NA 
HETATM   21  O   UNL     1     -11.206   6.288  67.792  1.00  0.00    -0.325 OA 
HETATM   22  C   UNL     1     -10.979   6.128  69.124  1.00  0.00    -0.381 A  
HETATM   23  C   UNL     1      -9.710   5.627  69.317  1.00  0.00    -0.205 A  
HETATM   24  C   UNL     1      -9.290   5.349  70.630  1.00  0.00    -0.204 A  
HETATM   25  C   UNL     1     -10.164   5.655  71.685  1.00  0.00    -0.261 A  
HETATM   26  C   UNL     1     -11.420   6.200  71.430  1.00  0.00    -0.254 A  
HETATM   27  C   UNL     1     -11.882   6.431  70.138  1.00  0.00    -0.254 A  
HETATM   28  F   UNL     1     -12.208   6.518  72.466  1.00  0.00    -0.254 F  
ENDBRANCH  16  19
ENDBRANCH  12  13
ENDBRANCH  11  12
ENDBRANCH  10  11
ENDBRANCH   9  10
ENDBRANCH   4   9
BRANCH   6  29
HETATM   29  C   UNL     1     -11.217  15.109  64.922  1.00  0.00    -0.417 C  
HETATM   30  O   UNL     1     -10.887  16.273  64.701  1.00  0.00    -0.687 OA 
HETATM   31  C   UNL     1     -12.434  14.512  64.259  1.00  0.00    -0.293 C  
ENDBRANCH   6  29
ENDBRANCH   2   3
TORSDOF 8
ENDMDL
MODEL      246
REMARK 921   NORMALIZED FREE ENERGY PREDICTED BY IDOCK:   -4.31 KCAL/MOL
REMARK 922        TOTAL FREE ENERGY PREDICTED BY IDOCK:   -7.12 KCAL/MOL
REMARK 923 INTER-LIGAND FREE ENERGY PREDICTED BY IDOCK:   -5.34 KCAL/MOL
REMARK 924 INTRA-LIGAND FREE ENERGY PREDICTED BY IDOCK:   -1.78 KCAL/MOL
REMARK 927      BINDING AFFINITY PREDICTED BY RF-SCORE:    0.00 PKD
ROOT
HETATM    1  C   UNL     1     -11.020   4.593  65.212  1.00  0.00     0.045 C  
HETATM    2  O   UNL     1     -10.048   5.286  65.981  1.00  0.00    -0.174 OA 
ENDROOT
BRANCH   2   3
HETATM    3  C   UNL     1      -9.879   4.894  67.286  1.00  0.00    -0.184 A  
HETATM    4  C   UNL     1      -9.179   3.688  67.479  1.00  0.00    -0.189 A  
HETATM    5  C   UNL     1      -8.964   3.215  68.775  1.00  0.00    -0.188 A  
HETATM    6  C   UNL     1     -10.112   5.136  69.694  1.00  0.00    -0.332 A  
HETATM    7  C   UNL     1     -10.328   5.617  68.396  1.00  0.00    -0.258 A  
HETATM    8  C   UNL     1      -9.417   3.942  69.880  1.00  0.00    -0.267 A  
BRANCH   4   9
HETATM    9  O   UNL     1      -8.782   3.016  66.352  1.00  0.00    -0.118 OA 
BRANCH   9  10
HETATM   10  C   UNL     1      -7.385   2.782  66.172  1.00  0.00    -0.067 C  
BRANCH  10  11
HETATM   11  C   UNL     1      -6.589   4.086  66.034  1.00  0.00    -0.041 C  
BRANCH  11  12
HETATM   12  C   UNL     1      -7.029   4.982  64.862  1.00  0.00    -0.054 C  
BRANCH  12  13
HETATM   13  N   UNL     1      -6.807   6.404  65.144  1.00  0.00    -0.046 NA 
HETATM   14  C   UNL     1      -6.847   6.721  66.577  1.00  0.00    -0.061 C  
HETATM   15  C   UNL     1      -6.397   8.176  66.817  1.00  0.00    -0.055 C  
HETATM   16  C   UNL     1      -7.127   9.202  65.925  1.00  0.00    -0.089 C  
HETATM   17  C   UNL     1      -7.099   8.687  64.476  1.00  0.00    -0.081 C  
HETATM   18  C   UNL     1      -7.692   7.287  64.390  1.00  0.00    -0.120 C  
BRANCH  16  19
HETATM   19  C   UNL     1      -8.533   9.511  66.368  1.00  0.00    -0.126 A  
HETATM   20  N   UNL     1      -9.448   9.959  65.496  1.00  0.00    -0.231 NA 
HETATM   21  O   UNL     1     -10.552  10.311  66.248  1.00  0.00    -0.176 OA 
HETATM   22  C   UNL     1     -10.306  10.056  67.561  1.00  0.00    -0.232 A  
HETATM   23  C   UNL     1      -9.064   9.475  67.692  1.00  0.00    -0.131 A  
HETATM   24  C   UNL     1      -8.632   9.093  68.975  1.00  0.00    -0.133 A  
HETATM   25  C   UNL     1      -9.465   9.380  70.067  1.00  0.00    -0.257 A  
HETATM   26  C   UNL     1     -10.694  10.008  69.877  1.00  0.00    -0.286 A  
HETATM   27  C   UNL     1     -11.169  10.344  68.613  1.00  0.00    -0.305 A  
HETATM   28  F   UNL     1     -11.441  10.303  70.950  1.00  0.00    -0.355 F  
ENDBRANCH  16  19
ENDBRANCH  12  13
ENDBRANCH  11  12
ENDBRANCH  10  11
ENDBRANCH   9  10
ENDBRANCH   4   9
BRANCH   6  29
HETATM   29  C   UNL     1     -10.639   5.932  70.836  1.00  0.00    -0.256 C  
HETATM   30  O   UNL     1      -9.978   6.016  71.869  1.00  0.00    -0.168 OA 
HETATM   31  C   UNL     1     -11.944   6.676  70.690  1.00  0.00    -0.404 C  
ENDBRANCH   6  29
ENDBRANCH   2   3
TORSDOF 8
ENDMDL
MODEL      247
REMARK 921   NORMALIZED FREE ENERGY PREDICTED BY IDOCK:   -4.31 KCAL/MOL
REMARK 922        TOTAL FREE ENERGY PREDICTED BY IDOCK:   -7.12 KCAL/MOL
REMARK 923 INTER-LIGAND FREE ENERGY PREDICTED BY IDOCK:   -6.71 KCAL/MOL
REMARK 924 INTRA-LIGAND FREE ENERGY PREDICTED BY IDOCK:   -0.40 KCAL/MOL
REMARK 927      BINDING AFFINITY PREDICTED BY RF-SCORE:    0.00 PKD
ROOT
HETATM    1  C   UNL     1     -12.358  12.672  66.315  1.00  0.00     0.040 C  
HETATM    2  O   UNL     1     -11.200  12.239  67.014  1.00  0.00    -0.273 OA 
ENDROOT
BRANCH   2   3
HETATM    3  C   UNL     1     -10.429  11.272  66.420  1.00  0.00    -0.257 A  
HETATM    4  C   UNL     1      -9.863  10.319  67.287  1.00  0.00    -0.182 A  
HETATM    5  C   UNL     1      -9.062   9.300  66.765  1.00  0.00    -0.170 A  
HETATM    6  C   UNL     1      -9.398  10.150  64.525  1.00  0.00    -0.345 A  
HETATM    7  C   UNL     1     -10.205  11.172  65.042  1.00  0.00    -0.354 A  
HETATM    8  C   UNL     1      -8.840   9.208  65.389  1.00  0.00    -0.236 A  
BRANCH   4   9
HETATM    9  O   UNL     1     -10.103  10.482  68.626  1.00  0.00    -0.165 OA 
BRANCH   9  10
HETATM   10  C   UNL     1      -9.107  11.141  69.409  1.00  0.00     0.324 C  
BRANCH  10  11
HETATM   11  C   UNL     1      -7.857  11.485  68.590  1.00  0.00    -0.137 C  
BRANCH  11  12
HETATM   12  C   UNL     1      -7.489  12.980  68.582  1.00  0.00    -0.093 C  
BRANCH  12  13
HETATM   13  N   UNL     1      -8.631  13.825  68.216  1.00  0.00    -0.171 NA 
HETATM   14  C   UNL     1      -8.433  14.549  66.955  1.00  0.00    -0.196 C  
HETATM   15  C   UNL     1      -9.740  15.243  66.523  1.00  0.00    -0.287 C  
HETATM   16  C   UNL     1     -10.386  16.088  67.640  1.00  0.00    -0.284 C  
HETATM   17  C   UNL     1     -10.429  15.243  68.924  1.00  0.00    -0.241 C  
HETATM   18  C   UNL     1      -9.038  14.736  69.282  1.00  0.00    -0.027 C  
BRANCH  16  19
HETATM   19  C   UNL     1      -9.706  17.411  67.880  1.00  0.00    -0.272 A  
HETATM   20  N   UNL     1     -10.167  18.267  68.803  1.00  0.00    -0.367 NA 
HETATM   21  O   UNL     1      -9.443  19.431  68.641  1.00  0.00    -0.369 OA 
HETATM   22  C   UNL     1      -8.538  19.267  67.638  1.00  0.00    -0.296 A  
HETATM   23  C   UNL     1      -8.607  17.975  67.165  1.00  0.00    -0.244 A  
HETATM   24  C   UNL     1      -7.719  17.584  66.146  1.00  0.00    -0.304 A  
HETATM   25  C   UNL     1      -6.848  18.551  65.620  1.00  0.00    -0.279 A  
HETATM   26  C   UNL     1      -6.854  19.855  66.111  1.00  0.00    -0.238 A  
HETATM   27  C   UNL     1      -7.681  20.251  67.156  1.00  0.00    -0.360 A  
HETATM   28  F   UNL     1      -6.037  20.758  65.553  1.00  0.00    -0.232 F  
ENDBRANCH  16  19
ENDBRANCH  12  13
ENDBRANCH  11  12
ENDBRANCH  10  11
ENDBRANCH   9  10
ENDBRANCH   4   9
BRANCH   6  29
HETATM   29  C   UNL     1      -9.168  10.110  63.055  1.00  0.00    -0.293 C  
HETATM   30  O   UNL     1      -9.160  11.162  62.417  1.00  0.00    -0.324 OA 
HETATM   31  C   UNL     1      -8.886   8.793  62.377  1.00  0.00    -0.084 C  
ENDBRANCH   6  29
ENDBRANCH   2   3
TORSDOF 8
ENDMDL
MODEL      248
REMARK 921   NORMALIZED FREE ENERGY PREDICTED BY IDOCK:   -4.30 KCAL/MOL
REMARK 922        TOTAL FREE ENERGY PREDICTED BY IDOCK:   -7.10 KCAL/MOL
REMARK 923 INTER-LIGAND FREE ENERGY PREDICTED BY IDOCK:   -5.07 KCAL/MOL
REMARK 924 INTRA-LIGAND FREE ENERGY PREDICTED BY IDOCK:   -2.03 KCAL/MOL
REMARK 927      BINDING AFFINITY PREDICTED BY RF-SCORE:    0.00 PKD
ROOT
HETATM    1  C   UNL     1     -10.525   4.954  66.669  1.00  0.00    -0.219 C  
HETATM    2  O   UNL     1     -11.223   6.034  67.272  1.00  0.00    -0.231 OA 
ENDROOT
BRANCH   2   3
HETATM    3  C   UNL     1     -10.735   6.516  68.461  1.00  0.00    -0.273 A  
HETATM    4  C   UNL     1     -10.427   7.889  68.488  1.00  0.00    -0.167 A  
HETATM    5  C   UNL     1      -9.924   8.461  69.658  1.00  0.00    -0.193 A  
HETATM    6  C   UNL     1     -10.047   6.324  70.785  1.00  0.00    -0.229 A  
HETATM    7  C   UNL     1     -10.556   5.745  69.615  1.00  0.00    -0.396 A  
HETATM    8  C   UNL     1      -9.746   7.686  70.806  1.00  0.00    -0.173 A  
BRANCH   4   9
HETATM    9  O   UNL     1     -10.606   8.585  67.320  1.00  0.00    -0.295 OA 
BRANCH   9  10
HETATM   10  C   UNL     1     -10.776  10.000  67.405  1.00  0.00    -0.274 C  
BRANCH  10  11
HETATM   11  C   UNL     1     -10.281  10.723  66.147  1.00  0.00    -0.308 C  
BRANCH  11  12
HETATM   12  C   UNL     1      -9.288   9.913  65.293  1.00  0.00    -0.251 C  
BRANCH  12  13
HETATM   13  N   UNL     1      -7.914  10.025  65.793  1.00  0.00    -0.121 NA 
HETATM   14  C   UNL     1      -7.423   8.788  66.413  1.00  0.00    -0.087 C  
HETATM   15  C   UNL     1      -5.916   8.903  66.720  1.00  0.00    -0.053 C  
HETATM   16  C   UNL     1      -5.542  10.186  67.491  1.00  0.00    -0.045 C  
HETATM   17  C   UNL     1      -6.211  11.382  66.794  1.00  0.00    -0.141 C  
HETATM   18  C   UNL     1      -7.714  11.167  66.680  1.00  0.00    -0.155 C  
BRANCH  16  19
HETATM   19  C   UNL     1      -5.887  10.144  68.957  1.00  0.00    -0.037 A  
HETATM   20  N   UNL     1      -5.992  11.272  69.674  1.00  0.00    -0.078 NA 
HETATM   21  O   UNL     1      -6.134  10.878  70.989  1.00  0.00    -0.358 OA 
HETATM   22  C   UNL     1      -6.134   9.519  71.058  1.00  0.00    -0.080 A  
HETATM   23  C   UNL     1      -6.056   8.995  69.786  1.00  0.00    -0.038 A  
HETATM   24  C   UNL     1      -6.084   7.597  69.632  1.00  0.00    -0.030 A  
HETATM   25  C   UNL     1      -6.129   6.804  70.789  1.00  0.00    -0.028 A  
HETATM   26  C   UNL     1      -6.164   7.392  72.052  1.00  0.00    -0.040 A  
HETATM   27  C   UNL     1      -6.195   8.771  72.229  1.00  0.00    -0.063 A  
HETATM   28  F   UNL     1      -6.163   6.600  73.133  1.00  0.00    -0.055 F  
ENDBRANCH  16  19
ENDBRANCH  12  13
ENDBRANCH  11  12
ENDBRANCH  10  11
ENDBRANCH   9  10
ENDBRANCH   4   9
BRANCH   6  29
HETATM   29  C   UNL     1      -9.849   5.450  71.974  1.00  0.00    -0.168 C  
HETATM   30  O   UNL     1      -8.748   4.937  72.169  1.00  0.00    -0.125 OA 
HETATM   31  C   UNL     1     -10.977   5.257  72.957  1.00  0.00    -0.354 C  
ENDBRANCH   6  29
ENDBRANCH   2   3
TORSDOF 8
ENDMDL
MODEL      249
REMARK 921   NORMALIZED FREE ENERGY PREDICTED BY IDOCK:   -4.29 KCAL/MOL
REMARK 922        TOTAL FREE ENERGY PREDICTED BY IDOCK:   -7.09 KCAL/MOL
REMARK 923 INTER-LIGAND FREE ENERGY PREDICTED BY IDOCK:   -6.77 KCAL/MOL
REMARK 924 INTRA-LIGAND FREE ENERGY PREDICTED BY IDOCK:   -0.32 KCAL/MOL
REMARK 927      BINDING AFFINITY PREDICTED BY RF-SCORE:    0.00 PKD
ROOT
HETATM    1  C   UNL     1     -11.089  11.648  65.012  1.00  0.00    -0.249 C  
HETATM    2  O   UNL     1     -10.392  11.818  66.237  1.00  0.00    -0.213 OA 
ENDROOT
BRANCH   2   3
HETATM    3  C   UNL     1     -10.763  12.871  67.034  1.00  0.00    -0.257 A  
HETATM    4  C   UNL     1     -11.582  12.551  68.133  1.00  0.00    -0.340 A  
HETATM    5  C   UNL     1     -12.008  13.563  68.996  1.00  0.00    -0.376 A  
HETATM    6  C   UNL     1     -10.799  15.210  67.700  1.00  0.00    -0.295 A  
HETATM    7  C   UNL     1     -10.365  14.197  66.833  1.00  0.00    -0.269 A  
HETATM    8  C   UNL     1     -11.608  14.886  68.788  1.00  0.00    -0.348 A  
BRANCH   4   9
HETATM    9  O   UNL     1     -11.953  11.238  68.265  1.00  0.00    -0.582 OA 
BRANCH   9  10
HETATM   10  C   UNL     1     -11.289  10.451  69.255  1.00  0.00    -0.235 C  
BRANCH  10  11
HETATM   11  C   UNL     1     -12.074  10.386  70.570  1.00  0.00    -0.423 C  
BRANCH  11  12
HETATM   12  C   UNL     1     -12.483   8.965  71.000  1.00  0.00    -0.140 C  
BRANCH  12  13
HETATM   13  N   UNL     1     -11.330   8.062  71.082  1.00  0.00    -0.261 NA 
HETATM   14  C   UNL     1     -10.132   8.705  71.636  1.00  0.00    -0.294 C  
HETATM   15  C   UNL     1      -9.031   7.656  71.894  1.00  0.00    -0.149 C  
HETATM   16  C   UNL     1      -8.753   6.745  70.681  1.00  0.00    -0.143 C  
HETATM   17  C   UNL     1     -10.099   6.234  70.141  1.00  0.00    -0.222 C  
HETATM   18  C   UNL     1     -11.027   7.397  69.818  1.00  0.00    -0.200 C  
BRANCH  16  19
HETATM   19  C   UNL     1      -7.942   7.401  69.594  1.00  0.00    -0.126 A  
HETATM   20  N   UNL     1      -7.365   8.597  69.788  1.00  0.00    -0.051 NA 
HETATM   21  O   UNL     1      -6.866   8.985  68.562  1.00  0.00    -0.062 OA 
HETATM   22  C   UNL     1      -7.125   8.018  67.640  1.00  0.00    -0.083 A  
HETATM   23  C   UNL     1      -7.742   6.951  68.254  1.00  0.00    -0.113 A  
HETATM   24  C   UNL     1      -8.060   5.821  67.480  1.00  0.00    -0.102 A  
HETATM   25  C   UNL     1      -7.787   5.863  66.104  1.00  0.00    -0.104 A  
HETATM   26  C   UNL     1      -7.199   6.988  65.530  1.00  0.00    -0.070 A  
HETATM   27  C   UNL     1      -6.823   8.095  66.285  1.00  0.00    -0.058 A  
HETATM   28  F   UNL     1      -6.993   7.006  64.207  1.00  0.00    -0.048 F  
ENDBRANCH  16  19
ENDBRANCH  12  13
ENDBRANCH  11  12
ENDBRANCH  10  11
ENDBRANCH   9  10
ENDBRANCH   4   9
BRANCH   6  29
HETATM   29  C   UNL     1     -10.369  16.607  67.420  1.00  0.00    -0.292 C  
HETATM   30  O   UNL     1     -10.358  17.014  66.259  1.00  0.00    -0.318 OA 
HETATM   31  C   UNL     1     -10.016  17.525  68.564  1.00  0.00    -0.344 C  
ENDBRANCH   6  29
ENDBRANCH   2   3
TORSDOF 8
ENDMDL
MODEL      250
REMARK 921   NORMALIZED FREE ENERGY PREDICTED BY IDOCK:   -4.29 KCAL/MOL
REMARK 922        TOTAL FREE ENERGY PREDICTED BY IDOCK:   -7.09 KCAL/MOL
REMARK 923 INTER-LIGAND FREE ENERGY PREDICTED BY IDOCK:   -6.07 KCAL/MOL
REMARK 924 INTRA-LIGAND FREE ENERGY PREDICTED BY IDOCK:   -1.02 KCAL/MOL
REMARK 927      BINDING AFFINITY PREDICTED BY RF-SCORE:    0.00 PKD
ROOT
HETATM    1  C   UNL     1     -10.946   6.005  66.964  1.00  0.00    -0.276 C  
HETATM    2  O   UNL     1     -10.320   7.163  66.431  1.00  0.00    -0.088 OA 
ENDROOT
BRANCH   2   3
HETATM    3  C   UNL     1      -9.012   7.047  66.032  1.00  0.00    -0.107 A  
HETATM    4  C   UNL     1      -8.418   8.218  65.528  1.00  0.00    -0.161 A  
HETATM    5  C   UNL     1      -7.089   8.189  65.098  1.00  0.00    -0.067 A  
HETATM    6  C   UNL     1      -6.926   5.847  65.684  1.00  0.00    -0.068 A  
HETATM    7  C   UNL     1      -8.257   5.872  66.120  1.00  0.00    -0.116 A  
HETATM    8  C   UNL     1      -6.342   7.012  65.187  1.00  0.00    -0.037 A  
BRANCH   4   9
HETATM    9  O   UNL     1      -9.214   9.331  65.449  1.00  0.00    -0.213 OA 
BRANCH   9  10
HETATM   10  C   UNL     1      -9.036  10.202  64.332  1.00  0.00    -0.245 C  
BRANCH  10  11
HETATM   11  C   UNL     1     -10.221  11.157  64.143  1.00  0.00    -0.405 C  
BRANCH  11  12
HETATM   12  C   UNL     1      -9.964  12.597  64.622  1.00  0.00    -0.143 C  
BRANCH  12  13
HETATM   13  N   UNL     1     -10.348  12.786  66.025  1.00  0.00    -0.271 NA 
HETATM   14  C   UNL     1      -9.201  13.020  66.911  1.00  0.00    -0.236 C  
HETATM   15  C   UNL     1      -9.685  13.421  68.319  1.00  0.00    -0.226 C  
HETATM   16  C   UNL     1     -10.745  12.465  68.902  1.00  0.00    -0.202 C  
HETATM   17  C   UNL     1     -11.822  12.226  67.830  1.00  0.00    -0.341 C  
HETATM   18  C   UNL     1     -11.195  11.714  66.540  1.00  0.00    -0.294 C  
BRANCH  16  19
HETATM   19  C   UNL     1     -10.184  11.163  69.411  1.00  0.00    -0.010 A  
HETATM   20  N   UNL     1      -8.977  10.730  69.018  1.00  0.00    -0.160 NA 
HETATM   21  O   UNL     1      -8.849   9.449  69.515  1.00  0.00    -0.141 OA 
HETATM   22  C   UNL     1      -9.966   9.122  70.220  1.00  0.00    -0.208 A  
HETATM   23  C   UNL     1     -10.821  10.202  70.253  1.00  0.00    -0.370 A  
HETATM   24  C   UNL     1     -12.024  10.085  70.972  1.00  0.00    -0.469 A  
HETATM   25  C   UNL     1     -12.322   8.851  71.569  1.00  0.00    -0.381 A  
HETATM   26  C   UNL     1     -11.436   7.780  71.466  1.00  0.00    -0.264 A  
HETATM   27  C   UNL     1     -10.215   7.887  70.810  1.00  0.00    -0.202 A  
HETATM   28  F   UNL     1     -11.777   6.606  72.014  1.00  0.00    -0.291 F  
ENDBRANCH  16  19
ENDBRANCH  12  13
ENDBRANCH  11  12
ENDBRANCH  10  11
ENDBRANCH   9  10
ENDBRANCH   4   9
BRANCH   6  29
HETATM   29  C   UNL     1      -6.180   4.562  65.773  1.00  0.00    -0.028 C  
HETATM   30  O   UNL     1      -5.153   4.505  66.446  1.00  0.00    -0.008 OA 
HETATM   31  C   UNL     1      -6.727   3.332  65.091  1.00  0.00    -0.041 C  
ENDBRANCH   6  29
ENDBRANCH   2   3
TORSDOF 8
ENDMDL
MODEL      251
REMARK 921   NORMALIZED FREE ENERGY PREDICTED BY IDOCK:   -4.27 KCAL/MOL
REMARK 922        TOTAL FREE ENERGY PREDICTED BY IDOCK:   -7.06 KCAL/MOL
REMARK 923 INTER-LIGAND FREE ENERGY PREDICTED BY IDOCK:   -6.93 KCAL/MOL
REMARK 924 INTRA-LIGAND FREE ENERGY PREDICTED BY IDOCK:   -0.13 KCAL/MOL
REMARK 927      BINDING AFFINITY PREDICTED BY RF-SCORE:    0.00 PKD
ROOT
HETATM    1  C   UNL     1      -9.094   6.140  72.083  1.00  0.00    -0.141 C  
HETATM    2  O   UNL     1      -9.447   6.537  70.766  1.00  0.00    -0.170 OA 
ENDROOT
BRANCH   2   3
HETATM    3  C   UNL     1      -8.431   6.672  69.854  1.00  0.00    -0.139 A  
HETATM    4  C   UNL     1      -7.878   7.961  69.737  1.00  0.00    -0.104 A  
HETATM    5  C   UNL     1      -6.840   8.188  68.830  1.00  0.00    -0.061 A  
HETATM    6  C   UNL     1      -6.878   5.861  68.167  1.00  0.00    -0.067 A  
HETATM    7  C   UNL     1      -7.917   5.627  69.078  1.00  0.00    -0.096 A  
HETATM    8  C   UNL     1      -6.333   7.141  68.057  1.00  0.00    -0.044 A  
BRANCH   4   9
HETATM    9  O   UNL     1      -8.438   8.946  70.509  1.00  0.00    -0.141 OA 
BRANCH   9  10
HETATM   10  C   UNL     1      -9.817   9.253  70.304  1.00  0.00    -0.222 C  
BRANCH  10  11
HETATM   11  C   UNL     1     -10.014  10.524  69.469  1.00  0.00    -0.187 C  
BRANCH  11  12
HETATM   12  C   UNL     1     -10.938  10.351  68.250  1.00  0.00    -0.270 C  
BRANCH  12  13
HETATM   13  N   UNL     1     -11.550  11.619  67.840  1.00  0.00    -0.457 NA 
HETATM   14  C   UNL     1     -11.393  11.899  66.408  1.00  0.00    -0.339 C  
HETATM   15  C   UNL     1     -12.236  13.127  66.006  1.00  0.00    -0.478 C  
HETATM   16  C   UNL     1     -12.010  14.352  66.915  1.00  0.00    -0.425 C  
HETATM   17  C   UNL     1     -12.094  13.890  68.379  1.00  0.00    -0.327 C  
HETATM   18  C   UNL     1     -11.112  12.757  68.644  1.00  0.00    -0.266 C  
BRANCH  16  19
HETATM   19  C   UNL     1     -10.722  15.086  66.647  1.00  0.00    -0.312 A  
HETATM   20  N   UNL     1      -9.761  14.540  65.887  1.00  0.00    -0.311 NA 
HETATM   21  O   UNL     1      -8.668  15.376  65.993  1.00  0.00    -0.224 OA 
HETATM   22  C   UNL     1      -8.978  16.429  66.798  1.00  0.00    -0.236 A  
HETATM   23  C   UNL     1     -10.298  16.339  67.184  1.00  0.00    -0.285 A  
HETATM   24  C   UNL     1     -10.833  17.359  67.991  1.00  0.00    -0.281 A  
HETATM   25  C   UNL     1      -9.977  18.387  68.413  1.00  0.00    -0.406 A  
HETATM   26  C   UNL     1      -8.639  18.403  68.024  1.00  0.00    -0.272 A  
HETATM   27  C   UNL     1      -8.100  17.437  67.180  1.00  0.00    -0.229 A  
HETATM   28  F   UNL     1      -7.845  19.379  68.483  1.00  0.00    -0.335 F  
ENDBRANCH  16  19
ENDBRANCH  12  13
ENDBRANCH  11  12
ENDBRANCH  10  11
ENDBRANCH   9  10
ENDBRANCH   4   9
BRANCH   6  29
HETATM   29  C   UNL     1      -6.392   4.719  67.346  1.00  0.00    -0.040 C  
HETATM   30  O   UNL     1      -5.848   4.941  66.266  1.00  0.00    -0.021 OA 
HETATM   31  C   UNL     1      -6.513   3.312  67.876  1.00  0.00    -0.037 C  
ENDBRANCH   6  29
ENDBRANCH   2   3
TORSDOF 8
ENDMDL
MODEL      252
REMARK 921   NORMALIZED FREE ENERGY PREDICTED BY IDOCK:   -4.26 KCAL/MOL
REMARK 922        TOTAL FREE ENERGY PREDICTED BY IDOCK:   -7.05 KCAL/MOL
REMARK 923 INTER-LIGAND FREE ENERGY PREDICTED BY IDOCK:   -6.40 KCAL/MOL
REMARK 924 INTRA-LIGAND FREE ENERGY PREDICTED BY IDOCK:   -0.65 KCAL/MOL
REMARK 927      BINDING AFFINITY PREDICTED BY RF-SCORE:    0.00 PKD
ROOT
HETATM    1  C   UNL     1     -10.979   7.281  67.190  1.00  0.00    -0.215 C  
HETATM    2  O   UNL     1     -10.163   6.437  66.391  1.00  0.00    -0.110 OA 
ENDROOT
BRANCH   2   3
HETATM    3  C   UNL     1      -9.112   5.806  67.008  1.00  0.00    -0.114 A  
HETATM    4  C   UNL     1      -7.847   6.005  66.424  1.00  0.00    -0.104 A  
HETATM    5  C   UNL     1      -6.722   5.398  66.987  1.00  0.00    -0.062 A  
HETATM    6  C   UNL     1      -8.093   4.413  68.721  1.00  0.00    -0.077 A  
HETATM    7  C   UNL     1      -9.224   5.022  68.162  1.00  0.00    -0.143 A  
HETATM    8  C   UNL     1      -6.842   4.615  68.139  1.00  0.00    -0.055 A  
BRANCH   4   9
HETATM    9  O   UNL     1      -7.805   6.766  65.285  1.00  0.00    -0.105 OA 
BRANCH   9  10
HETATM   10  C   UNL     1      -7.166   8.041  65.356  1.00  0.00    -0.064 C  
BRANCH  10  11
HETATM   11  C   UNL     1      -7.223   8.643  66.765  1.00  0.00    -0.078 C  
BRANCH  11  12
HETATM   12  C   UNL     1      -7.378  10.175  66.801  1.00  0.00    -0.104 C  
BRANCH  12  13
HETATM   13  N   UNL     1      -8.783  10.588  66.722  1.00  0.00    -0.131 NA 
HETATM   14  C   UNL     1      -9.223  10.880  65.353  1.00  0.00    -0.207 C  
HETATM   15  C   UNL     1     -10.749  11.097  65.314  1.00  0.00    -0.271 C  
HETATM   16  C   UNL     1     -11.254  12.105  66.367  1.00  0.00    -0.380 C  
HETATM   17  C   UNL     1     -10.629  11.741  67.724  1.00  0.00    -0.232 C  
HETATM   18  C   UNL     1      -9.111  11.690  67.621  1.00  0.00    -0.174 C  
BRANCH  16  19
HETATM   19  C   UNL     1     -10.991  13.546  66.013  1.00  0.00    -0.275 A  
HETATM   20  N   UNL     1     -10.548  13.887  64.793  1.00  0.00    -0.413 NA 
HETATM   21  O   UNL     1     -10.242  15.231  64.860  1.00  0.00    -0.336 OA 
HETATM   22  C   UNL     1     -10.519  15.698  66.108  1.00  0.00    -0.317 A  
HETATM   23  C   UNL     1     -11.070  14.688  66.865  1.00  0.00    -0.333 A  
HETATM   24  C   UNL     1     -11.469  14.975  68.182  1.00  0.00    -0.355 A  
HETATM   25  C   UNL     1     -11.228  16.265  68.681  1.00  0.00    -0.354 A  
HETATM   26  C   UNL     1     -10.628  17.235  67.880  1.00  0.00    -0.384 A  
HETATM   27  C   UNL     1     -10.277  16.992  66.556  1.00  0.00    -0.321 A  
HETATM   28  F   UNL     1     -10.377  18.441  68.407  1.00  0.00    -0.348 F  
ENDBRANCH  16  19
ENDBRANCH  12  13
ENDBRANCH  11  12
ENDBRANCH  10  11
ENDBRANCH   9  10
ENDBRANCH   4   9
BRANCH   6  29
HETATM   29  C   UNL     1      -8.276   3.565  69.931  1.00  0.00    -0.052 C  
HETATM   30  O   UNL     1      -7.333   2.893  70.345  1.00  0.00    -0.040 OA 
HETATM   31  C   UNL     1      -9.592   3.589  70.669  1.00  0.00    -0.247 C  
ENDBRANCH   6  29
ENDBRANCH   2   3
TORSDOF 8
ENDMDL
MODEL      253
REMARK 921   NORMALIZED FREE ENERGY PREDICTED BY IDOCK:   -4.26 KCAL/MOL
REMARK 922        TOTAL FREE ENERGY PREDICTED BY IDOCK:   -7.05 KCAL/MOL
REMARK 923 INTER-LIGAND FREE ENERGY PREDICTED BY IDOCK:   -4.96 KCAL/MOL
REMARK 924 INTRA-LIGAND FREE ENERGY PREDICTED BY IDOCK:   -2.09 KCAL/MOL
REMARK 927      BINDING AFFINITY PREDICTED BY RF-SCORE:    0.00 PKD
ROOT
HETATM    1  C   UNL     1     -12.553   7.340  71.556  1.00  0.00    -0.379 C  
HETATM    2  O   UNL     1     -11.220   7.639  71.171  1.00  0.00    -0.252 OA 
ENDROOT
BRANCH   2   3
HETATM    3  C   UNL     1     -11.010   8.036  69.874  1.00  0.00    -0.172 A  
HETATM    4  C   UNL     1     -10.777   7.004  68.946  1.00  0.00    -0.200 A  
HETATM    5  C   UNL     1     -10.553   7.319  67.604  1.00  0.00    -0.316 A  
HETATM    6  C   UNL     1     -10.811   9.675  68.089  1.00  0.00    -0.241 A  
HETATM    7  C   UNL     1     -11.040   9.364  69.436  1.00  0.00    -0.098 A  
HETATM    8  C   UNL     1     -10.581   8.648  67.174  1.00  0.00    -0.304 A  
BRANCH   4   9
HETATM    9  O   UNL     1     -10.741   5.725  69.440  1.00  0.00    -0.288 OA 
BRANCH   9  10
HETATM   10  C   UNL     1      -9.563   4.953  69.208  1.00  0.00    -0.171 C  
BRANCH  10  11
HETATM   11  C   UNL     1      -8.345   5.510  69.955  1.00  0.00    -0.105 C  
BRANCH  11  12
HETATM   12  C   UNL     1      -7.031   4.749  69.692  1.00  0.00    -0.053 C  
BRANCH  12  13
HETATM   13  N   UNL     1      -6.249   5.361  68.613  1.00  0.00    -0.029 NA 
HETATM   14  C   UNL     1      -6.347   6.825  68.587  1.00  0.00    -0.031 C  
HETATM   15  C   UNL     1      -5.342   7.413  67.576  1.00  0.00    -0.025 C  
HETATM   16  C   UNL     1      -5.412   6.752  66.184  1.00  0.00    -0.018 C  
HETATM   17  C   UNL     1      -5.410   5.226  66.372  1.00  0.00    -0.012 C  
HETATM   18  C   UNL     1      -6.539   4.796  67.299  1.00  0.00    -0.050 C  
BRANCH  16  19
HETATM   19  C   UNL     1      -6.586   7.199  65.351  1.00  0.00    -0.047 A  
HETATM   20  N   UNL     1      -7.085   6.413  64.385  1.00  0.00    -0.054 NA 
HETATM   21  O   UNL     1      -8.013   7.180  63.710  1.00  0.00    -0.128 OA 
HETATM   22  C   UNL     1      -8.084   8.414  64.281  1.00  0.00    -0.151 A  
HETATM   23  C   UNL     1      -7.252   8.460  65.378  1.00  0.00    -0.082 A  
HETATM   24  C   UNL     1      -7.209   9.642  66.139  1.00  0.00    -0.098 A  
HETATM   25  C   UNL     1      -7.971  10.738  65.705  1.00  0.00    -0.122 A  
HETATM   26  C   UNL     1      -8.762  10.644  64.562  1.00  0.00    -0.145 A  
HETATM   27  C   UNL     1      -8.866   9.469  63.825  1.00  0.00    -0.238 A  
HETATM   28  F   UNL     1      -9.442  11.726  64.157  1.00  0.00    -0.200 F  
ENDBRANCH  16  19
ENDBRANCH  12  13
ENDBRANCH  11  12
ENDBRANCH  10  11
ENDBRANCH   9  10
ENDBRANCH   4   9
BRANCH   6  29
HETATM   29  C   UNL     1     -10.824  11.108  67.686  1.00  0.00    -0.247 C  
HETATM   30  O   UNL     1     -11.568  11.472  66.777  1.00  0.00    -0.492 OA 
HETATM   31  C   UNL     1      -9.974  12.104  68.435  1.00  0.00    -0.206 C  
ENDBRANCH   6  29
ENDBRANCH   2   3
TORSDOF 8
ENDMDL
MODEL      254
REMARK 921   NORMALIZED FREE ENERGY PREDICTED BY IDOCK:   -4.26 KCAL/MOL
REMARK 922        TOTAL FREE ENERGY PREDICTED BY IDOCK:   -7.04 KCAL/MOL
REMARK 923 INTER-LIGAND FREE ENERGY PREDICTED BY IDOCK:   -5.87 KCAL/MOL
REMARK 924 INTRA-LIGAND FREE ENERGY PREDICTED BY IDOCK:   -1.17 KCAL/MOL
REMARK 927      BINDING AFFINITY PREDICTED BY RF-SCORE:    0.00 PKD
ROOT
HETATM    1  C   UNL     1      -8.084   8.203  71.330  1.00  0.00    -0.107 C  
HETATM    2  O   UNL     1      -8.455   8.445  69.980  1.00  0.00    -0.120 OA 
ENDROOT
BRANCH   2   3
HETATM    3  C   UNL     1      -9.433   9.380  69.753  1.00  0.00    -0.202 A  
HETATM    4  C   UNL     1      -9.201  10.264  68.683  1.00  0.00    -0.159 A  
HETATM    5  C   UNL     1     -10.146  11.248  68.382  1.00  0.00    -0.202 A  
HETATM    6  C   UNL     1     -11.563  10.472  70.183  1.00  0.00    -0.408 A  
HETATM    7  C   UNL     1     -10.620   9.480  70.487  1.00  0.00    -0.358 A  
HETATM    8  C   UNL     1     -11.328  11.344  69.121  1.00  0.00    -0.353 A  
BRANCH   4   9
HETATM    9  O   UNL     1      -8.012  10.127  68.015  1.00  0.00    -0.100 OA 
BRANCH   9  10
HETATM   10  C   UNL     1      -7.969  10.514  66.641  1.00  0.00    -0.125 C  
BRANCH  10  11
HETATM   11  C   UNL     1      -8.598   9.462  65.720  1.00  0.00    -0.161 C  
BRANCH  11  12
HETATM   12  C   UNL     1      -7.851   8.115  65.685  1.00  0.00    -0.098 C  
BRANCH  12  13
HETATM   13  N   UNL     1      -8.769   6.975  65.773  1.00  0.00    -0.133 NA 
HETATM   14  C   UNL     1      -9.322   6.782  67.119  1.00  0.00    -0.136 C  
HETATM   15  C   UNL     1     -10.432   5.713  67.095  1.00  0.00    -0.334 C  
HETATM   16  C   UNL     1     -10.012   4.405  66.394  1.00  0.00    -0.252 C  
HETATM   17  C   UNL     1      -9.354   4.766  65.052  1.00  0.00    -0.113 C  
HETATM   18  C   UNL     1      -8.197   5.733  65.262  1.00  0.00    -0.139 C  
BRANCH  16  19
HETATM   19  C   UNL     1      -9.114   3.524  67.223  1.00  0.00    -0.170 A  
HETATM   20  N   UNL     1      -8.308   2.621  66.646  1.00  0.00    -0.086 NA 
HETATM   21  O   UNL     1      -7.772   1.874  67.675  1.00  0.00    -0.058 OA 
HETATM   22  C   UNL     1      -8.239   2.339  68.865  1.00  0.00    -0.051 A  
HETATM   23  C   UNL     1      -9.040   3.439  68.646  1.00  0.00    -0.207 A  
HETATM   24  C   UNL     1      -9.593   4.100  69.757  1.00  0.00    -0.281 A  
HETATM   25  C   UNL     1      -9.351   3.568  71.033  1.00  0.00    -0.213 A  
HETATM   26  C   UNL     1      -8.566   2.427  71.189  1.00  0.00    -0.059 A  
HETATM   27  C   UNL     1      -7.961   1.789  70.111  1.00  0.00    -0.051 A  
HETATM   28  F   UNL     1      -8.394   1.925  72.419  1.00  0.00    -0.051 F  
ENDBRANCH  16  19
ENDBRANCH  12  13
ENDBRANCH  11  12
ENDBRANCH  10  11
ENDBRANCH   9  10
ENDBRANCH   4   9
BRANCH   6  29
HETATM   29  C   UNL     1     -12.793  10.552  71.018  1.00  0.00    -0.407 C  
HETATM   30  O   UNL     1     -13.438   9.529  71.242  1.00  0.00    -0.370 OA 
HETATM   31  C   UNL     1     -13.198  11.870  71.629  1.00  0.00    -0.364 C  
ENDBRANCH   6  29
ENDBRANCH   2   3
TORSDOF 8
ENDMDL
MODEL      255
REMARK 921   NORMALIZED FREE ENERGY PREDICTED BY IDOCK:   -4.25 KCAL/MOL
REMARK 922        TOTAL FREE ENERGY PREDICTED BY IDOCK:   -7.03 KCAL/MOL
REMARK 923 INTER-LIGAND FREE ENERGY PREDICTED BY IDOCK:   -6.70 KCAL/MOL
REMARK 924 INTRA-LIGAND FREE ENERGY PREDICTED BY IDOCK:   -0.34 KCAL/MOL
REMARK 927      BINDING AFFINITY PREDICTED BY RF-SCORE:    0.00 PKD
ROOT
HETATM    1  C   UNL     1      -6.519  14.914  68.182  1.00  0.00    -0.133 C  
HETATM    2  O   UNL     1      -7.518  14.980  67.175  1.00  0.00    -0.200 OA 
ENDROOT
BRANCH   2   3
HETATM    3  C   UNL     1      -8.004  16.221  66.849  1.00  0.00    -0.243 A  
HETATM    4  C   UNL     1      -9.402  16.320  66.724  1.00  0.00    -0.237 A  
HETATM    5  C   UNL     1      -9.981  17.547  66.392  1.00  0.00    -0.330 A  
HETATM    6  C   UNL     1      -7.798  18.588  66.329  1.00  0.00    -0.282 A  
HETATM    7  C   UNL     1      -7.212  17.360  66.665  1.00  0.00    -0.275 A  
HETATM    8  C   UNL     1      -9.184  18.680  66.207  1.00  0.00    -0.242 A  
BRANCH   4   9
HETATM    9  O   UNL     1     -10.121  15.166  66.897  1.00  0.00    -0.249 OA 
BRANCH   9  10
HETATM   10  C   UNL     1     -11.523  15.283  67.142  1.00  0.00    -0.200 C  
BRANCH  10  11
HETATM   11  C   UNL     1     -12.166  13.938  67.501  1.00  0.00    -0.266 C  
BRANCH  11  12
HETATM   12  C   UNL     1     -11.782  12.776  66.565  1.00  0.00    -0.400 C  
BRANCH  12  13
HETATM   13  N   UNL     1     -10.685  11.970  67.110  1.00  0.00    -0.231 NA 
HETATM   14  C   UNL     1     -10.743  10.562  66.699  1.00  0.00    -0.155 C  
HETATM   15  C   UNL     1      -9.457   9.826  67.124  1.00  0.00    -0.189 C  
HETATM   16  C   UNL     1      -9.090  10.034  68.608  1.00  0.00    -0.139 C  
HETATM   17  C   UNL     1      -9.177  11.537  68.922  1.00  0.00     0.005 C  
HETATM   18  C   UNL     1     -10.550  12.085  68.559  1.00  0.00    -0.231 C  
BRANCH  16  19
HETATM   19  C   UNL     1      -9.928   9.228  69.566  1.00  0.00    -0.187 A  
HETATM   20  N   UNL     1     -11.195   9.575  69.837  1.00  0.00    -0.214 NA 
HETATM   21  O   UNL     1     -11.604   8.753  70.868  1.00  0.00    -0.280 OA 
HETATM   22  C   UNL     1     -10.595   7.904  71.201  1.00  0.00    -0.213 A  
HETATM   23  C   UNL     1      -9.526   8.108  70.355  1.00  0.00    -0.163 A  
HETATM   24  C   UNL     1      -8.387   7.297  70.504  1.00  0.00    -0.133 A  
HETATM   25  C   UNL     1      -8.372   6.361  71.550  1.00  0.00    -0.125 A  
HETATM   26  C   UNL     1      -9.468   6.229  72.400  1.00  0.00    -0.144 A  
HETATM   27  C   UNL     1     -10.628   6.979  72.238  1.00  0.00    -0.242 A  
HETATM   28  F   UNL     1      -9.398   5.354  73.412  1.00  0.00    -0.134 F  
ENDBRANCH  16  19
ENDBRANCH  12  13
ENDBRANCH  11  12
ENDBRANCH  10  11
ENDBRANCH   9  10
ENDBRANCH   4   9
BRANCH   6  29
HETATM   29  C   UNL     1      -6.904  19.759  66.114  1.00  0.00    -0.240 C  
HETATM   30  O   UNL     1      -6.332  19.891  65.034  1.00  0.00    -0.248 OA 
HETATM   31  C   UNL     1      -6.761  20.799  67.198  1.00  0.00    -0.377 C  
ENDBRANCH   6  29
ENDBRANCH   2   3
TORSDOF 8
ENDMDL
MODEL      256
REMARK 921   NORMALIZED FREE ENERGY PREDICTED BY IDOCK:   -4.25 KCAL/MOL
REMARK 922        TOTAL FREE ENERGY PREDICTED BY IDOCK:   -7.03 KCAL/MOL
REMARK 923 INTER-LIGAND FREE ENERGY PREDICTED BY IDOCK:   -7.90 KCAL/MOL
REMARK 924 INTRA-LIGAND FREE ENERGY PREDICTED BY IDOCK:    0.86 KCAL/MOL
REMARK 927      BINDING AFFINITY PREDICTED BY RF-SCORE:    0.00 PKD
ROOT
HETATM    1  C   UNL     1     -11.953   8.709  71.776  1.00  0.00    -0.336 C  
HETATM    2  O   UNL     1     -11.192   9.797  71.271  1.00  0.00    -0.361 OA 
ENDROOT
BRANCH   2   3
HETATM    3  C   UNL     1     -10.905   9.797  69.929  1.00  0.00    -0.272 A  
HETATM    4  C   UNL     1     -11.638  10.707  69.144  1.00  0.00    -0.271 A  
HETATM    5  C   UNL     1     -11.409  10.772  67.768  1.00  0.00    -0.354 A  
HETATM    6  C   UNL     1      -9.715   9.053  67.944  1.00  0.00    -0.185 A  
HETATM    7  C   UNL     1      -9.938   8.986  69.325  1.00  0.00    -0.188 A  
HETATM    8  C   UNL     1     -10.444   9.957  67.171  1.00  0.00    -0.305 A  
BRANCH   4   9
HETATM    9  O   UNL     1     -12.584  11.459  69.791  1.00  0.00    -0.142 OA 
BRANCH   9  10
HETATM   10  C   UNL     1     -12.145  12.619  70.499  1.00  0.00    -0.275 C  
BRANCH  10  11
HETATM   11  C   UNL     1     -12.263  13.895  69.658  1.00  0.00    -0.374 C  
BRANCH  11  12
HETATM   12  C   UNL     1     -11.128  14.912  69.877  1.00  0.00    -0.259 C  
BRANCH  12  13
HETATM   13  N   UNL     1      -9.997  14.677  68.973  1.00  0.00    -0.219 NA 
HETATM   14  C   UNL     1      -8.721  15.173  69.504  1.00  0.00    -0.131 C  
HETATM   15  C   UNL     1      -7.552  14.706  68.613  1.00  0.00    -0.129 C  
HETATM   16  C   UNL     1      -7.766  14.998  67.114  1.00  0.00    -0.202 C  
HETATM   17  C   UNL     1      -9.178  14.526  66.726  1.00  0.00    -0.286 C  
HETATM   18  C   UNL     1     -10.227  15.173  67.620  1.00  0.00    -0.241 C  
BRANCH  16  19
HETATM   19  C   UNL     1      -7.548  16.439  66.731  1.00  0.00    -0.255 A  
HETATM   20  N   UNL     1      -6.311  16.925  66.551  1.00  0.00    -0.258 NA 
HETATM   21  O   UNL     1      -6.456  18.289  66.393  1.00  0.00    -0.176 OA 
HETATM   22  C   UNL     1      -7.775  18.616  66.458  1.00  0.00    -0.258 A  
HETATM   23  C   UNL     1      -8.526  17.469  66.597  1.00  0.00    -0.288 A  
HETATM   24  C   UNL     1      -9.927  17.585  66.641  1.00  0.00    -0.314 A  
HETATM   25  C   UNL     1     -10.487  18.871  66.605  1.00  0.00    -0.496 A  
HETATM   26  C   UNL     1      -9.673  19.997  66.506  1.00  0.00    -0.443 A  
HETATM   27  C   UNL     1      -8.289  19.907  66.403  1.00  0.00    -0.368 A  
HETATM   28  F   UNL     1     -10.244  21.209  66.517  1.00  0.00    -0.134 F  
ENDBRANCH  16  19
ENDBRANCH  12  13
ENDBRANCH  11  12
ENDBRANCH  10  11
ENDBRANCH   9  10
ENDBRANCH   4   9
BRANCH   6  29
HETATM   29  C   UNL     1      -8.696   8.145  67.350  1.00  0.00    -0.124 C  
HETATM   30  O   UNL     1      -8.989   7.471  66.364  1.00  0.00    -0.153 OA 
HETATM   31  C   UNL     1      -7.301   8.109  67.925  1.00  0.00    -0.096 C  
ENDBRANCH   6  29
ENDBRANCH   2   3
TORSDOF 8
ENDMDL
MODEL      257
REMARK 921   NORMALIZED FREE ENERGY PREDICTED BY IDOCK:   -4.18 KCAL/MOL
REMARK 922        TOTAL FREE ENERGY PREDICTED BY IDOCK:   -6.93 KCAL/MOL
REMARK 923 INTER-LIGAND FREE ENERGY PREDICTED BY IDOCK:   -6.00 KCAL/MOL
REMARK 924 INTRA-LIGAND FREE ENERGY PREDICTED BY IDOCK:   -0.92 KCAL/MOL
REMARK 927      BINDING AFFINITY PREDICTED BY RF-SCORE:    0.00 PKD
ROOT
HETATM    1  C   UNL     1     -10.379   7.411  70.126  1.00  0.00    -0.214 C  
HETATM    2  O   UNL     1      -9.729   7.497  68.866  1.00  0.00    -0.149 OA 
ENDROOT
BRANCH   2   3
HETATM    3  C   UNL     1      -8.663   6.661  68.647  1.00  0.00    -0.124 A  
HETATM    4  C   UNL     1      -7.400   7.277  68.593  1.00  0.00    -0.100 A  
HETATM    5  C   UNL     1      -6.260   6.500  68.372  1.00  0.00    -0.033 A  
HETATM    6  C   UNL     1      -7.615   4.498  68.280  1.00  0.00    -0.072 A  
HETATM    7  C   UNL     1      -8.761   5.272  68.505  1.00  0.00    -0.099 A  
HETATM    8  C   UNL     1      -6.365   5.114  68.228  1.00  0.00    -0.036 A  
BRANCH   4   9
HETATM    9  O   UNL     1      -7.372   8.642  68.720  1.00  0.00    -0.080 OA 
BRANCH   9  10
HETATM   10  C   UNL     1      -6.791   9.400  67.659  1.00  0.00    -0.076 C  
BRANCH  10  11
HETATM   11  C   UNL     1      -7.756  10.450  67.097  1.00  0.00    -0.100 C  
BRANCH  11  12
HETATM   12  C   UNL     1      -8.738   9.914  66.039  1.00  0.00    -0.137 C  
BRANCH  12  13
HETATM   13  N   UNL     1      -9.902  10.792  65.874  1.00  0.00    -0.227 NA 
HETATM   14  C   UNL     1      -9.631  11.954  65.019  1.00  0.00    -0.091 C  
HETATM   15  C   UNL     1     -10.939  12.712  64.714  1.00  0.00    -0.334 C  
HETATM   16  C   UNL     1     -11.770  13.036  65.973  1.00  0.00    -0.442 C  
HETATM   17  C   UNL     1     -11.878  11.759  66.823  1.00  0.00    -0.067 C  
HETATM   18  C   UNL     1     -10.496  11.205  67.142  1.00  0.00    -0.231 C  
BRANCH  16  19
HETATM   19  C   UNL     1     -11.233  14.187  66.783  1.00  0.00    -0.323 A  
HETATM   20  N   UNL     1     -10.356  15.054  66.254  1.00  0.00    -0.284 NA 
HETATM   21  O   UNL     1      -9.938  15.857  67.295  1.00  0.00    -0.234 OA 
HETATM   22  C   UNL     1     -10.576  15.488  68.439  1.00  0.00    -0.252 A  
HETATM   23  C   UNL     1     -11.471  14.478  68.160  1.00  0.00    -0.337 A  
HETATM   24  C   UNL     1     -12.268  13.977  69.205  1.00  0.00    -0.319 A  
HETATM   25  C   UNL     1     -12.067  14.491  70.495  1.00  0.00    -0.395 A  
HETATM   26  C   UNL     1     -11.116  15.484  70.724  1.00  0.00    -0.351 A  
HETATM   27  C   UNL     1     -10.356  16.036  69.698  1.00  0.00    -0.283 A  
HETATM   28  F   UNL     1     -10.925  15.918  71.977  1.00  0.00    -0.262 F  
ENDBRANCH  16  19
ENDBRANCH  12  13
ENDBRANCH  11  12
ENDBRANCH  10  11
ENDBRANCH   9  10
ENDBRANCH   4   9
BRANCH   6  29
HETATM   29  C   UNL     1      -7.782   3.029  68.104  1.00  0.00    -0.056 C  
HETATM   30  O   UNL     1      -6.787   2.306  68.093  1.00  0.00    -0.041 OA 
HETATM   31  C   UNL     1      -9.167   2.440  68.007  1.00  0.00    -0.254 C  
ENDBRANCH   6  29
ENDBRANCH   2   3
TORSDOF 8
ENDMDL
MODEL      258
REMARK 921   NORMALIZED FREE ENERGY PREDICTED BY IDOCK:   -4.17 KCAL/MOL
REMARK 922        TOTAL FREE ENERGY PREDICTED BY IDOCK:   -6.91 KCAL/MOL
REMARK 923 INTER-LIGAND FREE ENERGY PREDICTED BY IDOCK:   -6.08 KCAL/MOL
REMARK 924 INTRA-LIGAND FREE ENERGY PREDICTED BY IDOCK:   -0.83 KCAL/MOL
REMARK 927      BINDING AFFINITY PREDICTED BY RF-SCORE:    0.00 PKD
ROOT
HETATM    1  C   UNL     1     -11.938  11.560  67.337  1.00  0.00     0.158 C  
HETATM    2  O   UNL     1     -11.139  11.726  68.499  1.00  0.00    -0.205 OA 
ENDROOT
BRANCH   2   3
HETATM    3  C   UNL     1     -11.791  11.880  69.697  1.00  0.00    -0.337 A  
HETATM    4  C   UNL     1     -12.017  10.700  70.430  1.00  0.00    -0.346 A  
HETATM    5  C   UNL     1     -12.676  10.766  71.660  1.00  0.00    -0.520 A  
HETATM    6  C   UNL     1     -12.871  13.169  71.453  1.00  0.00    -0.401 A  
HETATM    7  C   UNL     1     -12.208  13.109  70.221  1.00  0.00    -0.376 A  
HETATM    8  C   UNL     1     -13.091  11.997  72.176  1.00  0.00    -0.352 A  
BRANCH   4   9
HETATM    9  O   UNL     1     -11.604   9.527  69.855  1.00  0.00    -0.135 OA 
BRANCH   9  10
HETATM   10  C   UNL     1     -11.316   8.426  70.717  1.00  0.00    -0.265 C  
BRANCH  10  11
HETATM   11  C   UNL     1     -11.295   7.088  69.967  1.00  0.00    -0.293 C  
BRANCH  11  12
HETATM   12  C   UNL     1      -9.972   6.310  70.084  1.00  0.00    -0.172 C  
BRANCH  12  13
HETATM   13  N   UNL     1      -9.527   5.784  68.789  1.00  0.00    -0.121 NA 
HETATM   14  C   UNL     1      -8.140   5.303  68.807  1.00  0.00    -0.090 C  
HETATM   15  C   UNL     1      -7.809   4.573  67.490  1.00  0.00    -0.089 C  
HETATM   16  C   UNL     1      -8.178   5.382  66.229  1.00  0.00    -0.110 C  
HETATM   17  C   UNL     1      -9.611   5.913  66.398  1.00  0.00    -0.173 C  
HETATM   18  C   UNL     1      -9.740   6.715  67.685  1.00  0.00    -0.124 C  
BRANCH  16  19
HETATM   19  C   UNL     1      -7.216   6.497  65.912  1.00  0.00    -0.074 A  
HETATM   20  N   UNL     1      -6.158   6.741  66.699  1.00  0.00    -0.035 NA 
HETATM   21  O   UNL     1      -5.601   7.916  66.238  1.00  0.00    -0.028 OA 
HETATM   22  C   UNL     1      -6.309   8.365  65.166  1.00  0.00    -0.052 A  
HETATM   23  C   UNL     1      -7.305   7.462  64.864  1.00  0.00    -0.080 A  
HETATM   24  C   UNL     1      -8.132   7.718  63.755  1.00  0.00    -0.051 A  
HETATM   25  C   UNL     1      -7.939   8.915  63.048  1.00  0.00    -0.161 A  
HETATM   26  C   UNL     1      -6.941   9.811  63.427  1.00  0.00    -0.118 A  
HETATM   27  C   UNL     1      -6.074   9.553  64.484  1.00  0.00    -0.082 A  
HETATM   28  F   UNL     1      -6.817  10.961  62.752  1.00  0.00    -0.107 F  
ENDBRANCH  16  19
ENDBRANCH  12  13
ENDBRANCH  11  12
ENDBRANCH  10  11
ENDBRANCH   9  10
ENDBRANCH   4   9
BRANCH   6  29
HETATM   29  C   UNL     1     -13.319  14.500  71.947  1.00  0.00    -0.365 C  
HETATM   30  O   UNL     1     -14.304  14.572  72.680  1.00  0.00    -0.450 OA 
HETATM   31  C   UNL     1     -12.524  15.734  71.598  1.00  0.00    -0.525 C  
ENDBRANCH   6  29
ENDBRANCH   2   3
TORSDOF 8
ENDMDL
MODEL      259
REMARK 921   NORMALIZED FREE ENERGY PREDICTED BY IDOCK:   -4.16 KCAL/MOL
REMARK 922        TOTAL FREE ENERGY PREDICTED BY IDOCK:   -6.90 KCAL/MOL
REMARK 923 INTER-LIGAND FREE ENERGY PREDICTED BY IDOCK:   -6.32 KCAL/MOL
REMARK 924 INTRA-LIGAND FREE ENERGY PREDICTED BY IDOCK:   -0.58 KCAL/MOL
REMARK 927      BINDING AFFINITY PREDICTED BY RF-SCORE:    0.00 PKD
ROOT
HETATM    1  C   UNL     1      -8.729  16.781  66.307  1.00  0.00    -0.307 C  
HETATM    2  O   UNL     1      -9.507  15.775  65.676  1.00  0.00    -0.316 OA 
ENDROOT
BRANCH   2   3
HETATM    3  C   UNL     1     -10.435  15.119  66.446  1.00  0.00    -0.297 A  
HETATM    4  C   UNL     1     -11.141  14.084  65.807  1.00  0.00    -0.305 A  
HETATM    5  C   UNL     1     -12.106  13.365  66.516  1.00  0.00    -0.444 A  
HETATM    6  C   UNL     1     -11.660  14.678  68.499  1.00  0.00    -0.346 A  
HETATM    7  C   UNL     1     -10.689  15.400  67.793  1.00  0.00    -0.289 A  
HETATM    8  C   UNL     1     -12.357  13.652  67.860  1.00  0.00     0.008 A  
BRANCH   4   9
HETATM    9  O   UNL     1     -10.861  13.870  64.482  1.00  0.00    -0.398 OA 
BRANCH   9  10
HETATM   10  C   UNL     1     -10.644  12.525  64.053  1.00  0.00    -0.421 C  
BRANCH  10  11
HETATM   11  C   UNL     1      -9.584  11.809  64.898  1.00  0.00    -0.132 C  
BRANCH  11  12
HETATM   12  C   UNL     1      -9.615  10.272  64.793  1.00  0.00    -0.307 C  
BRANCH  12  13
HETATM   13  N   UNL     1     -10.131   9.648  66.016  1.00  0.00    -0.276 NA 
HETATM   14  C   UNL     1     -10.107  10.546  67.177  1.00  0.00    -0.209 C  
HETATM   15  C   UNL     1     -10.855   9.907  68.364  1.00  0.00    -0.263 C  
HETATM   16  C   UNL     1     -10.400   8.466  68.674  1.00  0.00    -0.222 C  
HETATM   17  C   UNL     1     -10.369   7.675  67.355  1.00  0.00    -0.347 C  
HETATM   18  C   UNL     1      -9.489   8.375  66.328  1.00  0.00    -0.224 C  
BRANCH  16  19
HETATM   19  C   UNL     1      -9.080   8.379  69.394  1.00  0.00    -0.154 A  
HETATM   20  N   UNL     1      -8.684   7.237  69.974  1.00  0.00    -0.140 NA 
HETATM   21  O   UNL     1      -7.543   7.546  70.687  1.00  0.00    -0.082 OA 
HETATM   22  C   UNL     1      -7.245   8.863  70.519  1.00  0.00    -0.071 A  
HETATM   23  C   UNL     1      -8.146   9.429  69.645  1.00  0.00    -0.123 A  
HETATM   24  C   UNL     1      -7.989  10.784  69.301  1.00  0.00    -0.110 A  
HETATM   25  C   UNL     1      -6.957  11.508  69.917  1.00  0.00     0.183 A  
HETATM   26  C   UNL     1      -6.101  10.890  70.827  1.00  0.00     0.020 A  
HETATM   27  C   UNL     1      -6.200   9.538  71.139  1.00  0.00    -0.068 A  
HETATM   28  F   UNL     1      -5.154  11.626  71.424  1.00  0.00    -0.106 F  
ENDBRANCH  16  19
ENDBRANCH  12  13
ENDBRANCH  11  12
ENDBRANCH  10  11
ENDBRANCH   9  10
ENDBRANCH   4   9
BRANCH   6  29
HETATM   29  C   UNL     1     -11.911  15.041  69.921  1.00  0.00    -0.324 C  
HETATM   30  O   UNL     1     -13.042  15.375  70.268  1.00  0.00    -0.262 OA 
HETATM   31  C   UNL     1     -10.793  14.932  70.928  1.00  0.00     0.015 C  
ENDBRANCH   6  29
ENDBRANCH   2   3
TORSDOF 8
ENDMDL
MODEL      260
REMARK 921   NORMALIZED FREE ENERGY PREDICTED BY IDOCK:   -4.15 KCAL/MOL
REMARK 922        TOTAL FREE ENERGY PREDICTED BY IDOCK:   -6.89 KCAL/MOL
REMARK 923 INTER-LIGAND FREE ENERGY PREDICTED BY IDOCK:   -6.13 KCAL/MOL
REMARK 924 INTRA-LIGAND FREE ENERGY PREDICTED BY IDOCK:   -0.76 KCAL/MOL
REMARK 927      BINDING AFFINITY PREDICTED BY RF-SCORE:    0.00 PKD
ROOT
HETATM    1  C   UNL     1     -10.399   4.460  65.827  1.00  0.00    -0.217 C  
HETATM    2  O   UNL     1      -9.876   5.535  66.593  1.00  0.00    -0.146 OA 
ENDROOT
BRANCH   2   3
HETATM    3  C   UNL     1      -9.773   5.352  67.949  1.00  0.00    -0.136 A  
HETATM    4  C   UNL     1      -8.659   4.612  68.386  1.00  0.00    -0.097 A  
HETATM    5  C   UNL     1      -8.477   4.376  69.751  1.00  0.00    -0.086 A  
HETATM    6  C   UNL     1     -10.488   5.624  70.258  1.00  0.00    -0.363 A  
HETATM    7  C   UNL     1     -10.672   5.865  68.890  1.00  0.00    -0.370 A  
HETATM    8  C   UNL     1      -9.381   4.890  70.685  1.00  0.00    -0.222 A  
BRANCH   4   9
HETATM    9  O   UNL     1      -7.825   4.119  67.416  1.00  0.00    -0.090 OA 
BRANCH   9  10
HETATM   10  C   UNL     1      -6.436   4.440  67.503  1.00  0.00    -0.042 C  
BRANCH  10  11
HETATM   11  C   UNL     1      -6.142   5.880  67.068  1.00  0.00    -0.025 C  
BRANCH  11  12
HETATM   12  C   UNL     1      -6.747   6.273  65.707  1.00  0.00    -0.048 C  
BRANCH  12  13
HETATM   13  N   UNL     1      -6.654   7.715  65.460  1.00  0.00    -0.045 NA 
HETATM   14  C   UNL     1      -7.112   8.526  66.594  1.00  0.00    -0.077 C  
HETATM   15  C   UNL     1      -6.790  10.015  66.355  1.00  0.00    -0.093 C  
HETATM   16  C   UNL     1      -7.260  10.533  64.980  1.00  0.00     0.005 C  
HETATM   17  C   UNL     1      -6.804   9.532  63.905  1.00  0.00    -0.105 C  
HETATM   18  C   UNL     1      -7.308   8.131  64.224  1.00  0.00    -0.094 C  
BRANCH  16  19
HETATM   19  C   UNL     1      -8.742  10.789  64.894  1.00  0.00    -0.126 A  
HETATM   20  N   UNL     1      -9.492  10.195  63.954  1.00  0.00    -0.286 NA 
HETATM   21  O   UNL     1     -10.741  10.776  64.039  1.00  0.00    -0.281 OA 
HETATM   22  C   UNL     1     -10.746  11.700  65.037  1.00  0.00    -0.296 A  
HETATM   23  C   UNL     1      -9.521  11.699  65.669  1.00  0.00    -0.228 A  
HETATM   24  C   UNL     1      -9.330  12.559  66.765  1.00  0.00    -0.230 A  
HETATM   25  C   UNL     1     -10.379  13.421  67.122  1.00  0.00    -0.246 A  
HETATM   26  C   UNL     1     -11.581  13.406  66.418  1.00  0.00    -0.346 A  
HETATM   27  C   UNL     1     -11.815  12.525  65.367  1.00  0.00    -0.479 A  
HETATM   28  F   UNL     1     -12.542  14.273  66.763  1.00  0.00    -0.460 F  
ENDBRANCH  16  19
ENDBRANCH  12  13
ENDBRANCH  11  12
ENDBRANCH  10  11
ENDBRANCH   9  10
ENDBRANCH   4   9
BRANCH   6  29
HETATM   29  C   UNL     1     -11.493   6.168  71.211  1.00  0.00    -0.247 C  
HETATM   30  O   UNL     1     -12.262   7.053  70.837  1.00  0.00    -0.364 OA 
HETATM   31  C   UNL     1     -11.601   5.586  72.598  1.00  0.00    -0.293 C  
ENDBRANCH   6  29
ENDBRANCH   2   3
TORSDOF 8
ENDMDL
MODEL      261
REMARK 921   NORMALIZED FREE ENERGY PREDICTED BY IDOCK:   -4.15 KCAL/MOL
REMARK 922        TOTAL FREE ENERGY PREDICTED BY IDOCK:   -6.89 KCAL/MOL
REMARK 923 INTER-LIGAND FREE ENERGY PREDICTED BY IDOCK:   -5.75 KCAL/MOL
REMARK 924 INTRA-LIGAND FREE ENERGY PREDICTED BY IDOCK:   -1.14 KCAL/MOL
REMARK 927      BINDING AFFINITY PREDICTED BY RF-SCORE:    0.00 PKD
ROOT
HETATM    1  C   UNL     1     -11.743  15.102  66.750  1.00  0.00    -0.065 C  
HETATM    2  O   UNL     1     -11.880  13.693  66.644  1.00  0.00    -0.364 OA 
ENDROOT
BRANCH   2   3
HETATM    3  C   UNL     1     -11.832  12.964  67.806  1.00  0.00    -0.339 A  
HETATM    4  C   UNL     1     -11.142  11.740  67.735  1.00  0.00    -0.243 A  
HETATM    5  C   UNL     1     -11.046  10.934  68.872  1.00  0.00    -0.307 A  
HETATM    6  C   UNL     1     -12.297  12.557  70.158  1.00  0.00    -0.210 A  
HETATM    7  C   UNL     1     -12.393  13.371  69.021  1.00  0.00    -0.014 A  
HETATM    8  C   UNL     1     -11.610  11.346  70.082  1.00  0.00    -0.368 A  
BRANCH   4   9
HETATM    9  O   UNL     1     -10.632  11.388  66.512  1.00  0.00    -0.243 OA 
BRANCH   9  10
HETATM   10  C   UNL     1      -9.273  11.725  66.233  1.00  0.00    -0.221 C  
BRANCH  10  11
HETATM   11  C   UNL     1      -8.319  10.550  66.476  1.00  0.00    -0.141 C  
BRANCH  11  12
HETATM   12  C   UNL     1      -8.539   9.344  65.544  1.00  0.00    -0.151 C  
BRANCH  12  13
HETATM   13  N   UNL     1      -8.457   8.070  66.265  1.00  0.00    -0.126 NA 
HETATM   14  C   UNL     1      -9.760   7.596  66.748  1.00  0.00    -0.222 C  
HETATM   15  C   UNL     1      -9.637   6.162  67.303  1.00  0.00    -0.126 C  
HETATM   16  C   UNL     1      -8.488   5.991  68.318  1.00  0.00    -0.112 C  
HETATM   17  C   UNL     1      -7.220   6.627  67.724  1.00  0.00    -0.091 C  
HETATM   18  C   UNL     1      -7.473   8.079  67.343  1.00  0.00    -0.093 C  
BRANCH  16  19
HETATM   19  C   UNL     1      -8.789   6.547  69.685  1.00  0.00    -0.138 A  
HETATM   20  N   UNL     1      -9.929   7.214  69.924  1.00  0.00    -0.180 NA 
HETATM   21  O   UNL     1      -9.808   7.733  71.197  1.00  0.00    -0.169 OA 
HETATM   22  C   UNL     1      -8.611   7.364  71.726  1.00  0.00    -0.115 A  
HETATM   23  C   UNL     1      -7.949   6.543  70.839  1.00  0.00    -0.111 A  
HETATM   24  C   UNL     1      -6.701   6.014  71.214  1.00  0.00    -0.058 A  
HETATM   25  C   UNL     1      -6.164   6.399  72.452  1.00  0.00    -0.049 A  
HETATM   26  C   UNL     1      -6.861   7.266  73.290  1.00  0.00    -0.065 A  
HETATM   27  C   UNL     1      -8.122   7.758  72.967  1.00  0.00    -0.174 A  
HETATM   28  F   UNL     1      -6.295   7.643  74.445  1.00  0.00    -0.084 F  
ENDBRANCH  16  19
ENDBRANCH  12  13
ENDBRANCH  11  12
ENDBRANCH  10  11
ENDBRANCH   9  10
ENDBRANCH   4   9
BRANCH   6  29
HETATM   29  C   UNL     1     -12.939  13.027  71.416  1.00  0.00    -0.283 C  
HETATM   30  O   UNL     1     -13.548  12.223  72.119  1.00  0.00    -0.461 OA 
HETATM   31  C   UNL     1     -12.782  14.465  71.845  1.00  0.00    -0.426 C  
ENDBRANCH   6  29
ENDBRANCH   2   3
TORSDOF 8
ENDMDL
MODEL      262
REMARK 921   NORMALIZED FREE ENERGY PREDICTED BY IDOCK:   -4.13 KCAL/MOL
REMARK 922        TOTAL FREE ENERGY PREDICTED BY IDOCK:   -6.85 KCAL/MOL
REMARK 923 INTER-LIGAND FREE ENERGY PREDICTED BY IDOCK:   -6.23 KCAL/MOL
REMARK 924 INTRA-LIGAND FREE ENERGY PREDICTED BY IDOCK:   -0.62 KCAL/MOL
REMARK 927      BINDING AFFINITY PREDICTED BY RF-SCORE:    0.00 PKD
ROOT
HETATM    1  C   UNL     1     -10.656  11.093  68.425  1.00  0.00    -0.193 C  
HETATM    2  O   UNL     1     -10.153  10.544  67.216  1.00  0.00    -0.185 OA 
ENDROOT
BRANCH   2   3
HETATM    3  C   UNL     1     -10.358  11.260  66.064  1.00  0.00    -0.252 A  
HETATM    4  C   UNL     1     -10.017  10.607  64.865  1.00  0.00    -0.318 A  
HETATM    5  C   UNL     1     -10.193  11.264  63.645  1.00  0.00    -0.446 A  
HETATM    6  C   UNL     1     -11.066  13.208  64.792  1.00  0.00    -0.351 A  
HETATM    7  C   UNL     1     -10.895  12.552  66.018  1.00  0.00    -0.309 A  
HETATM    8  C   UNL     1     -10.727  12.555  63.607  1.00  0.00    -0.469 A  
BRANCH   4   9
HETATM    9  O   UNL     1      -9.478   9.351  64.977  1.00  0.00    -0.247 OA 
BRANCH   9  10
HETATM   10  C   UNL     1      -8.124   9.166  64.564  1.00  0.00    -0.139 C  
BRANCH  10  11
HETATM   11  C   UNL     1      -7.455   7.983  65.274  1.00  0.00    -0.080 C  
BRANCH  11  12
HETATM   12  C   UNL     1      -8.404   7.143  66.150  1.00  0.00    -0.133 C  
BRANCH  12  13
HETATM   13  N   UNL     1      -7.683   6.129  66.926  1.00  0.00    -0.102 NA 
HETATM   14  C   UNL     1      -8.268   4.788  66.808  1.00  0.00    -0.107 C  
HETATM   15  C   UNL     1      -7.347   3.742  67.467  1.00  0.00    -0.067 C  
HETATM   16  C   UNL     1      -6.916   4.116  68.900  1.00  0.00    -0.047 C  
HETATM   17  C   UNL     1      -6.430   5.575  68.892  1.00  0.00    -0.042 C  
HETATM   18  C   UNL     1      -7.502   6.497  68.327  1.00  0.00    -0.095 C  
BRANCH  16  19
HETATM   19  C   UNL     1      -7.985   3.902  69.939  1.00  0.00    -0.051 A  
HETATM   20  N   UNL     1      -8.971   3.015  69.741  1.00  0.00    -0.094 NA 
HETATM   21  O   UNL     1      -9.862   3.195  70.780  1.00  0.00    -0.139 OA 
HETATM   22  C   UNL     1      -9.402   4.173  71.607  1.00  0.00    -0.141 A  
HETATM   23  C   UNL     1      -8.173   4.609  71.164  1.00  0.00    -0.092 A  
HETATM   24  C   UNL     1      -7.501   5.595  71.908  1.00  0.00    -0.095 A  
HETATM   25  C   UNL     1      -8.147   6.131  73.033  1.00  0.00    -0.112 A  
HETATM   26  C   UNL     1      -9.411   5.679  73.409  1.00  0.00    -0.134 A  
HETATM   27  C   UNL     1     -10.071   4.665  72.723  1.00  0.00    -0.220 A  
HETATM   28  F   UNL     1     -10.012   6.246  74.464  1.00  0.00    -0.217 F  
ENDBRANCH  16  19
ENDBRANCH  12  13
ENDBRANCH  11  12
ENDBRANCH  10  11
ENDBRANCH   9  10
ENDBRANCH   4   9
BRANCH   6  29
HETATM   29  C   UNL     1     -11.612  14.593  64.805  1.00  0.00    -0.418 C  
HETATM   30  O   UNL     1     -12.822  14.766  64.673  1.00  0.00    -0.495 OA 
HETATM   31  C   UNL     1     -10.686  15.760  65.043  1.00  0.00    -0.443 C  
ENDBRANCH   6  29
ENDBRANCH   2   3
TORSDOF 8
ENDMDL
MODEL      263
REMARK 921   NORMALIZED FREE ENERGY PREDICTED BY IDOCK:   -4.12 KCAL/MOL
REMARK 922        TOTAL FREE ENERGY PREDICTED BY IDOCK:   -6.84 KCAL/MOL
REMARK 923 INTER-LIGAND FREE ENERGY PREDICTED BY IDOCK:   -5.50 KCAL/MOL
REMARK 924 INTRA-LIGAND FREE ENERGY PREDICTED BY IDOCK:   -1.34 KCAL/MOL
REMARK 927      BINDING AFFINITY PREDICTED BY RF-SCORE:    0.00 PKD
ROOT
HETATM    1  C   UNL     1      -6.219   6.806  67.702  1.00  0.00    -0.040 C  
HETATM    2  O   UNL     1      -6.544   5.457  68.004  1.00  0.00    -0.046 OA 
ENDROOT
BRANCH   2   3
HETATM    3  C   UNL     1      -7.342   4.785  67.112  1.00  0.00    -0.078 A  
HETATM    4  C   UNL     1      -8.017   3.659  67.619  1.00  0.00    -0.081 A  
HETATM    5  C   UNL     1      -8.849   2.915  66.779  1.00  0.00    -0.153 A  
HETATM    6  C   UNL     1      -8.366   4.410  64.939  1.00  0.00    -0.118 A  
HETATM    7  C   UNL     1      -7.533   5.161  65.778  1.00  0.00    -0.082 A  
HETATM    8  C   UNL     1      -9.033   3.296  65.447  1.00  0.00    -0.144 A  
BRANCH   4   9
HETATM    9  O   UNL     1      -7.774   3.330  68.928  1.00  0.00    -0.051 OA 
BRANCH   9  10
HETATM   10  C   UNL     1      -8.864   2.834  69.706  1.00  0.00    -0.086 C  
BRANCH  10  11
HETATM   11  C   UNL     1      -9.880   3.929  70.048  1.00  0.00    -0.149 C  
BRANCH  11  12
HETATM   12  C   UNL     1      -9.891   4.351  71.529  1.00  0.00    -0.189 C  
BRANCH  12  13
HETATM   13  N   UNL     1      -9.346   5.699  71.720  1.00  0.00    -0.145 NA 
HETATM   14  C   UNL     1     -10.085   6.484  72.717  1.00  0.00    -0.176 C  
HETATM   15  C   UNL     1      -9.339   7.798  73.024  1.00  0.00    -0.298 C  
HETATM   16  C   UNL     1      -8.947   8.593  71.761  1.00  0.00    -0.307 C  
HETATM   17  C   UNL     1      -8.285   7.625  70.767  1.00  0.00    -0.109 C  
HETATM   18  C   UNL     1      -9.201   6.444  70.474  1.00  0.00    -0.158 C  
BRANCH  16  19
HETATM   19  C   UNL     1     -10.092   9.334  71.122  1.00  0.00    -0.304 A  
HETATM   20  N   UNL     1     -11.333   9.253  71.624  1.00  0.00    -0.381 NA 
HETATM   21  O   UNL     1     -12.156   9.887  70.715  1.00  0.00    -0.291 OA 
HETATM   22  C   UNL     1     -11.409  10.363  69.682  1.00  0.00    -0.272 A  
HETATM   23  C   UNL     1     -10.077  10.107  69.922  1.00  0.00    -0.268 A  
HETATM   24  C   UNL     1      -9.126  10.558  68.988  1.00  0.00    -0.188 A  
HETATM   25  C   UNL     1      -9.590  11.193  67.826  1.00  0.00    -0.180 A  
HETATM   26  C   UNL     1     -10.954  11.386  67.618  1.00  0.00    -0.250 A  
HETATM   27  C   UNL     1     -11.910  11.001  68.553  1.00  0.00    -0.286 A  
HETATM   28  F   UNL     1     -11.358  11.959  66.476  1.00  0.00    -0.330 F  
ENDBRANCH  16  19
ENDBRANCH  12  13
ENDBRANCH  11  12
ENDBRANCH  10  11
ENDBRANCH   9  10
ENDBRANCH   4   9
BRANCH   6  29
HETATM   29  C   UNL     1      -8.508   4.839  63.520  1.00  0.00    -0.127 C  
HETATM   30  O   UNL     1      -8.184   5.981  63.201  1.00  0.00    -0.111 OA 
HETATM   31  C   UNL     1      -8.985   3.852  62.484  1.00  0.00    -0.097 C  
ENDBRANCH   6  29
ENDBRANCH   2   3
TORSDOF 8
ENDMDL
MODEL      264
REMARK 921   NORMALIZED FREE ENERGY PREDICTED BY IDOCK:   -4.11 KCAL/MOL
REMARK 922        TOTAL FREE ENERGY PREDICTED BY IDOCK:   -6.83 KCAL/MOL
REMARK 923 INTER-LIGAND FREE ENERGY PREDICTED BY IDOCK:   -6.20 KCAL/MOL
REMARK 924 INTRA-LIGAND FREE ENERGY PREDICTED BY IDOCK:   -0.63 KCAL/MOL
REMARK 927      BINDING AFFINITY PREDICTED BY RF-SCORE:    0.00 PKD
ROOT
HETATM    1  C   UNL     1      -7.255  15.721  69.476  1.00  0.00    -0.186 C  
HETATM    2  O   UNL     1      -8.144  14.720  69.001  1.00  0.00    -0.152 OA 
ENDROOT
BRANCH   2   3
HETATM    3  C   UNL     1      -9.489  14.974  69.097  1.00  0.00    -0.195 A  
HETATM    4  C   UNL     1     -10.190  15.040  67.878  1.00  0.00    -0.228 A  
HETATM    5  C   UNL     1     -11.563  15.297  67.883  1.00  0.00    -0.301 A  
HETATM    6  C   UNL     1     -11.558  15.400  70.300  1.00  0.00    -0.346 A  
HETATM    7  C   UNL     1     -10.182  15.140  70.301  1.00  0.00    -0.027 A  
HETATM    8  C   UNL     1     -12.248  15.464  69.090  1.00  0.00    -0.192 A  
BRANCH   4   9
HETATM    9  O   UNL     1      -9.452  14.889  66.732  1.00  0.00    -0.228 OA 
BRANCH   9  10
HETATM   10  C   UNL     1      -9.720  13.752  65.911  1.00  0.00    -0.196 C  
BRANCH  10  11
HETATM   11  C   UNL     1     -10.203  12.546  66.725  1.00  0.00    -0.243 C  
BRANCH  11  12
HETATM   12  C   UNL     1     -10.150  11.204  65.971  1.00  0.00    -0.244 C  
BRANCH  12  13
HETATM   13  N   UNL     1     -10.459  10.069  66.847  1.00  0.00    -0.233 NA 
HETATM   14  C   UNL     1     -10.064  10.293  68.243  1.00  0.00    -0.154 C  
HETATM   15  C   UNL     1     -10.606   9.164  69.142  1.00  0.00    -0.224 C  
HETATM   16  C   UNL     1     -10.283   7.750  68.615  1.00  0.00    -0.217 C  
HETATM   17  C   UNL     1     -10.646   7.696  67.122  1.00  0.00    -0.410 C  
HETATM   18  C   UNL     1      -9.933   8.800  66.354  1.00  0.00    -0.275 C  
BRANCH  16  19
HETATM   19  C   UNL     1      -8.859   7.318  68.847  1.00  0.00    -0.127 A  
HETATM   20  N   UNL     1      -7.894   8.220  69.086  1.00  0.00    -0.104 NA 
HETATM   21  O   UNL     1      -6.705   7.520  69.071  1.00  0.00    -0.046 OA 
HETATM   22  C   UNL     1      -6.956   6.203  68.843  1.00  0.00    -0.072 A  
HETATM   23  C   UNL     1      -8.317   6.001  68.768  1.00  0.00    -0.106 A  
HETATM   24  C   UNL     1      -8.793   4.691  68.577  1.00  0.00    -0.123 A  
HETATM   25  C   UNL     1      -7.853   3.662  68.410  1.00  0.00    -0.063 A  
HETATM   26  C   UNL     1      -6.487   3.934  68.455  1.00  0.00    -0.037 A  
HETATM   27  C   UNL     1      -5.991   5.211  68.699  1.00  0.00    -0.021 A  
HETATM   28  F   UNL     1      -5.622   2.932  68.250  1.00  0.00    -0.015 F  
ENDBRANCH  16  19
ENDBRANCH  12  13
ENDBRANCH  11  12
ENDBRANCH  10  11
ENDBRANCH   9  10
ENDBRANCH   4   9
BRANCH   6  29
HETATM   29  C   UNL     1     -12.238  15.599  71.610  1.00  0.00    -0.426 C  
HETATM   30  O   UNL     1     -11.836  16.477  72.371  1.00  0.00    -0.532 OA 
HETATM   31  C   UNL     1     -13.447  14.767  71.959  1.00  0.00    -0.478 C  
ENDBRANCH   6  29
ENDBRANCH   2   3
TORSDOF 8
ENDMDL
MODEL      265
REMARK 921   NORMALIZED FREE ENERGY PREDICTED BY IDOCK:   -4.08 KCAL/MOL
REMARK 922        TOTAL FREE ENERGY PREDICTED BY IDOCK:   -6.78 KCAL/MOL
REMARK 923 INTER-LIGAND FREE ENERGY PREDICTED BY IDOCK:   -6.10 KCAL/MOL
REMARK 924 INTRA-LIGAND FREE ENERGY PREDICTED BY IDOCK:   -0.68 KCAL/MOL
REMARK 927      BINDING AFFINITY PREDICTED BY RF-SCORE:    0.00 PKD
ROOT
HETATM    1  C   UNL     1     -11.222   9.761  67.633  1.00  0.00     0.102 C  
HETATM    2  O   UNL     1     -11.158  10.400  68.900  1.00  0.00    -0.227 OA 
ENDROOT
BRANCH   2   3
HETATM    3  C   UNL     1     -11.362   9.621  70.011  1.00  0.00    -0.195 A  
HETATM    4  C   UNL     1     -11.847  10.291  71.150  1.00  0.00    -0.362 A  
HETATM    5  C   UNL     1     -12.081   9.574  72.326  1.00  0.00    -0.073 A  
HETATM    6  C   UNL     1     -11.378   7.526  71.245  1.00  0.00    -0.284 A  
HETATM    7  C   UNL     1     -11.145   8.240  70.062  1.00  0.00    -0.147 A  
HETATM    8  C   UNL     1     -11.860   8.195  72.370  1.00  0.00    -0.448 A  
BRANCH   4   9
HETATM    9  O   UNL     1     -12.021  11.646  71.043  1.00  0.00    -0.223 OA 
BRANCH   9  10
HETATM   10  C   UNL     1     -13.130  12.233  71.724  1.00  0.00    -0.344 C  
BRANCH  10  11
HETATM   11  C   UNL     1     -13.580  13.549  71.079  1.00  0.00     0.148 C  
BRANCH  11  12
HETATM   12  C   UNL     1     -12.660  14.750  71.368  1.00  0.00    -0.326 C  
BRANCH  12  13
HETATM   13  N   UNL     1     -12.094  15.318  70.140  1.00  0.00    -0.335 NA 
HETATM   14  C   UNL     1     -11.583  14.299  69.215  1.00  0.00    -0.306 C  
HETATM   15  C   UNL     1     -11.204  14.941  67.866  1.00  0.00    -0.324 C  
HETATM   16  C   UNL     1     -10.292  16.177  68.007  1.00  0.00    -0.271 C  
HETATM   17  C   UNL     1     -10.892  17.100  69.081  1.00  0.00    -0.082 C  
HETATM   18  C   UNL     1     -11.089  16.346  70.390  1.00  0.00    -0.233 C  
BRANCH  16  19
HETATM   19  C   UNL     1      -8.854  15.848  68.311  1.00  0.00    -0.179 A  
HETATM   20  N   UNL     1      -7.966  16.816  68.581  1.00  0.00    -0.235 NA 
HETATM   21  O   UNL     1      -6.732  16.200  68.630  1.00  0.00    -0.120 OA 
HETATM   22  C   UNL     1      -6.881  14.866  68.410  1.00  0.00    -0.110 A  
HETATM   23  C   UNL     1      -8.219  14.570  68.275  1.00  0.00    -0.149 A  
HETATM   24  C   UNL     1      -8.595  13.228  68.082  1.00  0.00    -0.177 A  
HETATM   25  C   UNL     1      -7.580  12.265  67.974  1.00  0.00    -0.126 A  
HETATM   26  C   UNL     1      -6.239  12.632  68.077  1.00  0.00    -0.094 A  
HETATM   27  C   UNL     1      -5.845  13.942  68.326  1.00  0.00    -0.114 A  
HETATM   28  F   UNL     1      -5.299  11.689  67.926  1.00  0.00    -0.043 F  
ENDBRANCH  16  19
ENDBRANCH  12  13
ENDBRANCH  11  12
ENDBRANCH  10  11
ENDBRANCH   9  10
ENDBRANCH   4   9
BRANCH   6  29
HETATM   29  C   UNL     1     -11.101   6.063  71.251  1.00  0.00    -0.274 C  
HETATM   30  O   UNL     1     -11.001   5.464  70.182  1.00  0.00    -0.240 OA 
HETATM   31  C   UNL     1     -10.881   5.349  72.561  1.00  0.00    -0.304 C  
ENDBRANCH   6  29
ENDBRANCH   2   3
TORSDOF 8
ENDMDL
MODEL      266
REMARK 921   NORMALIZED FREE ENERGY PREDICTED BY IDOCK:   -4.03 KCAL/MOL
REMARK 922        TOTAL FREE ENERGY PREDICTED BY IDOCK:   -6.71 KCAL/MOL
REMARK 923 INTER-LIGAND FREE ENERGY PREDICTED BY IDOCK:   -5.78 KCAL/MOL
REMARK 924 INTRA-LIGAND FREE ENERGY PREDICTED BY IDOCK:   -0.93 KCAL/MOL
REMARK 927      BINDING AFFINITY PREDICTED BY RF-SCORE:    0.00 PKD
ROOT
HETATM    1  C   UNL     1     -10.545  16.774  65.371  1.00  0.00    -0.203 C  
HETATM    2  O   UNL     1     -10.713  17.718  66.418  1.00  0.00    -0.247 OA 
ENDROOT
BRANCH   2   3
HETATM    3  C   UNL     1      -9.587  18.341  66.894  1.00  0.00    -0.296 A  
HETATM    4  C   UNL     1      -9.385  18.268  68.284  1.00  0.00    -0.308 A  
HETATM    5  C   UNL     1      -8.264  18.877  68.853  1.00  0.00    -0.279 A  
HETATM    6  C   UNL     1      -7.527  19.614  66.669  1.00  0.00    -0.270 A  
HETATM    7  C   UNL     1      -8.648  19.002  66.094  1.00  0.00    -0.208 A  
HETATM    8  C   UNL     1      -7.331  19.537  68.048  1.00  0.00    -0.317 A  
BRANCH   4   9
HETATM    9  O   UNL     1     -10.349  17.624  69.016  1.00  0.00    -0.360 OA 
BRANCH   9  10
HETATM   10  C   UNL     1     -10.014  16.366  69.601  1.00  0.00    -0.087 C  
BRANCH  10  11
HETATM   11  C   UNL     1     -10.569  15.184  68.798  1.00  0.00    -0.236 C  
BRANCH  11  12
HETATM   12  C   UNL     1      -9.509  14.396  68.006  1.00  0.00    -0.209 C  
BRANCH  12  13
HETATM   13  N   UNL     1      -9.931  13.016  67.744  1.00  0.00    -0.221 NA 
HETATM   14  C   UNL     1      -9.565  12.087  68.820  1.00  0.00     0.016 C  
HETATM   15  C   UNL     1     -10.220  10.710  68.585  1.00  0.00    -0.196 C  
HETATM   16  C   UNL     1      -9.988  10.153  67.166  1.00  0.00    -0.243 C  
HETATM   17  C   UNL     1     -10.306  11.264  66.152  1.00  0.00    -0.300 C  
HETATM   18  C   UNL     1      -9.486  12.513  66.448  1.00  0.00    -0.233 C  
BRANCH  16  19
HETATM   19  C   UNL     1      -8.609   9.589  66.945  1.00  0.00    -0.128 A  
HETATM   20  N   UNL     1      -7.638   9.763  67.855  1.00  0.00    -0.086 NA 
HETATM   21  O   UNL     1      -6.479   9.292  67.272  1.00  0.00    -0.059 OA 
HETATM   22  C   UNL     1      -6.757   8.820  66.027  1.00  0.00    -0.068 A  
HETATM   23  C   UNL     1      -8.111   8.913  65.791  1.00  0.00    -0.107 A  
HETATM   24  C   UNL     1      -8.615   8.436  64.568  1.00  0.00    -0.015 A  
HETATM   25  C   UNL     1      -7.703   7.945  63.622  1.00  0.00    -0.136 A  
HETATM   26  C   UNL     1      -6.338   7.914  63.901  1.00  0.00    -0.062 A  
HETATM   27  C   UNL     1      -5.821   8.327  65.124  1.00  0.00    -0.045 A  
HETATM   28  F   UNL     1      -5.496   7.477  62.955  1.00  0.00    -0.041 F  
ENDBRANCH  16  19
ENDBRANCH  12  13
ENDBRANCH  11  12
ENDBRANCH  10  11
ENDBRANCH   9  10
ENDBRANCH   4   9
BRANCH   6  29
HETATM   29  C   UNL     1      -6.578  20.329  65.773  1.00  0.00    -0.247 C  
HETATM   30  O   UNL     1      -6.670  20.182  64.555  1.00  0.00    -0.280 OA 
HETATM   31  C   UNL     1      -5.559  21.272  66.363  1.00  0.00    -0.312 C  
ENDBRANCH   6  29
ENDBRANCH   2   3
TORSDOF 8
ENDMDL
MODEL      267
REMARK 921   NORMALIZED FREE ENERGY PREDICTED BY IDOCK:   -4.03 KCAL/MOL
REMARK 922        TOTAL FREE ENERGY PREDICTED BY IDOCK:   -6.71 KCAL/MOL
REMARK 923 INTER-LIGAND FREE ENERGY PREDICTED BY IDOCK:   -6.02 KCAL/MOL
REMARK 924 INTRA-LIGAND FREE ENERGY PREDICTED BY IDOCK:   -0.69 KCAL/MOL
REMARK 927      BINDING AFFINITY PREDICTED BY RF-SCORE:    0.00 PKD
ROOT
HETATM    1  C   UNL     1      -6.269  16.143  67.180  1.00  0.00    -0.099 C  
HETATM    2  O   UNL     1      -7.407  15.312  67.361  1.00  0.00    -0.183 OA 
ENDROOT
BRANCH   2   3
HETATM    3  C   UNL     1      -8.569  15.914  67.772  1.00  0.00    -0.159 A  
HETATM    4  C   UNL     1      -9.531  15.064  68.349  1.00  0.00    -0.201 A  
HETATM    5  C   UNL     1     -10.744  15.594  68.794  1.00  0.00    -0.250 A  
HETATM    6  C   UNL     1     -10.051  17.811  68.118  1.00  0.00    -0.362 A  
HETATM    7  C   UNL     1      -8.831  17.285  67.674  1.00  0.00    -0.220 A  
HETATM    8  C   UNL     1     -10.999  16.964  68.691  1.00  0.00    -0.262 A  
BRANCH   4   9
HETATM    9  O   UNL     1      -9.224  13.729  68.400  1.00  0.00    -0.198 OA 
BRANCH   9  10
HETATM   10  C   UNL     1     -10.076  12.821  67.700  1.00  0.00    -0.220 C  
BRANCH  10  11
HETATM   11  C   UNL     1      -9.287  11.827  66.840  1.00  0.00    -0.197 C  
BRANCH  11  12
HETATM   12  C   UNL     1      -9.857  10.396  66.832  1.00  0.00    -0.191 C  
BRANCH  12  13
HETATM   13  N   UNL     1      -9.738   9.749  68.143  1.00  0.00    -0.143 NA 
HETATM   14  C   UNL     1      -8.414   9.923  68.754  1.00  0.00    -0.122 C  
HETATM   15  C   UNL     1      -8.424   9.410  70.208  1.00  0.00    -0.237 C  
HETATM   16  C   UNL     1      -9.004   7.988  70.356  1.00  0.00    -0.146 C  
HETATM   17  C   UNL     1     -10.329   7.924  69.579  1.00  0.00    -0.217 C  
HETATM   18  C   UNL     1     -10.125   8.342  68.129  1.00  0.00    -0.200 C  
BRANCH  16  19
HETATM   19  C   UNL     1      -8.064   6.894  69.924  1.00  0.00    -0.125 A  
HETATM   20  N   UNL     1      -6.775   7.155  69.657  1.00  0.00    -0.047 NA 
HETATM   21  O   UNL     1      -6.252   5.995  69.123  1.00  0.00    -0.032 OA 
HETATM   22  C   UNL     1      -7.216   5.036  69.089  1.00  0.00    -0.057 A  
HETATM   23  C   UNL     1      -8.372   5.526  69.656  1.00  0.00    -0.102 A  
HETATM   24  C   UNL     1      -9.486   4.673  69.757  1.00  0.00    -0.238 A  
HETATM   25  C   UNL     1      -9.382   3.381  69.218  1.00  0.00    -0.240 A  
HETATM   26  C   UNL     1      -8.198   2.955  68.618  1.00  0.00    -0.063 A  
HETATM   27  C   UNL     1      -7.065   3.760  68.557  1.00  0.00    -0.051 A  
HETATM   28  F   UNL     1      -8.153   1.730  68.078  1.00  0.00    -0.057 F  
ENDBRANCH  16  19
ENDBRANCH  12  13
ENDBRANCH  11  12
ENDBRANCH  10  11
ENDBRANCH   9  10
ENDBRANCH   4   9
BRANCH   6  29
HETATM   29  C   UNL     1     -10.287  19.272  67.960  1.00  0.00    -0.405 C  
HETATM   30  O   UNL     1     -10.248  20.000  68.951  1.00  0.00    -0.421 OA 
HETATM   31  C   UNL     1     -10.507  19.850  66.584  1.00  0.00    -0.580 C  
ENDBRANCH   6  29
ENDBRANCH   2   3
TORSDOF 8
ENDMDL
MODEL      268
REMARK 921   NORMALIZED FREE ENERGY PREDICTED BY IDOCK:   -4.02 KCAL/MOL
REMARK 922        TOTAL FREE ENERGY PREDICTED BY IDOCK:   -6.70 KCAL/MOL
REMARK 923 INTER-LIGAND FREE ENERGY PREDICTED BY IDOCK:   -6.93 KCAL/MOL
REMARK 924 INTRA-LIGAND FREE ENERGY PREDICTED BY IDOCK:    0.23 KCAL/MOL
REMARK 927      BINDING AFFINITY PREDICTED BY RF-SCORE:    0.00 PKD
ROOT
HETATM    1  C   UNL     1     -12.367  12.671  63.480  1.00  0.00    -0.496 C  
HETATM    2  O   UNL     1     -12.404  12.747  64.897  1.00  0.00    -0.441 OA 
ENDROOT
BRANCH   2   3
HETATM    3  C   UNL     1     -11.387  13.427  65.520  1.00  0.00    -0.293 A  
HETATM    4  C   UNL     1     -10.320  12.640  65.990  1.00  0.00    -0.270 A  
HETATM    5  C   UNL     1      -9.244  13.250  66.638  1.00  0.00    -0.222 A  
HETATM    6  C   UNL     1     -10.265  15.423  66.338  1.00  0.00    -0.296 A  
HETATM    7  C   UNL     1     -11.345  14.816  65.684  1.00  0.00    -0.343 A  
HETATM    8  C   UNL     1      -9.210  14.638  66.801  1.00  0.00    -0.285 A  
BRANCH   4   9
HETATM    9  O   UNL     1     -10.429  11.284  65.817  1.00  0.00    -0.246 OA 
BRANCH   9  10
HETATM   10  C   UNL     1      -9.676  10.437  66.685  1.00  0.00    -0.190 C  
BRANCH  10  11
HETATM   11  C   UNL     1     -10.454  10.061  67.951  1.00  0.00    -0.276 C  
BRANCH  11  12
HETATM   12  C   UNL     1     -10.604   8.545  68.183  1.00  0.00    -0.124 C  
BRANCH  12  13
HETATM   13  N   UNL     1      -9.861   8.094  69.364  1.00  0.00    -0.178 NA 
HETATM   14  C   UNL     1     -10.013   8.988  70.518  1.00  0.00    -0.215 C  
HETATM   15  C   UNL     1      -9.390   8.351  71.776  1.00  0.00    -0.293 C  
HETATM   16  C   UNL     1      -7.950   7.841  71.559  1.00  0.00    -0.097 C  
HETATM   17  C   UNL     1      -7.920   7.014  70.263  1.00  0.00    -0.117 C  
HETATM   18  C   UNL     1      -8.452   7.829  69.092  1.00  0.00    -0.138 C  
BRANCH  16  19
HETATM   19  C   UNL     1      -6.910   8.931  71.536  1.00  0.00    -0.075 A  
HETATM   20  N   UNL     1      -6.194   9.225  72.631  1.00  0.00    -0.301 NA 
HETATM   21  O   UNL     1      -5.480  10.366  72.327  1.00  0.00    -0.310 OA 
HETATM   22  C   UNL     1      -5.752  10.744  71.048  1.00  0.00    -0.021 A  
HETATM   23  C   UNL     1      -6.599   9.825  70.468  1.00  0.00    -0.117 A  
HETATM   24  C   UNL     1      -6.972  10.009  69.125  1.00  0.00    -0.059 A  
HETATM   25  C   UNL     1      -6.512  11.156  68.460  1.00  0.00    -0.058 A  
HETATM   26  C   UNL     1      -5.690  12.073  69.113  1.00  0.00    -0.064 A  
HETATM   27  C   UNL     1      -5.260  11.884  70.422  1.00  0.00    -0.113 A  
HETATM   28  F   UNL     1      -5.305  13.176  68.457  1.00  0.00    -0.059 F  
ENDBRANCH  16  19
ENDBRANCH  12  13
ENDBRANCH  11  12
ENDBRANCH  10  11
ENDBRANCH   9  10
ENDBRANCH   4   9
BRANCH   6  29
HETATM   29  C   UNL     1     -10.288  16.901  66.512  1.00  0.00    -0.299 C  
HETATM   30  O   UNL     1     -10.596  17.616  65.560  1.00  0.00    -0.622 OA 
HETATM   31  C   UNL     1      -9.998  17.500  67.866  1.00  0.00    -0.312 C  
ENDBRANCH   6  29
ENDBRANCH   2   3
TORSDOF 8
ENDMDL
MODEL      269
REMARK 921   NORMALIZED FREE ENERGY PREDICTED BY IDOCK:   -4.02 KCAL/MOL
REMARK 922        TOTAL FREE ENERGY PREDICTED BY IDOCK:   -6.69 KCAL/MOL
REMARK 923 INTER-LIGAND FREE ENERGY PREDICTED BY IDOCK:   -5.13 KCAL/MOL
REMARK 924 INTRA-LIGAND FREE ENERGY PREDICTED BY IDOCK:   -1.56 KCAL/MOL
REMARK 927      BINDING AFFINITY PREDICTED BY RF-SCORE:    0.00 PKD
ROOT
HETATM    1  C   UNL     1      -9.111   6.013  67.734  1.00  0.00    -0.109 C  
HETATM    2  O   UNL     1      -9.840   7.231  67.699  1.00  0.00    -0.140 OA 
ENDROOT
BRANCH   2   3
HETATM    3  C   UNL     1     -10.226   7.771  68.900  1.00  0.00    -0.211 A  
HETATM    4  C   UNL     1      -9.372   8.754  69.434  1.00  0.00    -0.157 A  
HETATM    5  C   UNL     1      -9.689   9.355  70.655  1.00  0.00    -0.336 A  
HETATM    6  C   UNL     1     -11.707   8.029  70.811  1.00  0.00    -0.215 A  
HETATM    7  C   UNL     1     -11.396   7.426  69.586  1.00  0.00     0.019 A  
HETATM    8  C   UNL     1     -10.857   9.003  71.335  1.00  0.00    -0.400 A  
BRANCH   4   9
HETATM    9  O   UNL     1      -8.233   9.034  68.725  1.00  0.00    -0.114 OA 
BRANCH   9  10
HETATM   10  C   UNL     1      -7.582  10.281  68.973  1.00  0.00    -0.102 C  
BRANCH  10  11
HETATM   11  C   UNL     1      -6.147  10.098  69.480  1.00  0.00    -0.043 C  
BRANCH  11  12
HETATM   12  C   UNL     1      -5.636   8.645  69.444  1.00  0.00    -0.034 C  
BRANCH  12  13
HETATM   13  N   UNL     1      -5.615   8.036  70.778  1.00  0.00    -0.029 NA 
HETATM   14  C   UNL     1      -6.007   6.622  70.773  1.00  0.00    -0.027 C  
HETATM   15  C   UNL     1      -5.759   5.992  72.158  1.00  0.00    -0.031 C  
HETATM   16  C   UNL     1      -6.359   6.807  73.322  1.00  0.00    -0.063 C  
HETATM   17  C   UNL     1      -5.958   8.280  73.137  1.00  0.00    -0.073 C  
HETATM   18  C   UNL     1      -6.384   8.787  71.766  1.00  0.00    -0.074 C  
BRANCH  16  19
HETATM   19  C   UNL     1      -7.851   6.662  73.468  1.00  0.00    -0.092 A  
HETATM   20  N   UNL     1      -8.596   7.659  73.968  1.00  0.00    -0.226 NA 
HETATM   21  O   UNL     1      -9.865   7.142  74.134  1.00  0.00    -0.287 OA 
HETATM   22  C   UNL     1      -9.886   5.846  73.718  1.00  0.00    -0.179 A  
HETATM   23  C   UNL     1      -8.650   5.507  73.212  1.00  0.00    -0.116 A  
HETATM   24  C   UNL     1      -8.470   4.214  72.687  1.00  0.00    -0.101 A  
HETATM   25  C   UNL     1      -9.544   3.314  72.761  1.00  0.00    -0.173 A  
HETATM   26  C   UNL     1     -10.759   3.702  73.322  1.00  0.00    -0.198 A  
HETATM   27  C   UNL     1     -10.980   4.992  73.796  1.00  0.00    -0.336 A  
HETATM   28  F   UNL     1     -11.746   2.801  73.413  1.00  0.00    -0.295 F  
ENDBRANCH  16  19
ENDBRANCH  12  13
ENDBRANCH  11  12
ENDBRANCH  10  11
ENDBRANCH   9  10
ENDBRANCH   4   9
BRANCH   6  29
HETATM   29  C   UNL     1     -12.948   7.600  71.512  1.00  0.00    -0.341 C  
HETATM   30  O   UNL     1     -13.052   6.438  71.900  1.00  0.00    -0.153 OA 
HETATM   31  C   UNL     1     -14.035   8.609  71.793  1.00  0.00    -0.492 C  
ENDBRANCH   6  29
ENDBRANCH   2   3
TORSDOF 8
ENDMDL
MODEL      270
REMARK 921   NORMALIZED FREE ENERGY PREDICTED BY IDOCK:   -4.01 KCAL/MOL
REMARK 922        TOTAL FREE ENERGY PREDICTED BY IDOCK:   -6.67 KCAL/MOL
REMARK 923 INTER-LIGAND FREE ENERGY PREDICTED BY IDOCK:   -7.24 KCAL/MOL
REMARK 924 INTRA-LIGAND FREE ENERGY PREDICTED BY IDOCK:    0.56 KCAL/MOL
REMARK 927      BINDING AFFINITY PREDICTED BY RF-SCORE:    0.00 PKD
ROOT
HETATM    1  C   UNL     1      -6.467   8.034  65.092  1.00  0.00    -0.051 C  
HETATM    2  O   UNL     1      -6.195   7.918  66.481  1.00  0.00    -0.044 OA 
ENDROOT
BRANCH   2   3
HETATM    3  C   UNL     1      -7.099   7.223  67.245  1.00  0.00    -0.091 A  
HETATM    4  C   UNL     1      -7.359   7.753  68.522  1.00  0.00    -0.091 A  
HETATM    5  C   UNL     1      -8.265   7.107  69.367  1.00  0.00    -0.132 A  
HETATM    6  C   UNL     1      -8.677   5.424  67.678  1.00  0.00    -0.106 A  
HETATM    7  C   UNL     1      -7.772   6.070  66.825  1.00  0.00    -0.100 A  
HETATM    8  C   UNL     1      -8.931   5.954  68.943  1.00  0.00    -0.118 A  
BRANCH   4   9
HETATM    9  O   UNL     1      -6.655   8.872  68.882  1.00  0.00    -0.051 OA 
BRANCH   9  10
HETATM   10  C   UNL     1      -6.976  10.102  68.231  1.00  0.00    -0.070 C  
BRANCH  10  11
HETATM   11  C   UNL     1      -7.942  10.962  69.054  1.00  0.00    -0.131 C  
BRANCH  11  12
HETATM   12  C   UNL     1      -9.432  10.676  68.796  1.00  0.00    -0.183 C  
BRANCH  12  13
HETATM   13  N   UNL     1     -10.111  11.815  68.170  1.00  0.00    -0.186 NA 
HETATM   14  C   UNL     1      -9.242  12.988  68.011  1.00  0.00    -0.212 C  
HETATM   15  C   UNL     1      -9.945  14.065  67.160  1.00  0.00    -0.252 C  
HETATM   16  C   UNL     1     -11.371  14.399  67.646  1.00  0.00    -0.348 C  
HETATM   17  C   UNL     1     -12.126  13.078  67.874  1.00  0.00    -0.234 C  
HETATM   18  C   UNL     1     -11.359  12.178  68.833  1.00  0.00    -0.283 C  
BRANCH  16  19
HETATM   19  C   UNL     1     -11.413  15.270  68.874  1.00  0.00    -0.332 A  
HETATM   20  N   UNL     1     -10.728  16.423  68.927  1.00  0.00    -0.297 NA 
HETATM   21  O   UNL     1     -10.833  16.871  70.227  1.00  0.00    -0.133 OA 
HETATM   22  C   UNL     1     -11.594  16.003  70.947  1.00  0.00    -0.418 A  
HETATM   23  C   UNL     1     -12.054  15.002  70.120  1.00  0.00    -0.378 A  
HETATM   24  C   UNL     1     -12.899  14.017  70.663  1.00  0.00    -0.320 A  
HETATM   25  C   UNL     1     -13.181  14.069  72.037  1.00  0.00    -0.499 A  
HETATM   26  C   UNL     1     -12.651  15.084  72.832  1.00  0.00    -0.410 A  
HETATM   27  C   UNL     1     -11.860  16.101  72.308  1.00  0.00    -0.631 A  
HETATM   28  F   UNL     1     -12.909  15.075  74.147  1.00  0.00    -0.569 F  
ENDBRANCH  16  19
ENDBRANCH  12  13
ENDBRANCH  11  12
ENDBRANCH  10  11
ENDBRANCH   9  10
ENDBRANCH   4   9
BRANCH   6  29
HETATM   29  C   UNL     1      -9.340   4.184  67.191  1.00  0.00    -0.176 C  
HETATM   30  O   UNL     1      -9.538   3.257  67.975  1.00  0.00    -0.181 OA 
HETATM   31  C   UNL     1      -9.818   4.103  65.762  1.00  0.00    -0.207 C  
ENDBRANCH   6  29
ENDBRANCH   2   3
TORSDOF 8
ENDMDL
MODEL      271
REMARK 921   NORMALIZED FREE ENERGY PREDICTED BY IDOCK:   -3.98 KCAL/MOL
REMARK 922        TOTAL FREE ENERGY PREDICTED BY IDOCK:   -6.64 KCAL/MOL
REMARK 923 INTER-LIGAND FREE ENERGY PREDICTED BY IDOCK:   -5.86 KCAL/MOL
REMARK 924 INTRA-LIGAND FREE ENERGY PREDICTED BY IDOCK:   -0.78 KCAL/MOL
REMARK 927      BINDING AFFINITY PREDICTED BY RF-SCORE:    0.00 PKD
ROOT
HETATM    1  C   UNL     1     -10.663  14.728  64.888  1.00  0.00    -0.417 C  
HETATM    2  O   UNL     1     -11.519  14.560  66.009  1.00  0.00    -0.341 OA 
ENDROOT
BRANCH   2   3
HETATM    3  C   UNL     1     -11.210  15.259  67.149  1.00  0.00    -0.291 A  
HETATM    4  C   UNL     1     -11.535  14.626  68.364  1.00  0.00    -0.311 A  
HETATM    5  C   UNL     1     -11.257  15.267  69.573  1.00  0.00    -0.289 A  
HETATM    6  C   UNL     1     -10.315  17.153  68.384  1.00  0.00    -0.362 A  
HETATM    7  C   UNL     1     -10.589  16.512  67.168  1.00  0.00    -0.270 A  
HETATM    8  C   UNL     1     -10.638  16.520  69.584  1.00  0.00    -0.302 A  
BRANCH   4   9
HETATM    9  O   UNL     1     -12.160  13.409  68.279  1.00  0.00    -0.343 OA 
BRANCH   9  10
HETATM   10  C   UNL     1     -11.450  12.260  68.745  1.00  0.00    -0.311 C  
BRANCH  10  11
HETATM   11  C   UNL     1     -10.577  11.632  67.653  1.00  0.00    -0.237 C  
BRANCH  11  12
HETATM   12  C   UNL     1     -11.190  10.391  66.979  1.00  0.00     0.063 C  
BRANCH  12  13
HETATM   13  N   UNL     1     -10.236   9.279  66.901  1.00  0.00    -0.249 NA 
HETATM   14  C   UNL     1     -10.320   8.365  68.046  1.00  0.00    -0.215 C  
HETATM   15  C   UNL     1      -9.451   7.115  67.799  1.00  0.00    -0.136 C  
HETATM   16  C   UNL     1      -8.009   7.445  67.361  1.00  0.00    -0.112 C  
HETATM   17  C   UNL     1      -8.073   8.491  66.236  1.00  0.00    -0.107 C  
HETATM   18  C   UNL     1      -8.861   9.716  66.682  1.00  0.00    -0.138 C  
BRANCH  16  19
HETATM   19  C   UNL     1      -7.117   7.905  68.484  1.00  0.00    -0.076 A  
HETATM   20  N   UNL     1      -6.185   8.850  68.284  1.00  0.00    -0.054 NA 
HETATM   21  O   UNL     1      -5.438   8.902  69.443  1.00  0.00    -0.034 OA 
HETATM   22  C   UNL     1      -5.930   8.007  70.341  1.00  0.00    -0.029 A  
HETATM   23  C   UNL     1      -7.047   7.396  69.816  1.00  0.00    -0.068 A  
HETATM   24  C   UNL     1      -7.737   6.459  70.607  1.00  0.00    -0.105 A  
HETATM   25  C   UNL     1      -7.215   6.149  71.872  1.00  0.00    -0.091 A  
HETATM   26  C   UNL     1      -6.056   6.771  72.334  1.00  0.00    -0.042 A  
HETATM   27  C   UNL     1      -5.389   7.742  71.594  1.00  0.00    -0.035 A  
HETATM   28  F   UNL     1      -5.566   6.417  73.530  1.00  0.00    -0.041 F  
ENDBRANCH  16  19
ENDBRANCH  12  13
ENDBRANCH  11  12
ENDBRANCH  10  11
ENDBRANCH   9  10
ENDBRANCH   4   9
BRANCH   6  29
HETATM   29  C   UNL     1      -9.681  18.499  68.343  1.00  0.00    -0.364 C  
HETATM   30  O   UNL     1      -8.592  18.636  67.787  1.00  0.00    -0.269 OA 
HETATM   31  C   UNL     1     -10.408  19.686  68.924  1.00  0.00    -0.287 C  
ENDBRANCH   6  29
ENDBRANCH   2   3
TORSDOF 8
ENDMDL
MODEL      272
REMARK 921   NORMALIZED FREE ENERGY PREDICTED BY IDOCK:   -3.98 KCAL/MOL
REMARK 922        TOTAL FREE ENERGY PREDICTED BY IDOCK:   -6.63 KCAL/MOL
REMARK 923 INTER-LIGAND FREE ENERGY PREDICTED BY IDOCK:   -7.06 KCAL/MOL
REMARK 924 INTRA-LIGAND FREE ENERGY PREDICTED BY IDOCK:    0.43 KCAL/MOL
REMARK 927      BINDING AFFINITY PREDICTED BY RF-SCORE:    0.00 PKD
ROOT
HETATM    1  C   UNL     1      -5.591  14.100  71.946  1.00  0.00    -0.196 C  
HETATM    2  O   UNL     1      -5.162  13.176  70.957  1.00  0.00    -0.135 OA 
ENDROOT
BRANCH   2   3
HETATM    3  C   UNL     1      -6.124  12.634  70.141  1.00  0.00    -0.093 A  
HETATM    4  C   UNL     1      -6.714  13.516  69.217  1.00  0.00    -0.080 A  
HETATM    5  C   UNL     1      -7.704  13.047  68.349  1.00  0.00    -0.137 A  
HETATM    6  C   UNL     1      -7.512  10.827  69.292  1.00  0.00    -0.135 A  
HETATM    7  C   UNL     1      -6.517  11.291  70.162  1.00  0.00    -0.071 A  
HETATM    8  C   UNL     1      -8.093  11.705  68.378  1.00  0.00    -0.153 A  
BRANCH   4   9
HETATM    9  O   UNL     1      -6.301  14.822  69.259  1.00  0.00    -0.103 OA 
BRANCH   9  10
HETATM   10  C   UNL     1      -7.191  15.820  68.759  1.00  0.00    -0.137 C  
BRANCH  10  11
HETATM   11  C   UNL     1      -6.457  16.920  67.983  1.00  0.00    -0.151 C  
BRANCH  11  12
HETATM   12  C   UNL     1      -7.060  17.241  66.603  1.00  0.00    -0.243 C  
BRANCH  12  13
HETATM   13  N   UNL     1      -8.518  17.080  66.590  1.00  0.00    -0.227 NA 
HETATM   14  C   UNL     1      -9.143  17.376  67.885  1.00  0.00    -0.255 C  
HETATM   15  C   UNL     1     -10.678  17.398  67.747  1.00  0.00    -0.332 C  
HETATM   16  C   UNL     1     -11.251  16.151  67.042  1.00  0.00     0.090 C  
HETATM   17  C   UNL     1     -10.434  15.901  65.764  1.00  0.00    -0.386 C  
HETATM   18  C   UNL     1      -8.950  15.780  66.088  1.00  0.00    -0.337 C  
BRANCH  16  19
HETATM   19  C   UNL     1     -11.297  14.921  67.911  1.00  0.00    -0.327 A  
HETATM   20  N   UNL     1     -10.917  13.726  67.436  1.00  0.00    -0.280 NA 
HETATM   21  O   UNL     1     -11.250  12.805  68.408  1.00  0.00    -0.243 OA 
HETATM   22  C   UNL     1     -11.810  13.447  69.469  1.00  0.00    -0.332 A  
HETATM   23  C   UNL     1     -11.797  14.806  69.243  1.00  0.00    -0.352 A  
HETATM   24  C   UNL     1     -12.295  15.659  70.243  1.00  0.00    -0.402 A  
HETATM   25  C   UNL     1     -12.838  15.078  71.399  1.00  0.00    -0.432 A  
HETATM   26  C   UNL     1     -12.861  13.693  71.555  1.00  0.00    -0.359 A  
HETATM   27  C   UNL     1     -12.323  12.831  70.605  1.00  0.00    -0.381 A  
HETATM   28  F   UNL     1     -13.427  13.176  72.654  1.00  0.00    -0.606 F  
ENDBRANCH  16  19
ENDBRANCH  12  13
ENDBRANCH  11  12
ENDBRANCH  10  11
ENDBRANCH   9  10
ENDBRANCH   4   9
BRANCH   6  29
HETATM   29  C   UNL     1      -7.912   9.396  69.380  1.00  0.00    -0.089 C  
HETATM   30  O   UNL     1      -8.893   9.004  68.750  1.00  0.00    -0.135 OA 
HETATM   31  C   UNL     1      -7.076   8.433  70.186  1.00  0.00    -0.043 C  
ENDBRANCH   6  29
ENDBRANCH   2   3
TORSDOF 8
ENDMDL
MODEL      273
REMARK 921   NORMALIZED FREE ENERGY PREDICTED BY IDOCK:   -3.93 KCAL/MOL
REMARK 922        TOTAL FREE ENERGY PREDICTED BY IDOCK:   -6.57 KCAL/MOL
REMARK 923 INTER-LIGAND FREE ENERGY PREDICTED BY IDOCK:   -6.96 KCAL/MOL
REMARK 924 INTRA-LIGAND FREE ENERGY PREDICTED BY IDOCK:    0.40 KCAL/MOL
REMARK 927      BINDING AFFINITY PREDICTED BY RF-SCORE:    0.00 PKD
ROOT
HETATM    1  C   UNL     1      -9.403   6.227  72.782  1.00  0.00    -0.144 C  
HETATM    2  O   UNL     1     -10.557   6.189  71.955  1.00  0.00    -0.208 OA 
ENDROOT
BRANCH   2   3
HETATM    3  C   UNL     1     -10.373   5.891  70.628  1.00  0.00    -0.235 A  
HETATM    4  C   UNL     1     -10.753   6.893  69.715  1.00  0.00    -0.244 A  
HETATM    5  C   UNL     1     -10.602   6.673  68.345  1.00  0.00    -0.289 A  
HETATM    6  C   UNL     1      -9.677   4.479  68.775  1.00  0.00    -0.213 A  
HETATM    7  C   UNL     1      -9.824   4.696  70.151  1.00  0.00    -0.306 A  
HETATM    8  C   UNL     1     -10.054   5.476  67.876  1.00  0.00    -0.218 A  
BRANCH   4   9
HETATM    9  O   UNL     1     -11.303   8.033  70.243  1.00  0.00    -0.243 OA 
BRANCH   9  10
HETATM   10  C   UNL     1     -10.512   9.222  70.235  1.00  0.00    -0.228 C  
BRANCH  10  11
HETATM   11  C   UNL     1     -11.242  10.404  69.587  1.00  0.00    -0.333 C  
BRANCH  11  12
HETATM   12  C   UNL     1     -11.429  10.282  68.063  1.00  0.00    -0.002 C  
BRANCH  12  13
HETATM   13  N   UNL     1     -11.726  11.576  67.441  1.00  0.00    -0.609 NA 
HETATM   14  C   UNL     1     -10.997  11.794  66.186  1.00  0.00    -0.307 C  
HETATM   15  C   UNL     1     -11.511  13.065  65.480  1.00  0.00    -0.352 C  
HETATM   16  C   UNL     1     -11.563  14.301  66.400  1.00  0.00    -0.381 C  
HETATM   17  C   UNL     1     -12.254  13.898  67.713  1.00  0.00    -0.217 C  
HETATM   18  C   UNL     1     -11.550  12.706  68.348  1.00  0.00    -0.328 C  
BRANCH  16  19
HETATM   19  C   UNL     1     -10.219  14.930  66.660  1.00  0.00    -0.261 A  
HETATM   20  N   UNL     1      -9.945  16.173  66.237  1.00  0.00    -0.296 NA 
HETATM   21  O   UNL     1      -8.599  16.369  66.472  1.00  0.00    -0.233 OA 
HETATM   22  C   UNL     1      -8.073  15.256  67.051  1.00  0.00    -0.218 A  
HETATM   23  C   UNL     1      -9.073  14.333  67.266  1.00  0.00    -0.221 A  
HETATM   24  C   UNL     1      -8.745  13.120  67.898  1.00  0.00    -0.192 A  
HETATM   25  C   UNL     1      -7.400  12.886  68.224  1.00  0.00    -0.118 A  
HETATM   26  C   UNL     1      -6.424  13.841  67.944  1.00  0.00    -0.161 A  
HETATM   27  C   UNL     1      -6.732  15.071  67.371  1.00  0.00    -0.104 A  
HETATM   28  F   UNL     1      -5.146  13.561  68.231  1.00  0.00    -0.074 F  
ENDBRANCH  16  19
ENDBRANCH  12  13
ENDBRANCH  11  12
ENDBRANCH  10  11
ENDBRANCH   9  10
ENDBRANCH   4   9
BRANCH   6  29
HETATM   29  C   UNL     1      -9.115   3.176  68.324  1.00  0.00    -0.164 C  
HETATM   30  O   UNL     1      -9.877   2.240  68.088  1.00  0.00    -0.006 OA 
HETATM   31  C   UNL     1      -7.629   3.040  68.100  1.00  0.00    -0.056 C  
ENDBRANCH   6  29
ENDBRANCH   2   3
TORSDOF 8
ENDMDL
MODEL      274
REMARK 921   NORMALIZED FREE ENERGY PREDICTED BY IDOCK:   -3.93 KCAL/MOL
REMARK 922        TOTAL FREE ENERGY PREDICTED BY IDOCK:   -6.56 KCAL/MOL
REMARK 923 INTER-LIGAND FREE ENERGY PREDICTED BY IDOCK:   -5.76 KCAL/MOL
REMARK 924 INTRA-LIGAND FREE ENERGY PREDICTED BY IDOCK:   -0.80 KCAL/MOL
REMARK 927      BINDING AFFINITY PREDICTED BY RF-SCORE:    0.00 PKD
ROOT
HETATM    1  C   UNL     1      -6.462  14.690  68.939  1.00  0.00    -0.090 C  
HETATM    2  O   UNL     1      -7.477  14.756  67.948  1.00  0.00    -0.116 OA 
ENDROOT
BRANCH   2   3
HETATM    3  C   UNL     1      -7.952  16.000  67.613  1.00  0.00    -0.143 A  
HETATM    4  C   UNL     1      -9.351  16.146  67.622  1.00  0.00    -0.214 A  
HETATM    5  C   UNL     1      -9.920  17.379  67.292  1.00  0.00    -0.302 A  
HETATM    6  C   UNL     1      -7.720  18.331  66.963  1.00  0.00    -0.232 A  
HETATM    7  C   UNL     1      -7.145  17.098  67.297  1.00  0.00    -0.193 A  
HETATM    8  C   UNL     1      -9.108  18.471  66.976  1.00  0.00    -0.281 A  
BRANCH   4   9
HETATM    9  O   UNL     1     -10.088  15.029  67.921  1.00  0.00    -0.225 OA 
BRANCH   9  10
HETATM   10  C   UNL     1     -11.458  15.208  68.281  1.00  0.00    -0.336 C  
BRANCH  10  11
HETATM   11  C   UNL     1     -12.069  13.944  68.896  1.00  0.00    -0.355 C  
BRANCH  11  12
HETATM   12  C   UNL     1     -11.768  12.647  68.123  1.00  0.00    -0.347 C  
BRANCH  12  13
HETATM   13  N   UNL     1     -10.854  11.767  68.860  1.00  0.00    -0.223 NA 
HETATM   14  C   UNL     1      -9.544  11.623  68.213  1.00  0.00    -0.198 C  
HETATM   15  C   UNL     1      -8.569  10.868  69.139  1.00  0.00    -0.060 C  
HETATM   16  C   UNL     1      -9.146   9.549  69.694  1.00  0.00    -0.207 C  
HETATM   17  C   UNL     1     -10.557   9.829  70.237  1.00  0.00    -0.348 C  
HETATM   18  C   UNL     1     -11.432  10.461  69.163  1.00  0.00    -0.196 C  
BRANCH  16  19
HETATM   19  C   UNL     1      -9.157   8.417  68.700  1.00  0.00    -0.140 A  
HETATM   20  N   UNL     1      -9.957   7.354  68.873  1.00  0.00    -0.165 NA 
HETATM   21  O   UNL     1      -9.594   6.441  67.904  1.00  0.00    -0.122 OA 
HETATM   22  C   UNL     1      -8.595   6.961  67.142  1.00  0.00    -0.121 A  
HETATM   23  C   UNL     1      -8.325   8.248  67.553  1.00  0.00    -0.130 A  
HETATM   24  C   UNL     1      -7.345   8.983  66.863  1.00  0.00    -0.086 A  
HETATM   25  C   UNL     1      -6.646   8.345  65.826  1.00  0.00    -0.053 A  
HETATM   26  C   UNL     1      -6.935   7.026  65.482  1.00  0.00    -0.056 A  
HETATM   27  C   UNL     1      -7.938   6.297  66.111  1.00  0.00    -0.112 A  
HETATM   28  F   UNL     1      -6.216   6.439  64.515  1.00  0.00    -0.028 F  
ENDBRANCH  16  19
ENDBRANCH  12  13
ENDBRANCH  11  12
ENDBRANCH  10  11
ENDBRANCH   9  10
ENDBRANCH   4   9
BRANCH   6  29
HETATM   29  C   UNL     1      -6.814  19.457  66.606  1.00  0.00    -0.193 C  
HETATM   30  O   UNL     1      -6.879  19.951  65.481  1.00  0.00    -0.272 OA 
HETATM   31  C   UNL     1      -5.874  20.019  67.644  1.00  0.00    -0.214 C  
ENDBRANCH   6  29
ENDBRANCH   2   3
TORSDOF 8
ENDMDL
MODEL      275
REMARK 921   NORMALIZED FREE ENERGY PREDICTED BY IDOCK:   -3.88 KCAL/MOL
REMARK 922        TOTAL FREE ENERGY PREDICTED BY IDOCK:   -6.49 KCAL/MOL
REMARK 923 INTER-LIGAND FREE ENERGY PREDICTED BY IDOCK:   -5.33 KCAL/MOL
REMARK 924 INTRA-LIGAND FREE ENERGY PREDICTED BY IDOCK:   -1.16 KCAL/MOL
REMARK 927      BINDING AFFINITY PREDICTED BY RF-SCORE:    0.00 PKD
ROOT
HETATM    1  C   UNL     1     -11.371  14.032  68.236  1.00  0.00    -0.288 C  
HETATM    2  O   UNL     1     -11.665  12.816  67.564  1.00  0.00    -0.337 OA 
ENDROOT
BRANCH   2   3
HETATM    3  C   UNL     1     -11.486  11.649  68.264  1.00  0.00    -0.303 A  
HETATM    4  C   UNL     1     -10.665  10.685  67.650  1.00  0.00    -0.267 A  
HETATM    5  C   UNL     1     -10.430   9.467  68.292  1.00  0.00    -0.265 A  
HETATM    6  C   UNL     1     -11.803  10.161  70.160  1.00  0.00    -0.299 A  
HETATM    7  C   UNL     1     -12.038  11.386  69.522  1.00  0.00    -0.370 A  
HETATM    8  C   UNL     1     -10.987   9.210  69.548  1.00  0.00    -0.138 A  
BRANCH   4   9
HETATM    9  O   UNL     1     -10.170  10.995  66.410  1.00  0.00    -0.221 OA 
BRANCH   9  10
HETATM   10  C   UNL     1      -8.863  11.565  66.335  1.00  0.00    -0.193 C  
BRANCH  10  11
HETATM   11  C   UNL     1      -7.761  10.499  66.339  1.00  0.00    -0.135 C  
BRANCH  11  12
HETATM   12  C   UNL     1      -7.831   9.502  65.167  1.00  0.00    -0.113 C  
BRANCH  12  13
HETATM   13  N   UNL     1      -7.245   8.203  65.514  1.00  0.00    -0.070 NA 
HETATM   14  C   UNL     1      -8.130   7.072  65.212  1.00  0.00    -0.134 C  
HETATM   15  C   UNL     1      -7.378   5.738  65.397  1.00  0.00    -0.076 C  
HETATM   16  C   UNL     1      -6.651   5.625  66.752  1.00  0.00    -0.056 C  
HETATM   17  C   UNL     1      -5.854   6.920  66.984  1.00  0.00    -0.018 C  
HETATM   18  C   UNL     1      -6.765   8.137  66.891  1.00  0.00    -0.065 C  
BRANCH  16  19
HETATM   19  C   UNL     1      -7.562   5.329  67.915  1.00  0.00    -0.084 A  
HETATM   20  N   UNL     1      -8.889   5.231  67.744  1.00  0.00    -0.106 NA 
HETATM   21  O   UNL     1      -9.432   5.139  69.010  1.00  0.00    -0.117 OA 
HETATM   22  C   UNL     1      -8.434   5.162  69.935  1.00  0.00    -0.096 A  
HETATM   23  C   UNL     1      -7.215   5.206  69.294  1.00  0.00    -0.057 A  
HETATM   24  C   UNL     1      -6.044   5.194  70.073  1.00  0.00    -0.021 A  
HETATM   25  C   UNL     1      -6.179   5.200  71.470  1.00  0.00    -0.030 A  
HETATM   26  C   UNL     1      -7.440   5.198  72.062  1.00  0.00    -0.092 A  
HETATM   27  C   UNL     1      -8.612   5.152  71.314  1.00  0.00    -0.132 A  
HETATM   28  F   UNL     1      -7.527   5.247  73.398  1.00  0.00    -0.088 F  
ENDBRANCH  16  19
ENDBRANCH  12  13
ENDBRANCH  11  12
ENDBRANCH  10  11
ENDBRANCH   9  10
ENDBRANCH   4   9
BRANCH   6  29
HETATM   29  C   UNL     1     -12.441   9.923  71.484  1.00  0.00    -0.411 C  
HETATM   30  O   UNL     1     -12.132   8.924  72.132  1.00  0.00    -0.358 OA 
HETATM   31  C   UNL     1     -13.407  10.939  72.042  1.00  0.00    -0.394 C  
ENDBRANCH   6  29
ENDBRANCH   2   3
TORSDOF 8
ENDMDL
MODEL      276
REMARK 921   NORMALIZED FREE ENERGY PREDICTED BY IDOCK:   -3.88 KCAL/MOL
REMARK 922        TOTAL FREE ENERGY PREDICTED BY IDOCK:   -6.49 KCAL/MOL
REMARK 923 INTER-LIGAND FREE ENERGY PREDICTED BY IDOCK:   -5.32 KCAL/MOL
REMARK 924 INTRA-LIGAND FREE ENERGY PREDICTED BY IDOCK:   -1.17 KCAL/MOL
REMARK 927      BINDING AFFINITY PREDICTED BY RF-SCORE:    0.00 PKD
ROOT
HETATM    1  C   UNL     1      -9.803   4.923  72.294  1.00  0.00    -0.169 C  
HETATM    2  O   UNL     1     -10.560   5.456  71.217  1.00  0.00    -0.235 OA 
ENDROOT
BRANCH   2   3
HETATM    3  C   UNL     1     -10.635   6.823  71.115  1.00  0.00    -0.224 A  
HETATM    4  C   UNL     1      -9.561   7.450  70.458  1.00  0.00    -0.172 A  
HETATM    5  C   UNL     1      -9.556   8.839  70.311  1.00  0.00    -0.198 A  
HETATM    6  C   UNL     1     -11.688   8.990  71.445  1.00  0.00    -0.392 A  
HETATM    7  C   UNL     1     -11.699   7.596  71.592  1.00  0.00    -0.313 A  
HETATM    8  C   UNL     1     -10.621   9.606  70.792  1.00  0.00    -0.392 A  
BRANCH   4   9
HETATM    9  O   UNL     1      -8.540   6.641  70.031  1.00  0.00    -0.137 OA 
BRANCH   9  10
HETATM   10  C   UNL     1      -7.200   7.078  70.260  1.00  0.00    -0.072 C  
BRANCH  10  11
HETATM   11  C   UNL     1      -6.291   6.827  69.051  1.00  0.00    -0.035 C  
BRANCH  11  12
HETATM   12  C   UNL     1      -7.040   6.580  67.728  1.00  0.00    -0.088 C  
BRANCH  12  13
HETATM   13  N   UNL     1      -7.118   7.793  66.907  1.00  0.00    -0.079 NA 
HETATM   14  C   UNL     1      -6.161   8.828  67.314  1.00  0.00    -0.055 C  
HETATM   15  C   UNL     1      -6.146   9.978  66.287  1.00  0.00    -0.068 C  
HETATM   16  C   UNL     1      -7.550  10.518  65.947  1.00  0.00    -0.148 C  
HETATM   17  C   UNL     1      -8.469   9.321  65.649  1.00  0.00    -0.149 C  
HETATM   18  C   UNL     1      -8.468   8.339  66.813  1.00  0.00    -0.122 C  
BRANCH  16  19
HETATM   19  C   UNL     1      -8.140  11.408  67.009  1.00  0.00    -0.157 A  
HETATM   20  N   UNL     1      -9.410  11.254  67.412  1.00  0.00    -0.161 NA 
HETATM   21  O   UNL     1      -9.680  12.324  68.241  1.00  0.00    -0.214 OA 
HETATM   22  C   UNL     1      -8.572  13.105  68.351  1.00  0.00    -0.124 A  
HETATM   23  C   UNL     1      -7.535  12.532  67.648  1.00  0.00    -0.139 A  
HETATM   24  C   UNL     1      -6.279  13.165  67.667  1.00  0.00    -0.156 A  
HETATM   25  C   UNL     1      -6.162  14.384  68.352  1.00  0.00    -0.103 A  
HETATM   26  C   UNL     1      -7.258  14.936  69.011  1.00  0.00    -0.138 A  
HETATM   27  C   UNL     1      -8.495  14.302  69.055  1.00  0.00     0.049 A  
HETATM   28  F   UNL     1      -7.116  16.123  69.617  1.00  0.00    -0.206 F  
ENDBRANCH  16  19
ENDBRANCH  12  13
ENDBRANCH  11  12
ENDBRANCH  10  11
ENDBRANCH   9  10
ENDBRANCH   4   9
BRANCH   6  29
HETATM   29  C   UNL     1     -12.832   9.765  71.999  1.00  0.00    -0.401 C  
HETATM   30  O   UNL     1     -13.460   9.314  72.956  1.00  0.00    -0.218 OA 
HETATM   31  C   UNL     1     -13.166  11.119  71.424  1.00  0.00    -0.301 C  
ENDBRANCH   6  29
ENDBRANCH   2   3
TORSDOF 8
ENDMDL
MODEL      277
REMARK 921   NORMALIZED FREE ENERGY PREDICTED BY IDOCK:   -3.86 KCAL/MOL
REMARK 922        TOTAL FREE ENERGY PREDICTED BY IDOCK:   -6.45 KCAL/MOL
REMARK 923 INTER-LIGAND FREE ENERGY PREDICTED BY IDOCK:   -6.03 KCAL/MOL
REMARK 924 INTRA-LIGAND FREE ENERGY PREDICTED BY IDOCK:   -0.43 KCAL/MOL
REMARK 927      BINDING AFFINITY PREDICTED BY RF-SCORE:    0.00 PKD
ROOT
HETATM    1  C   UNL     1      -5.475  15.899  66.912  1.00  0.00     0.561 C  
HETATM    2  O   UNL     1      -5.798  17.269  66.725  1.00  0.00    -0.158 OA 
ENDROOT
BRANCH   2   3
HETATM    3  C   UNL     1      -7.049  17.681  67.109  1.00  0.00    -0.173 A  
HETATM    4  C   UNL     1      -7.258  17.804  68.495  1.00  0.00    -0.259 A  
HETATM    5  C   UNL     1      -8.504  18.215  68.973  1.00  0.00    -0.025 A  
HETATM    6  C   UNL     1      -9.335  18.407  66.709  1.00  0.00    -0.296 A  
HETATM    7  C   UNL     1      -8.086  17.997  66.224  1.00  0.00    -0.259 A  
HETATM    8  C   UNL     1      -9.536  18.528  68.084  1.00  0.00    -0.341 A  
BRANCH   4   9
HETATM    9  O   UNL     1      -6.210  17.461  69.310  1.00  0.00    -0.213 OA 
BRANCH   9  10
HETATM   10  C   UNL     1      -6.351  16.296  70.124  1.00  0.00     0.044 C  
BRANCH  10  11
HETATM   11  C   UNL     1      -7.365  15.301  69.547  1.00  0.00    -0.210 C  
BRANCH  11  12
HETATM   12  C   UNL     1      -8.716  15.264  70.287  1.00  0.00     0.840 C  
BRANCH  12  13
HETATM   13  N   UNL     1      -9.840  15.062  69.367  1.00  0.00    -0.196 NA 
HETATM   14  C   UNL     1     -10.820  14.085  69.859  1.00  0.00     0.199 C  
HETATM   15  C   UNL     1     -12.071  14.079  68.957  1.00  0.00    -0.358 C  
HETATM   16  C   UNL     1     -11.746  13.945  67.455  1.00  0.00    -0.416 C  
HETATM   17  C   UNL     1     -10.634  14.949  67.109  1.00  0.00    -0.285 C  
HETATM   18  C   UNL     1      -9.422  14.740  68.006  1.00  0.00    -0.204 C  
BRANCH  16  19
HETATM   19  C   UNL     1     -11.373  12.548  67.031  1.00  0.00    -0.328 A  
HETATM   20  N   UNL     1     -11.318  11.547  67.922  1.00  0.00    -0.283 NA 
HETATM   21  O   UNL     1     -10.780  10.468  67.251  1.00  0.00    -0.250 OA 
HETATM   22  C   UNL     1     -10.531  10.813  65.959  1.00  0.00    -0.208 A  
HETATM   23  C   UNL     1     -10.959  12.104  65.739  1.00  0.00    -0.338 A  
HETATM   24  C   UNL     1     -10.831  12.644  64.446  1.00  0.00    -0.386 A  
HETATM   25  C   UNL     1     -10.215  11.859  63.459  1.00  0.00    -0.485 A  
HETATM   26  C   UNL     1      -9.764  10.574  63.753  1.00  0.00    -0.326 A  
HETATM   27  C   UNL     1      -9.931   9.997  65.007  1.00  0.00    -0.320 A  
HETATM   28  F   UNL     1      -9.144   9.873  62.794  1.00  0.00    -0.209 F  
ENDBRANCH  16  19
ENDBRANCH  12  13
ENDBRANCH  11  12
ENDBRANCH  10  11
ENDBRANCH   9  10
ENDBRANCH   4   9
BRANCH   6  29
HETATM   29  C   UNL     1     -10.411  18.701  65.722  1.00  0.00    -0.256 C  
HETATM   30  O   UNL     1     -10.817  17.803  64.986  1.00  0.00    -0.774 OA 
HETATM   31  C   UNL     1     -11.033  20.074  65.681  1.00  0.00    -0.115 C  
ENDBRANCH   6  29
ENDBRANCH   2   3
TORSDOF 8
ENDMDL
MODEL      278
REMARK 921   NORMALIZED FREE ENERGY PREDICTED BY IDOCK:   -3.84 KCAL/MOL
REMARK 922        TOTAL FREE ENERGY PREDICTED BY IDOCK:   -6.43 KCAL/MOL
REMARK 923 INTER-LIGAND FREE ENERGY PREDICTED BY IDOCK:   -5.73 KCAL/MOL
REMARK 924 INTRA-LIGAND FREE ENERGY PREDICTED BY IDOCK:   -0.70 KCAL/MOL
REMARK 927      BINDING AFFINITY PREDICTED BY RF-SCORE:    0.00 PKD
ROOT
HETATM    1  C   UNL     1     -11.564  13.652  68.135  1.00  0.00    -0.332 C  
HETATM    2  O   UNL     1     -11.792  12.292  67.799  1.00  0.00    -0.406 OA 
ENDROOT
BRANCH   2   3
HETATM    3  C   UNL     1     -11.358  11.340  68.687  1.00  0.00    -0.273 A  
HETATM    4  C   UNL     1     -10.115  10.748  68.395  1.00  0.00    -0.169 A  
HETATM    5  C   UNL     1      -9.599   9.768  69.246  1.00  0.00    -0.204 A  
HETATM    6  C   UNL     1     -11.529   9.973  70.691  1.00  0.00    -0.425 A  
HETATM    7  C   UNL     1     -12.050  10.958  69.842  1.00  0.00    -0.428 A  
HETATM    8  C   UNL     1     -10.297   9.390  70.396  1.00  0.00    -0.318 A  
BRANCH   4   9
HETATM    9  O   UNL     1      -9.496  11.150  67.239  1.00  0.00    -0.163 OA 
BRANCH   9  10
HETATM   10  C   UNL     1      -8.450  10.327  66.721  1.00  0.00    -0.123 C  
BRANCH  10  11
HETATM   11  C   UNL     1      -8.753   9.822  65.306  1.00  0.00    -0.182 C  
BRANCH  11  12
HETATM   12  C   UNL     1      -7.534   9.252  64.556  1.00  0.00    -0.102 C  
BRANCH  12  13
HETATM   13  N   UNL     1      -7.352   7.819  64.813  1.00  0.00    -0.071 NA 
HETATM   14  C   UNL     1      -8.618   7.103  65.012  1.00  0.00     0.121 C  
HETATM   15  C   UNL     1      -8.372   5.582  65.061  1.00  0.00    -0.146 C  
HETATM   16  C   UNL     1      -7.255   5.171  66.043  1.00  0.00    -0.073 C  
HETATM   17  C   UNL     1      -6.035   6.073  65.793  1.00  0.00    -0.029 C  
HETATM   18  C   UNL     1      -6.421   7.543  65.902  1.00  0.00    -0.045 C  
BRANCH  16  19
HETATM   19  C   UNL     1      -7.669   5.201  67.491  1.00  0.00    -0.092 A  
HETATM   20  N   UNL     1      -7.251   6.179  68.309  1.00  0.00    -0.082 NA 
HETATM   21  O   UNL     1      -7.652   5.814  69.578  1.00  0.00    -0.083 OA 
HETATM   22  C   UNL     1      -8.325   4.632  69.519  1.00  0.00    -0.074 A  
HETATM   23  C   UNL     1      -8.434   4.231  68.206  1.00  0.00    -0.103 A  
HETATM   24  C   UNL     1      -9.136   3.046  67.921  1.00  0.00    -0.225 A  
HETATM   25  C   UNL     1      -9.638   2.298  68.998  1.00  0.00    -0.060 A  
HETATM   26  C   UNL     1      -9.460   2.734  70.309  1.00  0.00    -0.113 A  
HETATM   27  C   UNL     1      -8.820   3.931  70.613  1.00  0.00    -0.135 A  
HETATM   28  F   UNL     1      -9.918   1.971  71.311  1.00  0.00    -0.214 F  
ENDBRANCH  16  19
ENDBRANCH  12  13
ENDBRANCH  11  12
ENDBRANCH  10  11
ENDBRANCH   9  10
ENDBRANCH   4   9
BRANCH   6  29
HETATM   29  C   UNL     1     -12.323   9.584  71.888  1.00  0.00    -0.373 C  
HETATM   30  O   UNL     1     -13.205  10.337  72.298  1.00  0.00    -0.409 OA 
HETATM   31  C   UNL     1     -12.080   8.248  72.545  1.00  0.00    -0.400 C  
ENDBRANCH   6  29
ENDBRANCH   2   3
TORSDOF 8
ENDMDL
MODEL      279
REMARK 921   NORMALIZED FREE ENERGY PREDICTED BY IDOCK:   -3.83 KCAL/MOL
REMARK 922        TOTAL FREE ENERGY PREDICTED BY IDOCK:   -6.42 KCAL/MOL
REMARK 923 INTER-LIGAND FREE ENERGY PREDICTED BY IDOCK:   -6.71 KCAL/MOL
REMARK 924 INTRA-LIGAND FREE ENERGY PREDICTED BY IDOCK:    0.29 KCAL/MOL
REMARK 927      BINDING AFFINITY PREDICTED BY RF-SCORE:    0.00 PKD
ROOT
HETATM    1  C   UNL     1     -10.898  13.178  65.565  1.00  0.00    -0.283 C  
HETATM    2  O   UNL     1     -10.545  12.409  66.706  1.00  0.00    -0.223 OA 
ENDROOT
BRANCH   2   3
HETATM    3  C   UNL     1     -11.025  12.827  67.922  1.00  0.00    -0.234 A  
HETATM    4  C   UNL     1     -11.666  11.845  68.700  1.00  0.00    -0.323 A  
HETATM    5  C   UNL     1     -12.185  12.185  69.951  1.00  0.00    -0.240 A  
HETATM    6  C   UNL     1     -11.419  14.464  69.676  1.00  0.00    -0.331 A  
HETATM    7  C   UNL     1     -10.893  14.127  68.422  1.00  0.00    -0.266 A  
HETATM    8  C   UNL     1     -12.052  13.486  70.444  1.00  0.00    -0.415 A  
BRANCH   4   9
HETATM    9  O   UNL     1     -11.780  10.596  68.147  1.00  0.00    -0.474 OA 
BRANCH   9  10
HETATM   10  C   UNL     1     -10.586   9.945  67.714  1.00  0.00    -0.261 C  
BRANCH  10  11
HETATM   11  C   UNL     1     -10.493   8.500  68.220  1.00  0.00    -0.222 C  
BRANCH  11  12
HETATM   12  C   UNL     1     -10.448   8.361  69.753  1.00  0.00    -0.220 C  
BRANCH  12  13
HETATM   13  N   UNL     1      -9.284   7.590  70.201  1.00  0.00    -0.154 NA 
HETATM   14  C   UNL     1      -8.774   6.669  69.178  1.00  0.00    -0.130 C  
HETATM   15  C   UNL     1      -7.435   6.052  69.631  1.00  0.00    -0.080 C  
HETATM   16  C   UNL     1      -7.483   5.452  71.051  1.00  0.00    -0.088 C  
HETATM   17  C   UNL     1      -8.137   6.481  71.989  1.00  0.00    -0.107 C  
HETATM   18  C   UNL     1      -9.506   6.894  71.465  1.00  0.00    -0.155 C  
BRANCH  16  19
HETATM   19  C   UNL     1      -8.180   4.119  71.131  1.00  0.00    -0.073 A  
HETATM   20  N   UNL     1      -8.120   3.247  70.114  1.00  0.00    -0.045 NA 
HETATM   21  O   UNL     1      -8.997   2.229  70.430  1.00  0.00    -0.072 OA 
HETATM   22  C   UNL     1      -9.566   2.481  71.640  1.00  0.00    -0.147 A  
HETATM   23  C   UNL     1      -9.028   3.633  72.171  1.00  0.00    -0.137 A  
HETATM   24  C   UNL     1      -9.454   4.049  73.445  1.00  0.00    -0.128 A  
HETATM   25  C   UNL     1     -10.453   3.302  74.087  1.00  0.00    -0.249 A  
HETATM   26  C   UNL     1     -10.990   2.167  73.482  1.00  0.00    -0.186 A  
HETATM   27  C   UNL     1     -10.545   1.702  72.248  1.00  0.00    -0.158 A  
HETATM   28  F   UNL     1     -11.972   1.505  74.108  1.00  0.00    -0.195 F  
ENDBRANCH  16  19
ENDBRANCH  12  13
ENDBRANCH  11  12
ENDBRANCH  10  11
ENDBRANCH   9  10
ENDBRANCH   4   9
BRANCH   6  29
HETATM   29  C   UNL     1     -11.277  15.870  70.145  1.00  0.00    -0.364 C  
HETATM   30  O   UNL     1     -11.732  16.189  71.242  1.00  0.00    -0.434 OA 
HETATM   31  C   UNL     1     -10.523  16.867  69.300  1.00  0.00    -0.319 C  
ENDBRANCH   6  29
ENDBRANCH   2   3
TORSDOF 8
ENDMDL
MODEL      280
REMARK 921   NORMALIZED FREE ENERGY PREDICTED BY IDOCK:   -3.83 KCAL/MOL
REMARK 922        TOTAL FREE ENERGY PREDICTED BY IDOCK:   -6.41 KCAL/MOL
REMARK 923 INTER-LIGAND FREE ENERGY PREDICTED BY IDOCK:   -7.15 KCAL/MOL
REMARK 924 INTRA-LIGAND FREE ENERGY PREDICTED BY IDOCK:    0.75 KCAL/MOL
REMARK 927      BINDING AFFINITY PREDICTED BY RF-SCORE:    0.00 PKD
ROOT
HETATM    1  C   UNL     1      -7.016   7.994  65.095  1.00  0.00    -0.062 C  
HETATM    2  O   UNL     1      -6.628   7.870  66.456  1.00  0.00    -0.052 OA 
ENDROOT
BRANCH   2   3
HETATM    3  C   UNL     1      -7.559   7.375  67.334  1.00  0.00    -0.112 A  
HETATM    4  C   UNL     1      -8.000   8.266  68.330  1.00  0.00    -0.119 A  
HETATM    5  C   UNL     1      -8.945   7.843  69.267  1.00  0.00    -0.145 A  
HETATM    6  C   UNL     1      -9.038   5.662  68.224  1.00  0.00    -0.112 A  
HETATM    7  C   UNL     1      -8.092   6.082  67.279  1.00  0.00    -0.106 A  
HETATM    8  C   UNL     1      -9.472   6.550  69.207  1.00  0.00    -0.141 A  
BRANCH   4   9
HETATM    9  O   UNL     1      -7.426   9.511  68.343  1.00  0.00    -0.076 OA 
BRANCH   9  10
HETATM   10  C   UNL     1      -7.904  10.477  67.406  1.00  0.00    -0.106 C  
BRANCH  10  11
HETATM   11  C   UNL     1      -8.970  11.398  68.012  1.00  0.00    -0.163 C  
BRANCH  11  12
HETATM   12  C   UNL     1     -10.415  11.062  67.597  1.00  0.00    -0.204 C  
BRANCH  12  13
HETATM   13  N   UNL     1     -10.794  11.721  66.343  1.00  0.00    -0.271 NA 
HETATM   14  C   UNL     1      -9.685  12.450  65.716  1.00  0.00    -0.200 C  
HETATM   15  C   UNL     1     -10.089  12.934  64.309  1.00  0.00    -0.251 C  
HETATM   16  C   UNL     1     -11.434  13.688  64.280  1.00  0.00    -0.393 C  
HETATM   17  C   UNL     1     -12.468  12.863  65.064  1.00  0.00    -0.553 C  
HETATM   18  C   UNL     1     -11.970  12.575  66.474  1.00  0.00    -0.296 C  
BRANCH  16  19
HETATM   19  C   UNL     1     -11.356  15.101  64.798  1.00  0.00    -0.395 A  
HETATM   20  N   UNL     1     -11.933  16.113  64.132  1.00  0.00    -0.781 NA 
HETATM   21  O   UNL     1     -11.525  17.269  64.766  1.00  0.00    -0.548 OA 
HETATM   22  C   UNL     1     -10.724  16.952  65.818  1.00  0.00    -0.160 A  
HETATM   23  C   UNL     1     -10.641  15.581  65.935  1.00  0.00    -0.350 A  
HETATM   24  C   UNL     1      -9.888  15.041  66.994  1.00  0.00    -0.241 A  
HETATM   25  C   UNL     1      -9.208  15.928  67.843  1.00  0.00    -0.198 A  
HETATM   26  C   UNL     1      -9.297  17.305  67.649  1.00  0.00    -0.237 A  
HETATM   27  C   UNL     1     -10.080  17.865  66.645  1.00  0.00    -0.362 A  
HETATM   28  F   UNL     1      -8.598  18.116  68.456  1.00  0.00    -0.277 F  
ENDBRANCH  16  19
ENDBRANCH  12  13
ENDBRANCH  11  12
ENDBRANCH  10  11
ENDBRANCH   9  10
ENDBRANCH   4   9
BRANCH   6  29
HETATM   29  C   UNL     1      -9.548   4.266  68.136  1.00  0.00    -0.137 C  
HETATM   30  O   UNL     1      -9.937   3.700  69.156  1.00  0.00     0.037 OA 
HETATM   31  C   UNL     1      -9.642   3.587  66.792  1.00  0.00    -0.140 C  
ENDBRANCH   6  29
ENDBRANCH   2   3
TORSDOF 8
ENDMDL
MODEL      281
REMARK 921   NORMALIZED FREE ENERGY PREDICTED BY IDOCK:   -3.82 KCAL/MOL
REMARK 922        TOTAL FREE ENERGY PREDICTED BY IDOCK:   -6.40 KCAL/MOL
REMARK 923 INTER-LIGAND FREE ENERGY PREDICTED BY IDOCK:   -6.84 KCAL/MOL
REMARK 924 INTRA-LIGAND FREE ENERGY PREDICTED BY IDOCK:    0.43 KCAL/MOL
REMARK 927      BINDING AFFINITY PREDICTED BY RF-SCORE:    0.00 PKD
ROOT
HETATM    1  C   UNL     1     -12.926   7.400  70.966  1.00  0.00    -0.151 C  
HETATM    2  O   UNL     1     -12.304   8.675  70.901  1.00  0.00    -0.202 OA 
ENDROOT
BRANCH   2   3
HETATM    3  C   UNL     1     -10.960   8.736  71.171  1.00  0.00    -0.268 A  
HETATM    4  C   UNL     1     -10.164   9.360  70.192  1.00  0.00    -0.231 A  
HETATM    5  C   UNL     1      -8.785   9.463  70.385  1.00  0.00    -0.278 A  
HETATM    6  C   UNL     1      -8.977   8.352  72.526  1.00  0.00    -0.308 A  
HETATM    7  C   UNL     1     -10.362   8.248  72.338  1.00  0.00    -0.402 A  
HETATM    8  C   UNL     1      -8.194   8.972  71.553  1.00  0.00    -0.055 A  
BRANCH   4   9
HETATM    9  O   UNL     1     -10.805   9.798  69.062  1.00  0.00    -0.219 OA 
BRANCH   9  10
HETATM   10  C   UNL     1     -11.251  11.154  69.031  1.00  0.00    -0.256 C  
BRANCH  10  11
HETATM   11  C   UNL     1     -10.562  11.969  67.930  1.00  0.00    -0.227 C  
BRANCH  11  12
HETATM   12  C   UNL     1     -11.522  12.586  66.896  1.00  0.00    -0.353 C  
BRANCH  12  13
HETATM   13  N   UNL     1     -11.441  14.050  66.875  1.00  0.00    -0.338 NA 
HETATM   14  C   UNL     1     -10.296  14.554  66.108  1.00  0.00    -0.297 C  
HETATM   15  C   UNL     1     -10.390  16.085  65.947  1.00  0.00    -0.386 C  
HETATM   16  C   UNL     1     -10.635  16.829  67.275  1.00  0.00    -0.275 C  
HETATM   17  C   UNL     1     -11.785  16.128  68.018  1.00  0.00     0.058 C  
HETATM   18  C   UNL     1     -11.481  14.648  68.206  1.00  0.00    -0.314 C  
BRANCH  16  19
HETATM   19  C   UNL     1      -9.413  16.947  68.148  1.00  0.00    -0.251 A  
HETATM   20  N   UNL     1      -8.964  18.146  68.549  1.00  0.00    -0.302 NA 
HETATM   21  O   UNL     1      -7.751  17.913  69.166  1.00  0.00    -0.165 OA 
HETATM   22  C   UNL     1      -7.483  16.580  69.151  1.00  0.00    -0.218 A  
HETATM   23  C   UNL     1      -8.541  15.904  68.583  1.00  0.00    -0.198 A  
HETATM   24  C   UNL     1      -8.482  14.501  68.510  1.00  0.00    -0.166 A  
HETATM   25  C   UNL     1      -7.318  13.862  68.965  1.00  0.00    -0.055 A  
HETATM   26  C   UNL     1      -6.262  14.603  69.492  1.00  0.00    -0.120 A  
HETATM   27  C   UNL     1      -6.319  15.986  69.628  1.00  0.00    -0.186 A  
HETATM   28  F   UNL     1      -5.151  13.959  69.876  1.00  0.00    -0.091 F  
ENDBRANCH  16  19
ENDBRANCH  12  13
ENDBRANCH  11  12
ENDBRANCH  10  11
ENDBRANCH   9  10
ENDBRANCH   4   9
BRANCH   6  29
HETATM   29  C   UNL     1      -8.392   7.788  73.773  1.00  0.00    -0.220 C  
HETATM   30  O   UNL     1      -8.740   6.672  74.152  1.00  0.00    -0.134 OA 
HETATM   31  C   UNL     1      -7.335   8.564  74.520  1.00  0.00    -0.230 C  
ENDBRANCH   6  29
ENDBRANCH   2   3
TORSDOF 8
ENDMDL
MODEL      282
REMARK 921   NORMALIZED FREE ENERGY PREDICTED BY IDOCK:   -3.80 KCAL/MOL
REMARK 922        TOTAL FREE ENERGY PREDICTED BY IDOCK:   -6.37 KCAL/MOL
REMARK 923 INTER-LIGAND FREE ENERGY PREDICTED BY IDOCK:   -6.42 KCAL/MOL
REMARK 924 INTRA-LIGAND FREE ENERGY PREDICTED BY IDOCK:    0.05 KCAL/MOL
REMARK 927      BINDING AFFINITY PREDICTED BY RF-SCORE:    0.00 PKD
ROOT
HETATM    1  C   UNL     1     -12.408   8.174  71.349  1.00  0.00    -0.298 C  
HETATM    2  O   UNL     1     -11.955   9.444  70.904  1.00  0.00    -0.288 OA 
ENDROOT
BRANCH   2   3
HETATM    3  C   UNL     1     -10.750   9.491  70.249  1.00  0.00    -0.265 A  
HETATM    4  C   UNL     1     -10.635  10.468  69.244  1.00  0.00    -0.236 A  
HETATM    5  C   UNL     1      -9.442  10.584  68.525  1.00  0.00    -0.164 A  
HETATM    6  C   UNL     1      -8.467   8.779  69.808  1.00  0.00    -0.129 A  
HETATM    7  C   UNL     1      -9.659   8.662  70.534  1.00  0.00    -0.210 A  
HETATM    8  C   UNL     1      -8.358   9.751  68.814  1.00  0.00    -0.113 A  
BRANCH   4   9
HETATM    9  O   UNL     1     -11.744  11.236  68.998  1.00  0.00    -0.286 OA 
BRANCH   9  10
HETATM   10  C   UNL     1     -11.803  12.533  69.591  1.00  0.00    -0.314 C  
BRANCH  10  11
HETATM   11  C   UNL     1     -11.388  13.640  68.615  1.00  0.00    -0.321 C  
BRANCH  11  12
HETATM   12  C   UNL     1     -12.025  15.013  68.896  1.00  0.00    -0.254 C  
BRANCH  12  13
HETATM   13  N   UNL     1     -11.256  16.110  68.299  1.00  0.00    -0.357 NA 
HETATM   14  C   UNL     1     -10.164  15.645  67.436  1.00  0.00    -0.264 C  
HETATM   15  C   UNL     1      -9.537  16.832  66.677  1.00  0.00    -0.274 C  
HETATM   16  C   UNL     1      -9.156  18.014  67.592  1.00  0.00    -0.255 C  
HETATM   17  C   UNL     1     -10.351  18.319  68.511  1.00  0.00    -0.341 C  
HETATM   18  C   UNL     1     -10.769  17.073  69.282  1.00  0.00    -0.226 C  
BRANCH  16  19
HETATM   19  C   UNL     1      -7.897  17.794  68.388  1.00  0.00    -0.284 A  
HETATM   20  N   UNL     1      -6.929  18.723  68.421  1.00  0.00    -0.249 NA 
HETATM   21  O   UNL     1      -5.862  18.141  69.075  1.00  0.00    -0.197 OA 
HETATM   22  C   UNL     1      -6.195  16.876  69.450  1.00  0.00    -0.226 A  
HETATM   23  C   UNL     1      -7.505  16.624  69.106  1.00  0.00    -0.207 A  
HETATM   24  C   UNL     1      -8.062  15.378  69.445  1.00  0.00    -0.249 A  
HETATM   25  C   UNL     1      -7.233  14.428  70.063  1.00  0.00     0.183 A  
HETATM   26  C   UNL     1      -5.902  14.726  70.348  1.00  0.00    -0.156 A  
HETATM   27  C   UNL     1      -5.344  15.971  70.075  1.00  0.00    -0.147 A  
HETATM   28  F   UNL     1      -5.133  13.778  70.899  1.00  0.00    -0.094 F  
ENDBRANCH  16  19
ENDBRANCH  12  13
ENDBRANCH  11  12
ENDBRANCH  10  11
ENDBRANCH   9  10
ENDBRANCH   4   9
BRANCH   6  29
HETATM   29  C   UNL     1      -7.350   7.851  70.134  1.00  0.00    -0.070 C  
HETATM   30  O   UNL     1      -6.252   8.311  70.441  1.00  0.00    -0.035 OA 
HETATM   31  C   UNL     1      -7.594   6.362  70.146  1.00  0.00    -0.096 C  
ENDBRANCH   6  29
ENDBRANCH   2   3
TORSDOF 8
ENDMDL
MODEL      283
REMARK 921   NORMALIZED FREE ENERGY PREDICTED BY IDOCK:   -3.79 KCAL/MOL
REMARK 922        TOTAL FREE ENERGY PREDICTED BY IDOCK:   -6.35 KCAL/MOL
REMARK 923 INTER-LIGAND FREE ENERGY PREDICTED BY IDOCK:   -5.96 KCAL/MOL
REMARK 924 INTRA-LIGAND FREE ENERGY PREDICTED BY IDOCK:   -0.39 KCAL/MOL
REMARK 927      BINDING AFFINITY PREDICTED BY RF-SCORE:    0.00 PKD
ROOT
HETATM    1  C   UNL     1      -7.029   7.991  64.486  1.00  0.00    -0.071 C  
HETATM    2  O   UNL     1      -5.910   8.043  65.359  1.00  0.00    -0.037 OA 
ENDROOT
BRANCH   2   3
HETATM    3  C   UNL     1      -6.010   7.375  66.554  1.00  0.00    -0.036 A  
HETATM    4  C   UNL     1      -5.688   8.121  67.703  1.00  0.00    -0.039 A  
HETATM    5  C   UNL     1      -5.762   7.519  68.961  1.00  0.00    -0.022 A  
HETATM    6  C   UNL     1      -6.493   5.445  67.952  1.00  0.00    -0.048 A  
HETATM    7  C   UNL     1      -6.424   6.046  66.688  1.00  0.00    -0.050 A  
HETATM    8  C   UNL     1      -6.174   6.190  69.087  1.00  0.00    -0.036 A  
BRANCH   4   9
HETATM    9  O   UNL     1      -5.271   9.412  67.505  1.00  0.00    -0.036 OA 
BRANCH   9  10
HETATM   10  C   UNL     1      -6.269  10.418  67.330  1.00  0.00    -0.058 C  
BRANCH  10  11
HETATM   11  C   UNL     1      -6.407  11.322  68.560  1.00  0.00    -0.047 C  
BRANCH  11  12
HETATM   12  C   UNL     1      -7.126  10.669  69.756  1.00  0.00    -0.139 C  
BRANCH  12  13
HETATM   13  N   UNL     1      -8.485  10.238  69.412  1.00  0.00    -0.166 NA 
HETATM   14  C   UNL     1      -9.330  11.333  68.920  1.00  0.00    -0.072 C  
HETATM   15  C   UNL     1     -10.663  10.779  68.378  1.00  0.00    -0.255 C  
HETATM   16  C   UNL     1     -11.376   9.824  69.358  1.00  0.00    -0.090 C  
HETATM   17  C   UNL     1     -10.348   8.804  69.873  1.00  0.00    -0.212 C  
HETATM   18  C   UNL     1      -9.149   9.511  70.490  1.00  0.00    -0.219 C  
BRANCH  16  19
HETATM   19  C   UNL     1     -12.072  10.522  70.498  1.00  0.00    -0.345 A  
HETATM   20  N   UNL     1     -12.666   9.822  71.476  1.00  0.00    -0.374 NA 
HETATM   21  O   UNL     1     -13.350  10.742  72.244  1.00  0.00    -0.385 OA 
HETATM   22  C   UNL     1     -13.151  11.991  71.740  1.00  0.00    -0.355 A  
HETATM   23  C   UNL     1     -12.284  11.922  70.672  1.00  0.00    -0.424 A  
HETATM   24  C   UNL     1     -11.911  13.117  70.031  1.00  0.00    -0.391 A  
HETATM   25  C   UNL     1     -12.492  14.316  70.473  1.00  0.00    -0.428 A  
HETATM   26  C   UNL     1     -13.397  14.317  71.534  1.00  0.00    -0.354 A  
HETATM   27  C   UNL     1     -13.737  13.157  72.221  1.00  0.00    -0.647 A  
HETATM   28  F   UNL     1     -13.961  15.476  71.899  1.00  0.00    -0.486 F  
ENDBRANCH  16  19
ENDBRANCH  12  13
ENDBRANCH  11  12
ENDBRANCH  10  11
ENDBRANCH   9  10
ENDBRANCH   4   9
BRANCH   6  29
HETATM   29  C   UNL     1      -6.911   4.019  68.032  1.00  0.00    -0.047 C  
HETATM   30  O   UNL     1      -7.547   3.630  69.009  1.00  0.00    -0.053 OA 
HETATM   31  C   UNL     1      -6.605   3.085  66.887  1.00  0.00    -0.037 C  
ENDBRANCH   6  29
ENDBRANCH   2   3
TORSDOF 8
ENDMDL
MODEL      284
REMARK 921   NORMALIZED FREE ENERGY PREDICTED BY IDOCK:   -3.74 KCAL/MOL
REMARK 922        TOTAL FREE ENERGY PREDICTED BY IDOCK:   -6.28 KCAL/MOL
REMARK 923 INTER-LIGAND FREE ENERGY PREDICTED BY IDOCK:   -5.61 KCAL/MOL
REMARK 924 INTRA-LIGAND FREE ENERGY PREDICTED BY IDOCK:   -0.68 KCAL/MOL
REMARK 927      BINDING AFFINITY PREDICTED BY RF-SCORE:    0.00 PKD
ROOT
HETATM    1  C   UNL     1     -10.370  20.019  67.545  1.00  0.00    -0.378 C  
HETATM    2  O   UNL     1     -10.054  18.743  67.009  1.00  0.00    -0.321 OA 
ENDROOT
BRANCH   2   3
HETATM    3  C   UNL     1      -9.942  17.697  67.891  1.00  0.00    -0.323 A  
HETATM    4  C   UNL     1      -8.653  17.458  68.400  1.00  0.00    -0.270 A  
HETATM    5  C   UNL     1      -8.449  16.412  69.302  1.00  0.00    -0.092 A  
HETATM    6  C   UNL     1     -10.801  15.849  69.218  1.00  0.00    -0.276 A  
HETATM    7  C   UNL     1     -11.011  16.900  68.315  1.00  0.00    -0.298 A  
HETATM    8  C   UNL     1      -9.520  15.618  69.720  1.00  0.00    -0.154 A  
BRANCH   4   9
HETATM    9  O   UNL     1      -7.645  18.260  67.931  1.00  0.00    -0.232 OA 
BRANCH   9  10
HETATM   10  C   UNL     1      -6.403  17.643  67.590  1.00  0.00    -0.162 C  
BRANCH  10  11
HETATM   11  C   UNL     1      -6.592  16.239  67.004  1.00  0.00    -0.193 C  
BRANCH  11  12
HETATM   12  C   UNL     1      -5.629  15.177  67.564  1.00  0.00     0.090 C  
BRANCH  12  13
HETATM   13  N   UNL     1      -6.345  14.056  68.182  1.00  0.00    -0.113 NA 
HETATM   14  C   UNL     1      -5.449  13.044  68.756  1.00  0.00    -0.072 C  
HETATM   15  C   UNL     1      -6.256  12.013  69.570  1.00  0.00    -0.117 C  
HETATM   16  C   UNL     1      -7.458  11.427  68.801  1.00  0.00    -0.124 C  
HETATM   17  C   UNL     1      -8.240  12.589  68.167  1.00  0.00    -0.170 C  
HETATM   18  C   UNL     1      -7.326  13.440  67.294  1.00  0.00    -0.023 C  
BRANCH  16  19
HETATM   19  C   UNL     1      -7.083  10.393  67.771  1.00  0.00    -0.084 A  
HETATM   20  N   UNL     1      -5.898   9.767  67.822  1.00  0.00    -0.040 NA 
HETATM   21  O   UNL     1      -5.802   9.036  66.655  1.00  0.00    -0.053 OA 
HETATM   22  C   UNL     1      -6.931   9.209  65.917  1.00  0.00    -0.088 A  
HETATM   23  C   UNL     1      -7.817  10.003  66.611  1.00  0.00    -0.111 A  
HETATM   24  C   UNL     1      -9.073  10.271  66.037  1.00  0.00    -0.189 A  
HETATM   25  C   UNL     1      -9.337   9.765  64.755  1.00  0.00    -0.327 A  
HETATM   26  C   UNL     1      -8.385   9.001  64.084  1.00  0.00    -0.173 A  
HETATM   27  C   UNL     1      -7.158   8.674  64.653  1.00  0.00    -0.081 A  
HETATM   28  F   UNL     1      -8.659   8.572  62.844  1.00  0.00    -0.189 F  
ENDBRANCH  16  19
ENDBRANCH  12  13
ENDBRANCH  11  12
ENDBRANCH  10  11
ENDBRANCH   9  10
ENDBRANCH   4   9
BRANCH   6  29
HETATM   29  C   UNL     1     -11.969  15.014  69.611  1.00  0.00    -0.321 C  
HETATM   30  O   UNL     1     -12.847  15.501  70.321  1.00  0.00    -0.361 OA 
HETATM   31  C   UNL     1     -12.093  13.606  69.083  1.00  0.00    -0.361 C  
ENDBRANCH   6  29
ENDBRANCH   2   3
TORSDOF 8
ENDMDL
MODEL      285
REMARK 921   NORMALIZED FREE ENERGY PREDICTED BY IDOCK:   -3.73 KCAL/MOL
REMARK 922        TOTAL FREE ENERGY PREDICTED BY IDOCK:   -6.27 KCAL/MOL
REMARK 923 INTER-LIGAND FREE ENERGY PREDICTED BY IDOCK:   -4.06 KCAL/MOL
REMARK 924 INTRA-LIGAND FREE ENERGY PREDICTED BY IDOCK:   -2.21 KCAL/MOL
REMARK 927      BINDING AFFINITY PREDICTED BY RF-SCORE:    0.00 PKD
ROOT
HETATM    1  C   UNL     1      -8.782   1.847  73.077  1.00  0.00    -0.062 C  
HETATM    2  O   UNL     1      -9.331   2.287  71.843  1.00  0.00    -0.085 OA 
ENDROOT
BRANCH   2   3
HETATM    3  C   UNL     1      -9.138   3.602  71.500  1.00  0.00    -0.114 A  
HETATM    4  C   UNL     1      -8.072   3.857  70.618  1.00  0.00    -0.054 A  
HETATM    5  C   UNL     1      -7.804   5.168  70.218  1.00  0.00    -0.079 A  
HETATM    6  C   UNL     1      -9.660   5.976  71.543  1.00  0.00    -0.175 A  
HETATM    7  C   UNL     1      -9.935   4.662  71.945  1.00  0.00    -0.254 A  
HETATM    8  C   UNL     1      -8.602   6.223  70.669  1.00  0.00    -0.139 A  
BRANCH   4   9
HETATM    9  O   UNL     1      -7.316   2.779  70.234  1.00  0.00    -0.040 OA 
BRANCH   9  10
HETATM   10  C   UNL     1      -6.186   3.021  69.396  1.00  0.00    -0.028 C  
BRANCH  10  11
HETATM   11  C   UNL     1      -6.228   2.193  68.106  1.00  0.00    -0.025 C  
BRANCH  11  12
HETATM   12  C   UNL     1      -7.647   1.885  67.591  1.00  0.00    -0.059 C  
BRANCH  12  13
HETATM   13  N   UNL     1      -8.116   2.892  66.634  1.00  0.00    -0.080 NA 
HETATM   14  C   UNL     1      -7.022   3.630  65.991  1.00  0.00    -0.062 C  
HETATM   15  C   UNL     1      -7.568   4.513  64.851  1.00  0.00    -0.077 C  
HETATM   16  C   UNL     1      -8.759   5.397  65.274  1.00  0.00    -0.145 C  
HETATM   17  C   UNL     1      -9.770   4.517  66.028  1.00  0.00    -0.216 C  
HETATM   18  C   UNL     1      -9.101   3.810  67.199  1.00  0.00    -0.159 C  
BRANCH  16  19
HETATM   19  C   UNL     1      -8.370   6.603  66.089  1.00  0.00    -0.130 A  
HETATM   20  N   UNL     1      -7.089   6.988  66.184  1.00  0.00    -0.072 NA 
HETATM   21  O   UNL     1      -7.060   7.991  67.130  1.00  0.00    -0.079 OA 
HETATM   22  C   UNL     1      -8.321   8.221  67.587  1.00  0.00    -0.127 A  
HETATM   23  C   UNL     1      -9.210   7.418  66.905  1.00  0.00    -0.183 A  
HETATM   24  C   UNL     1     -10.581   7.532  67.199  1.00  0.00    -0.415 A  
HETATM   25  C   UNL     1     -10.968   8.415  68.219  1.00  0.00     0.154 A  
HETATM   26  C   UNL     1     -10.019   9.171  68.903  1.00  0.00    -0.180 A  
HETATM   27  C   UNL     1      -8.664   9.119  68.592  1.00  0.00    -0.129 A  
HETATM   28  F   UNL     1     -10.425   9.971  69.898  1.00  0.00    -0.226 F  
ENDBRANCH  16  19
ENDBRANCH  12  13
ENDBRANCH  11  12
ENDBRANCH  10  11
ENDBRANCH   9  10
ENDBRANCH   4   9
BRANCH   6  29
HETATM   29  C   UNL     1     -10.522   7.069  72.073  1.00  0.00    -0.208 C  
HETATM   30  O   UNL     1     -10.041   7.895  72.846  1.00  0.00    -0.263 OA 
HETATM   31  C   UNL     1     -11.952   7.186  71.606  1.00  0.00    -0.353 C  
ENDBRANCH   6  29
ENDBRANCH   2   3
TORSDOF 8
ENDMDL
MODEL      286
REMARK 921   NORMALIZED FREE ENERGY PREDICTED BY IDOCK:   -3.72 KCAL/MOL
REMARK 922        TOTAL FREE ENERGY PREDICTED BY IDOCK:   -6.26 KCAL/MOL
REMARK 923 INTER-LIGAND FREE ENERGY PREDICTED BY IDOCK:   -5.39 KCAL/MOL
REMARK 924 INTRA-LIGAND FREE ENERGY PREDICTED BY IDOCK:   -0.87 KCAL/MOL
REMARK 927      BINDING AFFINITY PREDICTED BY RF-SCORE:    0.00 PKD
ROOT
HETATM    1  C   UNL     1     -11.009   4.333  65.232  1.00  0.00     0.118 C  
HETATM    2  O   UNL     1     -10.053   5.041  66.006  1.00  0.00    -0.195 OA 
ENDROOT
BRANCH   2   3
HETATM    3  C   UNL     1      -9.942   4.707  67.333  1.00  0.00    -0.141 A  
HETATM    4  C   UNL     1      -9.462   3.412  67.602  1.00  0.00    -0.181 A  
HETATM    5  C   UNL     1      -9.320   2.988  68.925  1.00  0.00    -0.228 A  
HETATM    6  C   UNL     1     -10.107   5.133  69.721  1.00  0.00    -0.336 A  
HETATM    7  C   UNL     1     -10.248   5.564  68.395  1.00  0.00    -0.242 A  
HETATM    8  C   UNL     1      -9.630   3.849  69.981  1.00  0.00    -0.269 A  
BRANCH   4   9
HETATM    9  O   UNL     1      -9.198   2.613  66.519  1.00  0.00    -0.137 OA 
BRANCH   9  10
HETATM   10  C   UNL     1      -7.836   2.277  66.252  1.00  0.00    -0.076 C  
BRANCH  10  11
HETATM   11  C   UNL     1      -7.019   3.487  65.784  1.00  0.00    -0.058 C  
BRANCH  11  12
HETATM   12  C   UNL     1      -7.286   3.913  64.328  1.00  0.00    -0.058 C  
BRANCH  12  13
HETATM   13  N   UNL     1      -6.752   5.248  64.039  1.00  0.00    -0.044 NA 
HETATM   14  C   UNL     1      -6.197   5.916  65.223  1.00  0.00    -0.037 C  
HETATM   15  C   UNL     1      -5.466   7.211  64.815  1.00  0.00    -0.032 C  
HETATM   16  C   UNL     1      -6.308   8.133  63.908  1.00  0.00    -0.067 C  
HETATM   17  C   UNL     1      -6.912   7.281  62.780  1.00  0.00    -0.069 C  
HETATM   18  C   UNL     1      -7.706   6.114  63.352  1.00  0.00    -0.098 C  
BRANCH  16  19
HETATM   19  C   UNL     1      -7.374   8.906  64.639  1.00  0.00    -0.101 A  
HETATM   20  N   UNL     1      -7.554   8.754  65.960  1.00  0.00    -0.092 NA 
HETATM   21  O   UNL     1      -8.703   9.452  66.272  1.00  0.00    -0.134 OA 
HETATM   22  C   UNL     1      -9.199  10.037  65.148  1.00  0.00    -0.222 A  
HETATM   23  C   UNL     1      -8.353   9.787  64.089  1.00  0.00    -0.169 A  
HETATM   24  C   UNL     1      -8.663  10.342  62.835  1.00  0.00    -0.214 A  
HETATM   25  C   UNL     1      -9.855  11.072  62.710  1.00  0.00    -0.262 A  
HETATM   26  C   UNL     1     -10.693  11.257  63.808  1.00  0.00    -0.379 A  
HETATM   27  C   UNL     1     -10.380  10.767  65.072  1.00  0.00    -0.357 A  
HETATM   28  F   UNL     1     -11.843  11.924  63.638  1.00  0.00    -0.472 F  
ENDBRANCH  16  19
ENDBRANCH  12  13
ENDBRANCH  11  12
ENDBRANCH  10  11
ENDBRANCH   9  10
ENDBRANCH   4   9
BRANCH   6  29
HETATM   29  C   UNL     1     -10.477   6.077  70.811  1.00  0.00    -0.239 C  
HETATM   30  O   UNL     1      -9.618   6.440  71.613  1.00  0.00    -0.161 OA 
HETATM   31  C   UNL     1     -11.880   6.627  70.881  1.00  0.00    -0.434 C  
ENDBRANCH   6  29
ENDBRANCH   2   3
TORSDOF 8
ENDMDL
MODEL      287
REMARK 921   NORMALIZED FREE ENERGY PREDICTED BY IDOCK:   -3.68 KCAL/MOL
REMARK 922        TOTAL FREE ENERGY PREDICTED BY IDOCK:   -6.20 KCAL/MOL
REMARK 923 INTER-LIGAND FREE ENERGY PREDICTED BY IDOCK:   -5.66 KCAL/MOL
REMARK 924 INTRA-LIGAND FREE ENERGY PREDICTED BY IDOCK:   -0.54 KCAL/MOL
REMARK 927      BINDING AFFINITY PREDICTED BY RF-SCORE:    0.00 PKD
ROOT
HETATM    1  C   UNL     1      -6.989   7.195  63.818  1.00  0.00    -0.060 C  
HETATM    2  O   UNL     1      -6.530   6.219  64.742  1.00  0.00    -0.033 OA 
ENDROOT
BRANCH   2   3
HETATM    3  C   UNL     1      -7.426   5.262  65.146  1.00  0.00    -0.073 A  
HETATM    4  C   UNL     1      -7.465   5.001  66.528  1.00  0.00    -0.087 A  
HETATM    5  C   UNL     1      -8.348   4.039  67.025  1.00  0.00    -0.100 A  
HETATM    6  C   UNL     1      -9.172   3.606  64.792  1.00  0.00    -0.145 A  
HETATM    7  C   UNL     1      -8.290   4.572  64.288  1.00  0.00    -0.114 A  
HETATM    8  C   UNL     1      -9.207   3.353  66.163  1.00  0.00    -0.169 A  
BRANCH   4   9
HETATM    9  O   UNL     1      -6.581   5.694  67.313  1.00  0.00    -0.053 OA 
BRANCH   9  10
HETATM   10  C   UNL     1      -6.979   6.979  67.793  1.00  0.00    -0.083 C  
BRANCH  10  11
HETATM   11  C   UNL     1      -7.996   6.884  68.936  1.00  0.00    -0.116 C  
BRANCH  11  12
HETATM   12  C   UNL     1      -9.312   7.643  68.685  1.00  0.00    -0.147 C  
BRANCH  12  13
HETATM   13  N   UNL     1      -9.169   8.661  67.640  1.00  0.00    -0.134 NA 
HETATM   14  C   UNL     1      -8.639   9.934  68.143  1.00  0.00    -0.118 C  
HETATM   15  C   UNL     1      -8.313  10.881  66.971  1.00  0.00    -0.132 C  
HETATM   16  C   UNL     1      -9.472  11.036  65.965  1.00  0.00    -0.235 C  
HETATM   17  C   UNL     1      -9.997   9.634  65.612  1.00  0.00    -0.321 C  
HETATM   18  C   UNL     1     -10.392   8.874  66.871  1.00  0.00    -0.262 C  
BRANCH  16  19
HETATM   19  C   UNL     1     -10.584  11.932  66.443  1.00  0.00    -0.248 A  
HETATM   20  N   UNL     1     -11.802  11.879  65.884  1.00  0.00    -0.448 NA 
HETATM   21  O   UNL     1     -12.515  12.933  66.419  1.00  0.00    -0.422 OA 
HETATM   22  C   UNL     1     -11.735  13.603  67.309  1.00  0.00    -0.380 A  
HETATM   23  C   UNL     1     -10.518  12.966  67.424  1.00  0.00    -0.235 A  
HETATM   24  C   UNL     1      -9.574  13.479  68.332  1.00  0.00    -0.196 A  
HETATM   25  C   UNL     1      -9.897  14.652  69.032  1.00  0.00    -0.178 A  
HETATM   26  C   UNL     1     -11.128  15.275  68.843  1.00  0.00    -0.266 A  
HETATM   27  C   UNL     1     -12.101  14.757  67.994  1.00  0.00    -0.163 A  
HETATM   28  F   UNL     1     -11.381  16.417  69.498  1.00  0.00    -0.304 F  
ENDBRANCH  16  19
ENDBRANCH  12  13
ENDBRANCH  11  12
ENDBRANCH  10  11
ENDBRANCH   9  10
ENDBRANCH   4   9
BRANCH   6  29
HETATM   29  C   UNL     1     -10.046   2.881  63.829  1.00  0.00    -0.169 C  
HETATM   30  O   UNL     1     -10.286   1.689  64.011  1.00  0.00    -0.093 OA 
HETATM   31  C   UNL     1     -10.678   3.631  62.683  1.00  0.00    -0.178 C  
ENDBRANCH   6  29
ENDBRANCH   2   3
TORSDOF 8
ENDMDL
MODEL      288
REMARK 921   NORMALIZED FREE ENERGY PREDICTED BY IDOCK:   -3.66 KCAL/MOL
REMARK 922        TOTAL FREE ENERGY PREDICTED BY IDOCK:   -6.17 KCAL/MOL
REMARK 923 INTER-LIGAND FREE ENERGY PREDICTED BY IDOCK:   -6.15 KCAL/MOL
REMARK 924 INTRA-LIGAND FREE ENERGY PREDICTED BY IDOCK:   -0.02 KCAL/MOL
REMARK 927      BINDING AFFINITY PREDICTED BY RF-SCORE:    0.00 PKD
ROOT
HETATM    1  C   UNL     1      -8.078  14.850  68.012  1.00  0.00    -0.136 C  
HETATM    2  O   UNL     1      -8.065  13.430  68.024  1.00  0.00    -0.136 OA 
ENDROOT
BRANCH   2   3
HETATM    3  C   UNL     1      -8.939  12.784  67.186  1.00  0.00    -0.214 A  
HETATM    4  C   UNL     1      -9.019  11.387  67.340  1.00  0.00    -0.154 A  
HETATM    5  C   UNL     1      -9.882  10.650  66.526  1.00  0.00    -0.250 A  
HETATM    6  C   UNL     1     -10.607  12.677  65.420  1.00  0.00    -0.307 A  
HETATM    7  C   UNL     1      -9.745  13.421  66.236  1.00  0.00    -0.280 A  
HETATM    8  C   UNL     1     -10.683  11.293  65.578  1.00  0.00    -0.283 A  
BRANCH   4   9
HETATM    9  O   UNL     1      -8.190  10.820  68.273  1.00  0.00    -0.113 OA 
BRANCH   9  10
HETATM   10  C   UNL     1      -8.453   9.473  68.668  1.00  0.00    -0.119 C  
BRANCH  10  11
HETATM   11  C   UNL     1      -7.167   8.654  68.833  1.00  0.00    -0.077 C  
BRANCH  11  12
HETATM   12  C   UNL     1      -7.035   7.469  67.858  1.00  0.00    -0.076 C  
BRANCH  12  13
HETATM   13  N   UNL     1      -7.506   6.213  68.452  1.00  0.00    -0.085 NA 
HETATM   14  C   UNL     1      -8.925   5.947  68.188  1.00  0.00    -0.115 C  
HETATM   15  C   UNL     1      -9.298   4.524  68.650  1.00  0.00    -0.199 C  
HETATM   16  C   UNL     1      -8.857   4.210  70.094  1.00  0.00    -0.133 C  
HETATM   17  C   UNL     1      -7.389   4.639  70.255  1.00  0.00    -0.050 C  
HETATM   18  C   UNL     1      -7.211   6.104  69.877  1.00  0.00    -0.074 C  
BRANCH  16  19
HETATM   19  C   UNL     1      -9.728   4.835  71.152  1.00  0.00    -0.181 A  
HETATM   20  N   UNL     1     -10.015   4.179  72.286  1.00  0.00    -0.168 NA 
HETATM   21  O   UNL     1     -10.961   4.941  72.940  1.00  0.00    -0.239 OA 
HETATM   22  C   UNL     1     -11.227   6.059  72.211  1.00  0.00    -0.293 A  
HETATM   23  C   UNL     1     -10.415   6.084  71.098  1.00  0.00    -0.284 A  
HETATM   24  C   UNL     1     -10.503   7.186  70.227  1.00  0.00    -0.232 A  
HETATM   25  C   UNL     1     -11.459   8.175  70.504  1.00  0.00    -0.179 A  
HETATM   26  C   UNL     1     -12.282   8.074  71.624  1.00  0.00    -0.307 A  
HETATM   27  C   UNL     1     -12.175   7.024  72.531  1.00  0.00     0.038 A  
HETATM   28  F   UNL     1     -13.210   9.017  71.830  1.00  0.00    -0.325 F  
ENDBRANCH  16  19
ENDBRANCH  12  13
ENDBRANCH  11  12
ENDBRANCH  10  11
ENDBRANCH   9  10
ENDBRANCH   4   9
BRANCH   6  29
HETATM   29  C   UNL     1     -11.418  13.404  64.405  1.00  0.00    -0.384 C  
HETATM   30  O   UNL     1     -11.416  13.014  63.239  1.00  0.00    -0.383 OA 
HETATM   31  C   UNL     1     -12.280  14.567  64.831  1.00  0.00    -0.409 C  
ENDBRANCH   6  29
ENDBRANCH   2   3
TORSDOF 8
ENDMDL
MODEL      289
REMARK 921   NORMALIZED FREE ENERGY PREDICTED BY IDOCK:   -3.62 KCAL/MOL
REMARK 922        TOTAL FREE ENERGY PREDICTED BY IDOCK:   -6.11 KCAL/MOL
REMARK 923 INTER-LIGAND FREE ENERGY PREDICTED BY IDOCK:   -4.15 KCAL/MOL
REMARK 924 INTRA-LIGAND FREE ENERGY PREDICTED BY IDOCK:   -1.97 KCAL/MOL
REMARK 927      BINDING AFFINITY PREDICTED BY RF-SCORE:    0.00 PKD
ROOT
HETATM    1  C   UNL     1     -10.249   4.979  69.648  1.00  0.00    -0.236 C  
HETATM    2  O   UNL     1      -9.931   6.326  69.965  1.00  0.00    -0.166 OA 
ENDROOT
BRANCH   2   3
HETATM    3  C   UNL     1      -9.580   6.603  71.262  1.00  0.00    -0.169 A  
HETATM    4  C   UNL     1     -10.520   7.336  72.010  1.00  0.00    -0.201 A  
HETATM    5  C   UNL     1     -10.242   7.664  73.339  1.00  0.00    -0.375 A  
HETATM    6  C   UNL     1      -8.113   6.523  73.200  1.00  0.00    -0.106 A  
HETATM    7  C   UNL     1      -8.388   6.189  71.867  1.00  0.00    -0.118 A  
HETATM    8  C   UNL     1      -9.049   7.249  73.936  1.00  0.00    -0.276 A  
BRANCH   4   9
HETATM    9  O   UNL     1     -11.659   7.730  71.356  1.00  0.00    -0.264 OA 
BRANCH   9  10
HETATM   10  C   UNL     1     -11.919   9.130  71.251  1.00  0.00    -0.325 C  
BRANCH  10  11
HETATM   11  C   UNL     1     -11.859   9.627  69.802  1.00  0.00     0.141 C  
BRANCH  11  12
HETATM   12  C   UNL     1     -11.244  11.028  69.632  1.00  0.00    -0.278 C  
BRANCH  12  13
HETATM   13  N   UNL     1      -9.989  10.989  68.873  1.00  0.00    -0.200 NA 
HETATM   14  C   UNL     1     -10.180  10.635  67.461  1.00  0.00    -0.199 C  
HETATM   15  C   UNL     1      -8.864  10.821  66.679  1.00  0.00    -0.151 C  
HETATM   16  C   UNL     1      -7.652  10.135  67.343  1.00  0.00    -0.094 C  
HETATM   17  C   UNL     1      -7.642  10.507  68.834  1.00  0.00    -0.108 C  
HETATM   18  C   UNL     1      -8.969  10.146  69.489  1.00  0.00    -0.188 C  
BRANCH  16  19
HETATM   19  C   UNL     1      -7.611   8.641  67.152  1.00  0.00    -0.092 A  
HETATM   20  N   UNL     1      -8.411   8.037  66.261  1.00  0.00    -0.126 NA 
HETATM   21  O   UNL     1      -8.256   6.681  66.466  1.00  0.00    -0.108 OA 
HETATM   22  C   UNL     1      -7.354   6.472  67.462  1.00  0.00    -0.095 A  
HETATM   23  C   UNL     1      -6.851   7.683  67.887  1.00  0.00    -0.068 A  
HETATM   24  C   UNL     1      -5.866   7.686  68.891  1.00  0.00    -0.027 A  
HETATM   25  C   UNL     1      -5.488   6.457  69.453  1.00  0.00    -0.013 A  
HETATM   26  C   UNL     1      -6.062   5.267  69.010  1.00  0.00    -0.025 A  
HETATM   27  C   UNL     1      -6.996   5.232  67.980  1.00  0.00    -0.062 A  
HETATM   28  F   UNL     1      -5.705   4.119  69.601  1.00  0.00    -0.014 F  
ENDBRANCH  16  19
ENDBRANCH  12  13
ENDBRANCH  11  12
ENDBRANCH  10  11
ENDBRANCH   9  10
ENDBRANCH   4   9
BRANCH   6  29
HETATM   29  C   UNL     1      -6.816   6.082  73.782  1.00  0.00    -0.080 C  
HETATM   30  O   UNL     1      -6.068   6.916  74.291  1.00  0.00    -0.069 OA 
HETATM   31  C   UNL     1      -6.463   4.615  73.800  1.00  0.00    -0.053 C  
ENDBRANCH   6  29
ENDBRANCH   2   3
TORSDOF 8
ENDMDL
MODEL      290
REMARK 921   NORMALIZED FREE ENERGY PREDICTED BY IDOCK:   -3.51 KCAL/MOL
REMARK 922        TOTAL FREE ENERGY PREDICTED BY IDOCK:   -5.94 KCAL/MOL
REMARK 923 INTER-LIGAND FREE ENERGY PREDICTED BY IDOCK:   -5.40 KCAL/MOL
REMARK 924 INTRA-LIGAND FREE ENERGY PREDICTED BY IDOCK:   -0.54 KCAL/MOL
REMARK 927      BINDING AFFINITY PREDICTED BY RF-SCORE:    0.00 PKD
ROOT
HETATM    1  C   UNL     1      -8.704   5.187  72.959  1.00  0.00    -0.114 C  
HETATM    2  O   UNL     1      -9.822   5.644  72.212  1.00  0.00    -0.158 OA 
ENDROOT
BRANCH   2   3
HETATM    3  C   UNL     1      -9.714   5.632  70.844  1.00  0.00    -0.173 A  
HETATM    4  C   UNL     1      -9.605   6.891  70.225  1.00  0.00    -0.168 A  
HETATM    5  C   UNL     1      -9.493   6.971  68.835  1.00  0.00    -0.137 A  
HETATM    6  C   UNL     1      -9.573   4.559  68.667  1.00  0.00    -0.222 A  
HETATM    7  C   UNL     1      -9.682   4.473  70.061  1.00  0.00    -0.283 A  
HETATM    8  C   UNL     1      -9.465   5.809  68.059  1.00  0.00    -0.116 A  
BRANCH   4   9
HETATM    9  O   UNL     1      -9.662   7.989  71.044  1.00  0.00    -0.159 OA 
BRANCH   9  10
HETATM   10  C   UNL     1     -10.918   8.655  71.182  1.00  0.00    -0.260 C  
BRANCH  10  11
HETATM   11  C   UNL     1     -10.876  10.093  70.651  1.00  0.00    -0.305 C  
BRANCH  11  12
HETATM   12  C   UNL     1     -11.641  10.309  69.332  1.00  0.00    -0.146 C  
BRANCH  12  13
HETATM   13  N   UNL     1     -12.151  11.679  69.211  1.00  0.00    -0.294 NA 
HETATM   14  C   UNL     1     -11.762  12.331  67.955  1.00  0.00    -0.347 C  
HETATM   15  C   UNL     1     -12.502  13.674  67.796  1.00  0.00     0.224 C  
HETATM   16  C   UNL     1     -12.397  14.585  69.037  1.00  0.00    -0.122 C  
HETATM   17  C   UNL     1     -12.724  13.744  70.282  1.00  0.00    -0.208 C  
HETATM   18  C   UNL     1     -11.823  12.520  70.358  1.00  0.00    -0.160 C  
BRANCH  16  19
HETATM   19  C   UNL     1     -11.067  15.278  69.179  1.00  0.00    -0.263 A  
HETATM   20  N   UNL     1     -10.735  15.908  70.316  1.00  0.00    -0.321 NA 
HETATM   21  O   UNL     1      -9.557  16.576  70.052  1.00  0.00     0.336 OA 
HETATM   22  C   UNL     1      -9.174  16.333  68.770  1.00  0.00    -0.240 A  
HETATM   23  C   UNL     1     -10.057  15.451  68.186  1.00  0.00    -0.222 A  
HETATM   24  C   UNL     1      -9.816  15.033  66.865  1.00  0.00    -0.244 A  
HETATM   25  C   UNL     1      -8.720  15.586  66.185  1.00  0.00    -0.186 A  
HETATM   26  C   UNL     1      -7.884  16.506  66.814  1.00  0.00    -0.261 A  
HETATM   27  C   UNL     1      -8.068  16.891  68.139  1.00  0.00    -0.201 A  
HETATM   28  F   UNL     1      -6.873  17.042  66.118  1.00  0.00    -0.256 F  
ENDBRANCH  16  19
ENDBRANCH  12  13
ENDBRANCH  11  12
ENDBRANCH  10  11
ENDBRANCH   9  10
ENDBRANCH   4   9
BRANCH   6  29
HETATM   29  C   UNL     1      -9.575   3.294  67.881  1.00  0.00    -0.084 C  
HETATM   30  O   UNL     1      -9.483   3.344  66.656  1.00  0.00    -0.185 OA 
HETATM   31  C   UNL     1      -9.626   1.968  68.599  1.00  0.00    -0.127 C  
ENDBRANCH   6  29
ENDBRANCH   2   3
TORSDOF 8
ENDMDL
MODEL      291
REMARK 921   NORMALIZED FREE ENERGY PREDICTED BY IDOCK:   -3.50 KCAL/MOL
REMARK 922        TOTAL FREE ENERGY PREDICTED BY IDOCK:   -5.93 KCAL/MOL
REMARK 923 INTER-LIGAND FREE ENERGY PREDICTED BY IDOCK:   -5.27 KCAL/MOL
REMARK 924 INTRA-LIGAND FREE ENERGY PREDICTED BY IDOCK:   -0.66 KCAL/MOL
REMARK 927      BINDING AFFINITY PREDICTED BY RF-SCORE:    0.00 PKD
ROOT
HETATM    1  C   UNL     1     -11.836  14.535  67.196  1.00  0.00    -0.387 C  
HETATM    2  O   UNL     1     -10.572  14.584  66.550  1.00  0.00    -0.289 OA 
ENDROOT
BRANCH   2   3
HETATM    3  C   UNL     1      -9.873  15.763  66.620  1.00  0.00    -0.252 A  
HETATM    4  C   UNL     1      -8.473  15.643  66.703  1.00  0.00    -0.288 A  
HETATM    5  C   UNL     1      -7.684  16.794  66.780  1.00  0.00    -0.285 A  
HETATM    6  C   UNL     1      -9.661  18.185  66.668  1.00  0.00    -0.306 A  
HETATM    7  C   UNL     1     -10.456  17.034  66.588  1.00  0.00    -0.253 A  
HETATM    8  C   UNL     1      -8.274  18.060  66.750  1.00  0.00    -0.272 A  
BRANCH   4   9
HETATM    9  O   UNL     1      -7.963  14.372  66.750  1.00  0.00     0.013 OA 
BRANCH   9  10
HETATM   10  C   UNL     1      -7.686  13.810  68.033  1.00  0.00    -0.152 C  
BRANCH  10  11
HETATM   11  C   UNL     1      -6.738  12.608  67.950  1.00  0.00    -0.109 C  
BRANCH  11  12
HETATM   12  C   UNL     1      -6.828  11.639  69.144  1.00  0.00    -0.111 C  
BRANCH  12  13
HETATM   13  N   UNL     1      -7.536  10.403  68.797  1.00  0.00    -0.090 NA 
HETATM   14  C   UNL     1      -8.976  10.465  69.076  1.00  0.00    -0.179 C  
HETATM   15  C   UNL     1      -9.689   9.228  68.494  1.00  0.00    -0.162 C  
HETATM   16  C   UNL     1      -9.028   7.893  68.893  1.00  0.00    -0.141 C  
HETATM   17  C   UNL     1      -7.514   8.011  68.650  1.00  0.00    -0.098 C  
HETATM   18  C   UNL     1      -6.941   9.211  69.393  1.00  0.00    -0.052 C  
BRANCH  16  19
HETATM   19  C   UNL     1      -9.322   7.460  70.306  1.00  0.00    -0.162 A  
HETATM   20  N   UNL     1     -10.166   8.158  71.080  1.00  0.00    -0.192 NA 
HETATM   21  O   UNL     1     -10.071   7.608  72.342  1.00  0.00    -0.186 OA 
HETATM   22  C   UNL     1      -9.188   6.573  72.321  1.00  0.00    -0.138 A  
HETATM   23  C   UNL     1      -8.735   6.382  71.034  1.00  0.00    -0.135 A  
HETATM   24  C   UNL     1      -7.840   5.326  70.786  1.00  0.00    -0.093 A  
HETATM   25  C   UNL     1      -7.404   4.557  71.876  1.00  0.00    -0.073 A  
HETATM   26  C   UNL     1      -7.866   4.824  73.163  1.00  0.00    -0.096 A  
HETATM   27  C   UNL     1      -8.795   5.826  73.426  1.00  0.00    -0.123 A  
HETATM   28  F   UNL     1      -7.393   4.094  74.182  1.00  0.00    -0.061 F  
ENDBRANCH  16  19
ENDBRANCH  12  13
ENDBRANCH  11  12
ENDBRANCH  10  11
ENDBRANCH   9  10
ENDBRANCH   4   9
BRANCH   6  29
HETATM   29  C   UNL     1     -10.338  19.511  66.661  1.00  0.00    -0.465 C  
HETATM   30  O   UNL     1     -10.146  20.292  67.591  1.00  0.00    -0.404 OA 
HETATM   31  C   UNL     1     -11.199  19.904  65.486  1.00  0.00     0.274 C  
ENDBRANCH   6  29
ENDBRANCH   2   3
TORSDOF 8
ENDMDL
MODEL      292
REMARK 921   NORMALIZED FREE ENERGY PREDICTED BY IDOCK:   -3.48 KCAL/MOL
REMARK 922        TOTAL FREE ENERGY PREDICTED BY IDOCK:   -5.90 KCAL/MOL
REMARK 923 INTER-LIGAND FREE ENERGY PREDICTED BY IDOCK:   -5.05 KCAL/MOL
REMARK 924 INTRA-LIGAND FREE ENERGY PREDICTED BY IDOCK:   -0.85 KCAL/MOL
REMARK 927      BINDING AFFINITY PREDICTED BY RF-SCORE:    0.00 PKD
ROOT
HETATM    1  C   UNL     1      -9.566   9.332  65.831  1.00  0.00    -0.275 C  
HETATM    2  O   UNL     1      -8.455   9.911  66.499  1.00  0.00    -0.124 OA 
ENDROOT
BRANCH   2   3
HETATM    3  C   UNL     1      -8.344   9.688  67.849  1.00  0.00    -0.117 A  
HETATM    4  C   UNL     1      -7.468  10.543  68.543  1.00  0.00    -0.091 A  
HETATM    5  C   UNL     1      -7.293  10.385  69.919  1.00  0.00    -0.149 A  
HETATM    6  C   UNL     1      -8.869   8.549  69.932  1.00  0.00    -0.137 A  
HETATM    7  C   UNL     1      -9.050   8.706  68.551  1.00  0.00    -0.138 A  
HETATM    8  C   UNL     1      -8.000   9.400  70.614  1.00  0.00    -0.189 A  
BRANCH   4   9
HETATM    9  O   UNL     1      -6.790  11.472  67.796  1.00  0.00    -0.070 OA 
BRANCH   9  10
HETATM   10  C   UNL     1      -5.704  12.163  68.414  1.00  0.00    -0.053 C  
BRANCH  10  11
HETATM   11  C   UNL     1      -5.402  13.503  67.733  1.00  0.00    -0.059 C  
BRANCH  11  12
HETATM   12  C   UNL     1      -5.777  14.742  68.566  1.00  0.00    -0.099 C  
BRANCH  12  13
HETATM   13  N   UNL     1      -6.857  15.516  67.945  1.00  0.00    -0.133 NA 
HETATM   14  C   UNL     1      -7.605  16.337  68.905  1.00  0.00    -0.212 C  
HETATM   15  C   UNL     1      -8.575  17.279  68.164  1.00  0.00    -0.242 C  
HETATM   16  C   UNL     1      -9.461  16.558  67.128  1.00  0.00    -0.246 C  
HETATM   17  C   UNL     1      -8.562  15.656  66.267  1.00  0.00    -0.265 C  
HETATM   18  C   UNL     1      -7.762  14.700  67.141  1.00  0.00    -0.088 C  
BRANCH  16  19
HETATM   19  C   UNL     1     -10.600  15.779  67.731  1.00  0.00    -0.292 A  
HETATM   20  N   UNL     1     -11.297  14.897  66.999  1.00  0.00    -0.349 NA 
HETATM   21  O   UNL     1     -12.361  14.503  67.784  1.00  0.00    -0.204 OA 
HETATM   22  C   UNL     1     -12.293  15.132  68.989  1.00  0.00    -0.015 A  
HETATM   23  C   UNL     1     -11.150  15.900  69.042  1.00  0.00    -0.294 A  
HETATM   24  C   UNL     1     -10.868  16.604  70.226  1.00  0.00    -0.062 A  
HETATM   25  C   UNL     1     -11.798  16.537  71.275  1.00  0.00     0.045 A  
HETATM   26  C   UNL     1     -12.958  15.775  71.147  1.00  0.00    -0.361 A  
HETATM   27  C   UNL     1     -13.232  15.025  70.009  1.00  0.00     0.236 A  
HETATM   28  F   UNL     1     -13.841  15.771  72.155  1.00  0.00    -0.519 F  
ENDBRANCH  16  19
ENDBRANCH  12  13
ENDBRANCH  11  12
ENDBRANCH  10  11
ENDBRANCH   9  10
ENDBRANCH   4   9
BRANCH   6  29
HETATM   29  C   UNL     1      -9.624   7.467  70.622  1.00  0.00    -0.171 C  
HETATM   30  O   UNL     1     -10.802   7.272  70.330  1.00  0.00    -0.234 OA 
HETATM   31  C   UNL     1      -8.919   6.584  71.622  1.00  0.00    -0.143 C  
ENDBRANCH   6  29
ENDBRANCH   2   3
TORSDOF 8
ENDMDL
MODEL      293
REMARK 921   NORMALIZED FREE ENERGY PREDICTED BY IDOCK:   -3.47 KCAL/MOL
REMARK 922        TOTAL FREE ENERGY PREDICTED BY IDOCK:   -5.89 KCAL/MOL
REMARK 923 INTER-LIGAND FREE ENERGY PREDICTED BY IDOCK:   -4.68 KCAL/MOL
REMARK 924 INTRA-LIGAND FREE ENERGY PREDICTED BY IDOCK:   -1.21 KCAL/MOL
REMARK 927      BINDING AFFINITY PREDICTED BY RF-SCORE:    0.00 PKD
ROOT
HETATM    1  C   UNL     1     -11.702  11.062  67.902  1.00  0.00    -0.135 C  
HETATM    2  O   UNL     1     -11.099  11.093  69.188  1.00  0.00    -0.213 OA 
ENDROOT
BRANCH   2   3
HETATM    3  C   UNL     1     -10.686   9.898  69.721  1.00  0.00    -0.267 A  
HETATM    4  C   UNL     1     -10.974   9.701  71.084  1.00  0.00    -0.360 A  
HETATM    5  C   UNL     1     -10.588   8.513  71.708  1.00  0.00    -0.371 A  
HETATM    6  C   UNL     1      -9.650   7.700  69.631  1.00  0.00    -0.160 A  
HETATM    7  C   UNL     1     -10.039   8.889  69.000  1.00  0.00    -0.205 A  
HETATM    8  C   UNL     1      -9.940   7.510  70.982  1.00  0.00    -0.189 A  
BRANCH   4   9
HETATM    9  O   UNL     1     -11.593  10.734  71.740  1.00  0.00     0.496 OA 
BRANCH   9  10
HETATM   10  C   UNL     1     -13.015  10.825  71.652  1.00  0.00    -0.476 C  
BRANCH  10  11
HETATM   11  C   UNL     1     -13.496  12.268  71.467  1.00  0.00     0.039 C  
BRANCH  11  12
HETATM   12  C   UNL     1     -12.596  13.332  72.123  1.00  0.00     0.069 C  
BRANCH  12  13
HETATM   13  N   UNL     1     -12.183  14.367  71.169  1.00  0.00    -0.334 NA 
HETATM   14  C   UNL     1     -13.012  14.400  69.958  1.00  0.00     0.128 C  
HETATM   15  C   UNL     1     -12.665  15.636  69.104  1.00  0.00     0.539 C  
HETATM   16  C   UNL     1     -11.154  15.794  68.837  1.00  0.00    -0.298 C  
HETATM   17  C   UNL     1     -10.407  15.629  70.171  1.00  0.00    -0.268 C  
HETATM   18  C   UNL     1     -10.765  14.303  70.828  1.00  0.00     1.046 C  
BRANCH  16  19
HETATM   19  C   UNL     1     -10.614  14.857  67.788  1.00  0.00    -0.262 A  
HETATM   20  N   UNL     1      -9.310  14.546  67.746  1.00  0.00    -0.195 NA 
HETATM   21  O   UNL     1      -9.126  13.829  66.581  1.00  0.00    -0.240 OA 
HETATM   22  C   UNL     1     -10.317  13.693  65.938  1.00  0.00    -0.301 A  
HETATM   23  C   UNL     1     -11.316  14.263  66.697  1.00  0.00    -0.356 A  
HETATM   24  C   UNL     1     -12.640  14.194  66.227  1.00  0.00    -0.297 A  
HETATM   25  C   UNL     1     -12.869  13.600  64.976  1.00  0.00    -0.325 A  
HETATM   26  C   UNL     1     -11.811  13.078  64.234  1.00  0.00    -0.396 A  
HETATM   27  C   UNL     1     -10.501  13.083  64.702  1.00  0.00    -0.400 A  
HETATM   28  F   UNL     1     -12.066  12.558  63.025  1.00  0.00    -0.521 F  
ENDBRANCH  16  19
ENDBRANCH  12  13
ENDBRANCH  11  12
ENDBRANCH  10  11
ENDBRANCH   9  10
ENDBRANCH   4   9
BRANCH   6  29
HETATM   29  C   UNL     1      -8.937   6.674  68.821  1.00  0.00    -0.125 C  
HETATM   30  O   UNL     1      -7.840   6.944  68.336  1.00  0.00    -0.116 OA 
HETATM   31  C   UNL     1      -9.536   5.299  68.660  1.00  0.00    -0.183 C  
ENDBRANCH   6  29
ENDBRANCH   2   3
TORSDOF 8
ENDMDL
MODEL      294
REMARK 921   NORMALIZED FREE ENERGY PREDICTED BY IDOCK:   -3.46 KCAL/MOL
REMARK 922        TOTAL FREE ENERGY PREDICTED BY IDOCK:   -5.87 KCAL/MOL
REMARK 923 INTER-LIGAND FREE ENERGY PREDICTED BY IDOCK:   -4.60 KCAL/MOL
REMARK 924 INTRA-LIGAND FREE ENERGY PREDICTED BY IDOCK:   -1.26 KCAL/MOL
REMARK 927      BINDING AFFINITY PREDICTED BY RF-SCORE:    0.00 PKD
ROOT
HETATM    1  C   UNL     1     -12.050  14.801  70.009  1.00  0.00    -0.329 C  
HETATM    2  O   UNL     1     -11.080  15.589  69.335  1.00  0.00    -0.252 OA 
ENDROOT
BRANCH   2   3
HETATM    3  C   UNL     1     -10.676  15.167  68.093  1.00  0.00    -0.254 A  
HETATM    4  C   UNL     1      -9.576  15.848  67.540  1.00  0.00    -0.221 A  
HETATM    5  C   UNL     1      -9.100  15.484  66.279  1.00  0.00    -0.369 A  
HETATM    6  C   UNL     1     -10.785  13.755  66.117  1.00  0.00    -0.283 A  
HETATM    7  C   UNL     1     -11.264  14.114  67.383  1.00  0.00    -0.334 A  
HETATM    8  C   UNL     1      -9.694  14.433  65.574  1.00  0.00    -0.214 A  
BRANCH   4   9
HETATM    9  O   UNL     1      -9.057  16.882  68.276  1.00  0.00    -0.221 OA 
BRANCH   9  10
HETATM   10  C   UNL     1      -7.997  16.588  69.187  1.00  0.00    -0.182 C  
BRANCH  10  11
HETATM   11  C   UNL     1      -7.112  15.435  68.698  1.00  0.00    -0.116 C  
BRANCH  11  12
HETATM   12  C   UNL     1      -6.568  14.528  69.817  1.00  0.00    -0.158 C  
BRANCH  12  13
HETATM   13  N   UNL     1      -6.135  13.223  69.306  1.00  0.00    -0.093 NA 
HETATM   14  C   UNL     1      -6.122  13.154  67.840  1.00  0.00    -0.139 C  
HETATM   15  C   UNL     1      -5.458  11.843  67.371  1.00  0.00    -0.107 C  
HETATM   16  C   UNL     1      -6.030  10.585  68.057  1.00  0.00    -0.047 C  
HETATM   17  C   UNL     1      -6.086  10.842  69.571  1.00  0.00    -0.061 C  
HETATM   18  C   UNL     1      -6.881  12.105  69.874  1.00  0.00     0.310 C  
BRANCH  16  19
HETATM   19  C   UNL     1      -7.372  10.153  67.526  1.00  0.00    -0.089 A  
HETATM   20  N   UNL     1      -8.164   9.335  68.235  1.00  0.00    -0.114 NA 
HETATM   21  O   UNL     1      -9.211   8.999  67.401  1.00  0.00    -0.136 OA 
HETATM   22  C   UNL     1      -9.058   9.627  66.204  1.00  0.00    -0.161 A  
HETATM   23  C   UNL     1      -7.944  10.437  66.249  1.00  0.00    -0.138 A  
HETATM   24  C   UNL     1      -7.629  11.212  65.118  1.00  0.00     0.521 A  
HETATM   25  C   UNL     1      -8.433  11.074  63.976  1.00  0.00     0.216 A  
HETATM   26  C   UNL     1      -9.524  10.207  63.976  1.00  0.00    -0.282 A  
HETATM   27  C   UNL     1      -9.889   9.473  65.100  1.00  0.00    -0.101 A  
HETATM   28  F   UNL     1     -10.241  10.072  62.852  1.00  0.00    -0.008 F  
ENDBRANCH  16  19
ENDBRANCH  12  13
ENDBRANCH  11  12
ENDBRANCH  10  11
ENDBRANCH   9  10
ENDBRANCH   4   9
BRANCH   6  29
HETATM   29  C   UNL     1     -11.469  12.648  65.394  1.00  0.00    -0.338 C  
HETATM   30  O   UNL     1     -11.899  11.687  66.029  1.00  0.00    -0.374 OA 
HETATM   31  C   UNL     1     -11.682  12.747  63.903  1.00  0.00    -0.530 C  
ENDBRANCH   6  29
ENDBRANCH   2   3
TORSDOF 8
ENDMDL
MODEL      295
REMARK 921   NORMALIZED FREE ENERGY PREDICTED BY IDOCK:   -3.41 KCAL/MOL
REMARK 922        TOTAL FREE ENERGY PREDICTED BY IDOCK:   -5.80 KCAL/MOL
REMARK 923 INTER-LIGAND FREE ENERGY PREDICTED BY IDOCK:   -6.28 KCAL/MOL
REMARK 924 INTRA-LIGAND FREE ENERGY PREDICTED BY IDOCK:    0.49 KCAL/MOL
REMARK 927      BINDING AFFINITY PREDICTED BY RF-SCORE:    0.00 PKD
ROOT
HETATM    1  C   UNL     1      -8.268  12.298  68.361  1.00  0.00    -0.146 C  
HETATM    2  O   UNL     1      -7.864  12.913  67.146  1.00  0.00    -0.156 OA 
ENDROOT
BRANCH   2   3
HETATM    3  C   UNL     1      -8.666  13.909  66.646  1.00  0.00    -0.013 A  
HETATM    4  C   UNL     1      -9.852  13.486  66.018  1.00  0.00    -0.265 A  
HETATM    5  C   UNL     1     -10.725  14.433  65.479  1.00  0.00    -0.344 A  
HETATM    6  C   UNL     1      -9.265  16.223  66.201  1.00  0.00    -0.376 A  
HETATM    7  C   UNL     1      -8.388  15.277  66.746  1.00  0.00    -0.258 A  
HETATM    8  C   UNL     1     -10.440  15.798  65.581  1.00  0.00    -0.402 A  
BRANCH   4   9
HETATM    9  O   UNL     1     -10.058  12.133  65.934  1.00  0.00    -0.234 OA 
BRANCH   9  10
HETATM   10  C   UNL     1      -9.477  11.435  64.832  1.00  0.00    -0.171 C  
BRANCH  10  11
HETATM   11  C   UNL     1      -9.327   9.934  65.106  1.00  0.00    -0.317 C  
BRANCH  11  12
HETATM   12  C   UNL     1     -10.203   9.404  66.256  1.00  0.00    -0.214 C  
BRANCH  12  13
HETATM   13  N   UNL     1      -9.974   7.977  66.509  1.00  0.00    -0.242 NA 
HETATM   14  C   UNL     1     -10.906   7.408  67.490  1.00  0.00    -0.187 C  
HETATM   15  C   UNL     1     -10.751   5.875  67.549  1.00  0.00    -0.359 C  
HETATM   16  C   UNL     1      -9.291   5.410  67.724  1.00  0.00    -0.124 C  
HETATM   17  C   UNL     1      -8.418   6.166  66.709  1.00  0.00    -0.111 C  
HETATM   18  C   UNL     1      -8.591   7.671  66.865  1.00  0.00    -0.123 C  
BRANCH  16  19
HETATM   19  C   UNL     1      -8.761   5.567  69.125  1.00  0.00    -0.103 A  
HETATM   20  N   UNL     1      -7.851   4.713  69.619  1.00  0.00    -0.065 NA 
HETATM   21  O   UNL     1      -7.721   5.025  70.957  1.00  0.00    -0.082 OA 
HETATM   22  C   UNL     1      -8.535   6.072  71.261  1.00  0.00    -0.128 A  
HETATM   23  C   UNL     1      -9.166   6.509  70.117  1.00  0.00    -0.158 A  
HETATM   24  C   UNL     1     -10.026   7.619  70.206  1.00  0.00    -0.189 A  
HETATM   25  C   UNL     1     -10.246   8.187  71.471  1.00  0.00    -0.261 A  
HETATM   26  C   UNL     1      -9.610   7.674  72.600  1.00  0.00    -0.181 A  
HETATM   27  C   UNL     1      -8.712   6.614  72.529  1.00  0.00    -0.126 A  
HETATM   28  F   UNL     1      -9.879   8.217  73.795  1.00  0.00    -0.195 F  
ENDBRANCH  16  19
ENDBRANCH  12  13
ENDBRANCH  11  12
ENDBRANCH  10  11
ENDBRANCH   9  10
ENDBRANCH   4   9
BRANCH   6  29
HETATM   29  C   UNL     1      -8.903  17.663  66.310  1.00  0.00    -0.179 C  
HETATM   30  O   UNL     1      -9.761  18.477  66.646  1.00  0.00    -0.311 OA 
HETATM   31  C   UNL     1      -7.478  18.096  66.069  1.00  0.00    -0.264 C  
ENDBRANCH   6  29
ENDBRANCH   2   3
TORSDOF 8
ENDMDL
MODEL      296
REMARK 921   NORMALIZED FREE ENERGY PREDICTED BY IDOCK:   -3.36 KCAL/MOL
REMARK 922        TOTAL FREE ENERGY PREDICTED BY IDOCK:   -5.73 KCAL/MOL
REMARK 923 INTER-LIGAND FREE ENERGY PREDICTED BY IDOCK:   -6.39 KCAL/MOL
REMARK 924 INTRA-LIGAND FREE ENERGY PREDICTED BY IDOCK:    0.66 KCAL/MOL
REMARK 927      BINDING AFFINITY PREDICTED BY RF-SCORE:    0.00 PKD
ROOT
HETATM    1  C   UNL     1     -12.974  13.883  65.254  1.00  0.00    -0.297 C  
HETATM    2  O   UNL     1     -11.771  14.351  64.662  1.00  0.00    -0.393 OA 
ENDROOT
BRANCH   2   3
HETATM    3  C   UNL     1     -10.735  14.668  65.504  1.00  0.00    -0.349 A  
HETATM    4  C   UNL     1      -9.958  13.586  65.957  1.00  0.00    -0.299 A  
HETATM    5  C   UNL     1      -8.884  13.820  66.819  1.00  0.00    -0.156 A  
HETATM    6  C   UNL     1      -9.330  16.198  66.769  1.00  0.00    -0.255 A  
HETATM    7  C   UNL     1     -10.406  15.969  65.901  1.00  0.00    -0.386 A  
HETATM    8  C   UNL     1      -8.563  15.121  67.214  1.00  0.00    -0.218 A  
BRANCH   4   9
HETATM    9  O   UNL     1     -10.342  12.335  65.548  1.00  0.00    -0.254 OA 
BRANCH   9  10
HETATM   10  C   UNL     1      -9.878  11.215  66.301  1.00  0.00    -0.214 C  
BRANCH  10  11
HETATM   11  C   UNL     1      -9.100  10.215  65.438  1.00  0.00    -0.227 C  
BRANCH  11  12
HETATM   12  C   UNL     1      -7.790   9.708  66.070  1.00  0.00    -0.102 C  
BRANCH  12  13
HETATM   13  N   UNL     1      -7.837   8.270  66.354  1.00  0.00    -0.094 NA 
HETATM   14  C   UNL     1      -9.188   7.705  66.249  1.00  0.00    -0.154 C  
HETATM   15  C   UNL     1      -9.135   6.167  66.346  1.00  0.00    -0.158 C  
HETATM   16  C   UNL     1      -8.331   5.654  67.558  1.00  0.00    -0.100 C  
HETATM   17  C   UNL     1      -6.992   6.408  67.604  1.00  0.00    -0.078 C  
HETATM   18  C   UNL     1      -7.221   7.913  67.628  1.00  0.00    -0.088 C  
BRANCH  16  19
HETATM   19  C   UNL     1      -9.063   5.761  68.870  1.00  0.00    -0.115 A  
HETATM   20  N   UNL     1     -10.261   5.183  69.042  1.00  0.00    -0.195 NA 
HETATM   21  O   UNL     1     -10.725   5.619  70.266  1.00  0.00    -0.290 OA 
HETATM   22  C   UNL     1      -9.801   6.440  70.835  1.00  0.00    -0.184 A  
HETATM   23  C   UNL     1      -8.688   6.508  70.027  1.00  0.00    -0.140 A  
HETATM   24  C   UNL     1      -7.591   7.278  70.456  1.00  0.00    -0.088 A  
HETATM   25  C   UNL     1      -7.712   7.988  71.661  1.00  0.00    -0.100 A  
HETATM   26  C   UNL     1      -8.880   7.912  72.416  1.00  0.00    -0.154 A  
HETATM   27  C   UNL     1      -9.956   7.114  72.042  1.00  0.00    -0.178 A  
HETATM   28  F   UNL     1      -8.972   8.639  73.538  1.00  0.00    -0.255 F  
ENDBRANCH  16  19
ENDBRANCH  12  13
ENDBRANCH  11  12
ENDBRANCH  10  11
ENDBRANCH   9  10
ENDBRANCH   4   9
BRANCH   6  29
HETATM   29  C   UNL     1      -9.045  17.599  67.183  1.00  0.00    -0.244 C  
HETATM   30  O   UNL     1      -7.894  18.025  67.118  1.00  0.00    -0.210 OA 
HETATM   31  C   UNL     1     -10.179  18.496  67.615  1.00  0.00    -0.417 C  
ENDBRANCH   6  29
ENDBRANCH   2   3
TORSDOF 8
ENDMDL
MODEL      297
REMARK 921   NORMALIZED FREE ENERGY PREDICTED BY IDOCK:   -3.32 KCAL/MOL
REMARK 922        TOTAL FREE ENERGY PREDICTED BY IDOCK:   -5.67 KCAL/MOL
REMARK 923 INTER-LIGAND FREE ENERGY PREDICTED BY IDOCK:   -5.35 KCAL/MOL
REMARK 924 INTRA-LIGAND FREE ENERGY PREDICTED BY IDOCK:   -0.32 KCAL/MOL
REMARK 927      BINDING AFFINITY PREDICTED BY RF-SCORE:    0.00 PKD
ROOT
HETATM    1  C   UNL     1     -10.992   5.718  69.269  1.00  0.00    -0.260 C  
HETATM    2  O   UNL     1     -10.568   6.067  67.959  1.00  0.00    -0.211 OA 
ENDROOT
BRANCH   2   3
HETATM    3  C   UNL     1      -9.796   5.156  67.282  1.00  0.00    -0.168 A  
HETATM    4  C   UNL     1      -8.517   4.917  67.817  1.00  0.00    -0.104 A  
HETATM    5  C   UNL     1      -7.664   4.006  67.190  1.00  0.00    -0.084 A  
HETATM    6  C   UNL     1      -9.348   3.549  65.513  1.00  0.00    -0.158 A  
HETATM    7  C   UNL     1     -10.209   4.459  66.141  1.00  0.00    -0.232 A  
HETATM    8  C   UNL     1      -8.082   3.315  66.049  1.00  0.00    -0.093 A  
BRANCH   4   9
HETATM    9  O   UNL     1      -8.164   5.645  68.924  1.00  0.00    -0.099 OA 
BRANCH   9  10
HETATM   10  C   UNL     1      -7.081   6.567  68.800  1.00  0.00    -0.082 C  
BRANCH  10  11
HETATM   11  C   UNL     1      -7.476   7.829  68.024  1.00  0.00    -0.108 C  
BRANCH  11  12
HETATM   12  C   UNL     1      -6.300   8.555  67.344  1.00  0.00    -0.057 C  
BRANCH  12  13
HETATM   13  N   UNL     1      -6.190   9.951  67.780  1.00  0.00    -0.055 NA 
HETATM   14  C   UNL     1      -6.953  10.236  69.001  1.00  0.00    -0.064 C  
HETATM   15  C   UNL     1      -6.625  11.650  69.521  1.00  0.00    -0.111 C  
HETATM   16  C   UNL     1      -6.736  12.744  68.439  1.00  0.00    -0.087 C  
HETATM   17  C   UNL     1      -5.986  12.263  67.187  1.00  0.00    -0.117 C  
HETATM   18  C   UNL     1      -6.513  10.910  66.728  1.00  0.00    -0.115 C  
BRANCH  16  19
HETATM   19  C   UNL     1      -8.152  13.140  68.110  1.00  0.00    -0.155 A  
HETATM   20  N   UNL     1      -9.172  12.293  68.318  1.00  0.00    -0.199 NA 
HETATM   21  O   UNL     1     -10.282  12.886  67.751  1.00  0.00    -0.215 OA 
HETATM   22  C   UNL     1      -9.934  14.090  67.223  1.00  0.00    -0.242 A  
HETATM   23  C   UNL     1      -8.605  14.341  67.487  1.00  0.00    -0.203 A  
HETATM   24  C   UNL     1      -8.054  15.562  67.060  1.00  0.00    -0.272 A  
HETATM   25  C   UNL     1      -8.871  16.439  66.330  1.00  0.00    -0.367 A  
HETATM   26  C   UNL     1     -10.198  16.112  66.057  1.00  0.00    -0.356 A  
HETATM   27  C   UNL     1     -10.782  14.937  66.517  1.00  0.00    -0.309 A  
HETATM   28  F   UNL     1     -10.932  16.956  65.321  1.00  0.00    -0.348 F  
ENDBRANCH  16  19
ENDBRANCH  12  13
ENDBRANCH  11  12
ENDBRANCH  10  11
ENDBRANCH   9  10
ENDBRANCH   4   9
BRANCH   6  29
HETATM   29  C   UNL     1      -9.829   2.859  64.285  1.00  0.00    -0.131 C  
HETATM   30  O   UNL     1     -10.842   3.267  63.720  1.00  0.00    -0.255 OA 
HETATM   31  C   UNL     1      -9.034   1.711  63.713  1.00  0.00    -0.091 C  
ENDBRANCH   6  29
ENDBRANCH   2   3
TORSDOF 8
ENDMDL
MODEL      298
REMARK 921   NORMALIZED FREE ENERGY PREDICTED BY IDOCK:   -3.28 KCAL/MOL
REMARK 922        TOTAL FREE ENERGY PREDICTED BY IDOCK:   -5.60 KCAL/MOL
REMARK 923 INTER-LIGAND FREE ENERGY PREDICTED BY IDOCK:   -6.29 KCAL/MOL
REMARK 924 INTRA-LIGAND FREE ENERGY PREDICTED BY IDOCK:    0.69 KCAL/MOL
REMARK 927      BINDING AFFINITY PREDICTED BY RF-SCORE:    0.00 PKD
ROOT
HETATM    1  C   UNL     1     -13.418  11.696  71.705  1.00  0.00    -0.090 C  
HETATM    2  O   UNL     1     -12.183  12.267  71.301  1.00  0.00    -0.166 OA 
ENDROOT
BRANCH   2   3
HETATM    3  C   UNL     1     -11.846  12.170  69.975  1.00  0.00    -0.306 A  
HETATM    4  C   UNL     1     -12.154  13.289  69.179  1.00  0.00    -0.238 A  
HETATM    5  C   UNL     1     -11.847  13.273  67.816  1.00  0.00    -0.394 A  
HETATM    6  C   UNL     1     -10.909  11.053  68.028  1.00  0.00    -0.278 A  
HETATM    7  C   UNL     1     -11.212  11.065  69.396  1.00  0.00    -0.332 A  
HETATM    8  C   UNL     1     -11.216  12.165  67.245  1.00  0.00    -0.366 A  
BRANCH   4   9
HETATM    9  O   UNL     1     -12.792  14.331  69.799  1.00  0.00    -0.121 OA 
BRANCH   9  10
HETATM   10  C   UNL     1     -11.986  15.328  70.428  1.00  0.00    -0.335 C  
BRANCH  10  11
HETATM   11  C   UNL     1     -10.688  15.599  69.659  1.00  0.00    -0.278 C  
BRANCH  11  12
HETATM   12  C   UNL     1      -9.426  14.997  70.304  1.00  0.00     0.600 C  
BRANCH  12  13
HETATM   13  N   UNL     1      -8.285  14.994  69.382  1.00  0.00    -0.181 NA 
HETATM   14  C   UNL     1      -7.249  15.968  69.744  1.00  0.00     0.056 C  
HETATM   15  C   UNL     1      -5.994  15.766  68.870  1.00  0.00    -0.108 C  
HETATM   16  C   UNL     1      -6.301  15.705  67.359  1.00  0.00    -0.144 C  
HETATM   17  C   UNL     1      -7.473  14.733  67.142  1.00  0.00    -0.069 C  
HETATM   18  C   UNL     1      -8.675  15.143  67.983  1.00  0.00    -0.165 C  
BRANCH  16  19
HETATM   19  C   UNL     1      -6.581  17.047  66.734  1.00  0.00    -0.227 A  
HETATM   20  N   UNL     1      -5.580  17.863  66.374  1.00  0.00    -0.161 NA 
HETATM   21  O   UNL     1      -6.170  19.057  66.013  1.00  0.00    -0.175 OA 
HETATM   22  C   UNL     1      -7.521  18.951  66.138  1.00  0.00    -0.266 A  
HETATM   23  C   UNL     1      -7.848  17.669  66.521  1.00  0.00    -0.307 A  
HETATM   24  C   UNL     1      -9.207  17.336  66.667  1.00  0.00    -0.275 A  
HETATM   25  C   UNL     1     -10.160  18.347  66.474  1.00  0.00    -0.406 A  
HETATM   26  C   UNL     1      -9.767  19.638  66.128  1.00  0.00    -0.406 A  
HETATM   27  C   UNL     1      -8.434  19.978  65.922  1.00  0.00    -0.156 A  
HETATM   28  F   UNL     1     -10.705  20.585  65.994  1.00  0.00    -0.325 F  
ENDBRANCH  16  19
ENDBRANCH  12  13
ENDBRANCH  11  12
ENDBRANCH  10  11
ENDBRANCH   9  10
ENDBRANCH   4   9
BRANCH   6  29
HETATM   29  C   UNL     1     -10.262   9.838  67.461  1.00  0.00    -0.220 C  
HETATM   30  O   UNL     1     -10.514   8.737  67.948  1.00  0.00    -0.229 OA 
HETATM   31  C   UNL     1      -9.358   9.964  66.259  1.00  0.00    -0.224 C  
ENDBRANCH   6  29
ENDBRANCH   2   3
TORSDOF 8
ENDMDL
MODEL      299
REMARK 921   NORMALIZED FREE ENERGY PREDICTED BY IDOCK:   -3.26 KCAL/MOL
REMARK 922        TOTAL FREE ENERGY PREDICTED BY IDOCK:   -5.58 KCAL/MOL
REMARK 923 INTER-LIGAND FREE ENERGY PREDICTED BY IDOCK:   -5.38 KCAL/MOL
REMARK 924 INTRA-LIGAND FREE ENERGY PREDICTED BY IDOCK:   -0.20 KCAL/MOL
REMARK 927      BINDING AFFINITY PREDICTED BY RF-SCORE:    0.00 PKD
ROOT
HETATM    1  C   UNL     1      -8.613   8.820  70.685  1.00  0.00    -0.178 C  
HETATM    2  O   UNL     1      -9.011   9.402  69.452  1.00  0.00    -0.141 OA 
ENDROOT
BRANCH   2   3
HETATM    3  C   UNL     1     -10.055  10.292  69.482  1.00  0.00    -0.235 A  
HETATM    4  C   UNL     1     -10.152  11.164  68.381  1.00  0.00    -0.184 A  
HETATM    5  C   UNL     1     -11.185  12.103  68.332  1.00  0.00    -0.314 A  
HETATM    6  C   UNL     1     -12.043  11.306  70.449  1.00  0.00    -0.474 A  
HETATM    7  C   UNL     1     -11.011  10.360  70.502  1.00  0.00    -0.270 A  
HETATM    8  C   UNL     1     -12.134  12.166  69.355  1.00  0.00    -0.247 A  
BRANCH   4   9
HETATM    9  O   UNL     1      -9.175  11.061  67.425  1.00  0.00    -0.151 OA 
BRANCH   9  10
HETATM   10  C   UNL     1      -8.032  11.909  67.544  1.00  0.00    -0.155 C  
BRANCH  10  11
HETATM   11  C   UNL     1      -6.859  11.428  66.682  1.00  0.00    -0.108 C  
BRANCH  11  12
HETATM   12  C   UNL     1      -6.207  10.118  67.163  1.00  0.00    -0.062 C  
BRANCH  12  13
HETATM   13  N   UNL     1      -6.501   8.997  66.264  1.00  0.00    -0.065 NA 
HETATM   14  C   UNL     1      -7.895   8.544  66.343  1.00  0.00    -0.099 C  
HETATM   15  C   UNL     1      -8.189   7.517  65.231  1.00  0.00    -0.130 C  
HETATM   16  C   UNL     1      -7.158   6.372  65.162  1.00  0.00    -0.060 C  
HETATM   17  C   UNL     1      -5.749   6.987  65.196  1.00  0.00    -0.032 C  
HETATM   18  C   UNL     1      -5.579   7.876  66.421  1.00  0.00    -0.032 C  
BRANCH  16  19
HETATM   19  C   UNL     1      -7.325   5.330  66.236  1.00  0.00    -0.082 A  
HETATM   20  N   UNL     1      -6.686   4.153  66.161  1.00  0.00    -0.048 NA 
HETATM   21  O   UNL     1      -7.191   3.378  67.185  1.00  0.00    -0.058 OA 
HETATM   22  C   UNL     1      -8.115   4.093  67.883  1.00  0.00    -0.090 A  
HETATM   23  C   UNL     1      -8.189   5.370  67.371  1.00  0.00    -0.100 A  
HETATM   24  C   UNL     1      -9.061   6.289  67.982  1.00  0.00    -0.112 A  
HETATM   25  C   UNL     1      -9.859   5.840  69.045  1.00  0.00    -0.204 A  
HETATM   26  C   UNL     1      -9.770   4.523  69.492  1.00  0.00    -0.212 A  
HETATM   27  C   UNL     1      -8.875   3.611  68.943  1.00  0.00    -0.158 A  
HETATM   28  F   UNL     1     -10.580   4.121  70.482  1.00  0.00    -0.025 F  
ENDBRANCH  16  19
ENDBRANCH  12  13
ENDBRANCH  11  12
ENDBRANCH  10  11
ENDBRANCH   9  10
ENDBRANCH   4   9
BRANCH   6  29
HETATM   29  C   UNL     1     -13.013  11.353  71.578  1.00  0.00    -0.399 C  
HETATM   30  O   UNL     1     -13.348  10.307  72.130  1.00  0.00    -0.443 OA 
HETATM   31  C   UNL     1     -13.523  12.685  72.070  1.00  0.00    -0.516 C  
ENDBRANCH   6  29
ENDBRANCH   2   3
TORSDOF 8
ENDMDL
MODEL      300
REMARK 921   NORMALIZED FREE ENERGY PREDICTED BY IDOCK:   -3.25 KCAL/MOL
REMARK 922        TOTAL FREE ENERGY PREDICTED BY IDOCK:   -5.56 KCAL/MOL
REMARK 923 INTER-LIGAND FREE ENERGY PREDICTED BY IDOCK:   -5.61 KCAL/MOL
REMARK 924 INTRA-LIGAND FREE ENERGY PREDICTED BY IDOCK:    0.05 KCAL/MOL
REMARK 927      BINDING AFFINITY PREDICTED BY RF-SCORE:    0.00 PKD
ROOT
HETATM    1  C   UNL     1     -11.565  14.297  66.176  1.00  0.00    -0.369 C  
HETATM    2  O   UNL     1     -10.760  13.274  66.742  1.00  0.00    -0.273 OA 
ENDROOT
BRANCH   2   3
HETATM    3  C   UNL     1     -11.221  12.666  67.883  1.00  0.00    -0.266 A  
HETATM    4  C   UNL     1     -11.176  11.259  67.891  1.00  0.00    -0.290 A  
HETATM    5  C   UNL     1     -11.627  10.560  69.012  1.00  0.00    -0.278 A  
HETATM    6  C   UNL     1     -12.149  12.641  70.130  1.00  0.00    -0.368 A  
HETATM    7  C   UNL     1     -11.694  13.348  69.009  1.00  0.00    -0.368 A  
HETATM    8  C   UNL     1     -12.101  11.247  70.133  1.00  0.00    -0.448 A  
BRANCH   4   9
HETATM    9  O   UNL     1     -10.721  10.649  66.751  1.00  0.00    -0.250 OA 
BRANCH   9  10
HETATM   10  C   UNL     1      -9.315  10.431  66.626  1.00  0.00    -0.158 C  
BRANCH  10  11
HETATM   11  C   UNL     1      -8.897   9.036  67.103  1.00  0.00    -0.130 C  
BRANCH  11  12
HETATM   12  C   UNL     1      -7.407   8.906  67.471  1.00  0.00    -0.081 C  
BRANCH  12  13
HETATM   13  N   UNL     1      -6.987   9.929  68.435  1.00  0.00    -0.067 NA 
HETATM   14  C   UNL     1      -8.053  10.883  68.764  1.00  0.00    -0.145 C  
HETATM   15  C   UNL     1      -7.618  11.791  69.931  1.00  0.00     1.112 C  
HETATM   16  C   UNL     1      -6.234  12.440  69.723  1.00  0.00    -0.119 C  
HETATM   17  C   UNL     1      -5.249  11.347  69.277  1.00  0.00    -0.044 C  
HETATM   18  C   UNL     1      -5.767  10.626  68.040  1.00  0.00    -0.042 C  
BRANCH  16  19
HETATM   19  C   UNL     1      -6.238  13.598  68.758  1.00  0.00    -0.089 A  
HETATM   20  N   UNL     1      -5.144  13.907  68.047  1.00  0.00    -0.138 NA 
HETATM   21  O   UNL     1      -5.424  15.102  67.415  1.00  0.00    -0.341 OA 
HETATM   22  C   UNL     1      -6.686  15.498  67.731  1.00  0.00    -0.164 A  
HETATM   23  C   UNL     1      -7.283  14.541  68.524  1.00  0.00    -0.120 A  
HETATM   24  C   UNL     1      -8.615  14.739  68.930  1.00  0.00    -0.160 A  
HETATM   25  C   UNL     1      -9.250  15.934  68.557  1.00  0.00    -0.200 A  
HETATM   26  C   UNL     1      -8.581  16.884  67.788  1.00  0.00    -0.208 A  
HETATM   27  C   UNL     1      -7.284  16.686  67.326  1.00  0.00    -0.199 A  
HETATM   28  F   UNL     1      -9.208  18.030  67.489  1.00  0.00    -0.248 F  
ENDBRANCH  16  19
ENDBRANCH  12  13
ENDBRANCH  11  12
ENDBRANCH  10  11
ENDBRANCH   9  10
ENDBRANCH   4   9
BRANCH   6  29
HETATM   29  C   UNL     1     -12.671  13.418  71.288  1.00  0.00    -0.338 C  
HETATM   30  O   UNL     1     -13.598  12.961  71.953  1.00  0.00    -0.416 OA 
HETATM   31  C   UNL     1     -12.016  14.723  71.669  1.00  0.00    -0.411 C  
ENDBRANCH   6  29
ENDBRANCH   2   3
TORSDOF 8
ENDMDL
MODEL      301
REMARK 921   NORMALIZED FREE ENERGY PREDICTED BY IDOCK:   -3.24 KCAL/MOL
REMARK 922        TOTAL FREE ENERGY PREDICTED BY IDOCK:   -5.56 KCAL/MOL
REMARK 923 INTER-LIGAND FREE ENERGY PREDICTED BY IDOCK:   -5.63 KCAL/MOL
REMARK 924 INTRA-LIGAND FREE ENERGY PREDICTED BY IDOCK:    0.08 KCAL/MOL
REMARK 927      BINDING AFFINITY PREDICTED BY RF-SCORE:    0.00 PKD
ROOT
HETATM    1  C   UNL     1     -11.449  13.915  65.157  1.00  0.00    -0.321 C  
HETATM    2  O   UNL     1     -11.610  14.987  66.074  1.00  0.00    -0.286 OA 
ENDROOT
BRANCH   2   3
HETATM    3  C   UNL     1     -10.643  15.148  67.034  1.00  0.00    -0.300 A  
HETATM    4  C   UNL     1     -10.880  14.498  68.259  1.00  0.00    -0.241 A  
HETATM    5  C   UNL     1      -9.947  14.610  69.293  1.00  0.00    -0.100 A  
HETATM    6  C   UNL     1      -8.532  15.990  67.898  1.00  0.00    -0.165 A  
HETATM    7  C   UNL     1      -9.463  15.878  66.857  1.00  0.00    -0.242 A  
HETATM    8  C   UNL     1      -8.772  15.342  69.110  1.00  0.00    -0.242 A  
BRANCH   4   9
HETATM    9  O   UNL     1     -12.063  13.815  68.378  1.00  0.00    -0.368 OA 
BRANCH   9  10
HETATM   10  C   UNL     1     -12.023  12.390  68.291  1.00  0.00    -0.214 C  
BRANCH  10  11
HETATM   11  C   UNL     1     -10.621  11.866  67.960  1.00  0.00    -0.234 C  
BRANCH  11  12
HETATM   12  C   UNL     1     -10.471  11.297  66.536  1.00  0.00    -0.253 C  
BRANCH  12  13
HETATM   13  N   UNL     1      -9.308  10.411  66.418  1.00  0.00    -0.161 NA 
HETATM   14  C   UNL     1      -9.673   8.997  66.266  1.00  0.00    -0.275 C  
HETATM   15  C   UNL     1      -8.426   8.154  65.933  1.00  0.00    -0.153 C  
HETATM   16  C   UNL     1      -7.243   8.400  66.893  1.00  0.00    -0.079 C  
HETATM   17  C   UNL     1      -7.048   9.918  67.041  1.00  0.00    -0.089 C  
HETATM   18  C   UNL     1      -8.338  10.586  67.494  1.00  0.00    -0.118 C  
BRANCH  16  19
HETATM   19  C   UNL     1      -7.395   7.735  68.237  1.00  0.00    -0.102 A  
HETATM   20  N   UNL     1      -6.621   8.089  69.273  1.00  0.00    -0.036 NA 
HETATM   21  O   UNL     1      -6.887   7.180  70.277  1.00  0.00    -0.054 OA 
HETATM   22  C   UNL     1      -7.830   6.297  69.852  1.00  0.00    -0.110 A  
HETATM   23  C   UNL     1      -8.247   6.645  68.586  1.00  0.00    -0.119 A  
HETATM   24  C   UNL     1      -9.256   5.878  67.976  1.00  0.00    -0.112 A  
HETATM   25  C   UNL     1      -9.744   4.757  68.665  1.00  0.00    -0.223 A  
HETATM   26  C   UNL     1      -9.253   4.430  69.927  1.00  0.00    -0.133 A  
HETATM   27  C   UNL     1      -8.296   5.205  70.575  1.00  0.00    -0.110 A  
HETATM   28  F   UNL     1      -9.714   3.328  70.534  1.00  0.00    -0.232 F  
ENDBRANCH  16  19
ENDBRANCH  12  13
ENDBRANCH  11  12
ENDBRANCH  10  11
ENDBRANCH   9  10
ENDBRANCH   4   9
BRANCH   6  29
HETATM   29  C   UNL     1      -7.308  16.805  67.664  1.00  0.00    -0.146 C  
HETATM   30  O   UNL     1      -6.339  16.292  67.108  1.00  0.00    -0.173 OA 
HETATM   31  C   UNL     1      -7.295  18.263  68.052  1.00  0.00    -0.244 C  
ENDBRANCH   6  29
ENDBRANCH   2   3
TORSDOF 8
ENDMDL
MODEL      302
REMARK 921   NORMALIZED FREE ENERGY PREDICTED BY IDOCK:   -3.20 KCAL/MOL
REMARK 922        TOTAL FREE ENERGY PREDICTED BY IDOCK:   -5.49 KCAL/MOL
REMARK 923 INTER-LIGAND FREE ENERGY PREDICTED BY IDOCK:   -5.60 KCAL/MOL
REMARK 924 INTRA-LIGAND FREE ENERGY PREDICTED BY IDOCK:    0.11 KCAL/MOL
REMARK 927      BINDING AFFINITY PREDICTED BY RF-SCORE:    0.00 PKD
ROOT
HETATM    1  C   UNL     1      -6.039  14.896  66.958  1.00  0.00     0.963 C  
HETATM    2  O   UNL     1      -5.350  16.104  67.246  1.00  0.00    -0.261 OA 
ENDROOT
BRANCH   2   3
HETATM    3  C   UNL     1      -6.107  17.195  67.591  1.00  0.00    -0.137 A  
HETATM    4  C   UNL     1      -6.165  17.493  68.965  1.00  0.00    -0.212 A  
HETATM    5  C   UNL     1      -6.914  18.586  69.405  1.00  0.00    -0.132 A  
HETATM    6  C   UNL     1      -7.535  19.108  67.125  1.00  0.00    -0.236 A  
HETATM    7  C   UNL     1      -6.781  18.014  66.678  1.00  0.00    -0.236 A  
HETATM    8  C   UNL     1      -7.587  19.398  68.487  1.00  0.00    -0.369 A  
BRANCH   4   9
HETATM    9  O   UNL     1      -5.500  16.643  69.810  1.00  0.00    -0.151 OA 
BRANCH   9  10
HETATM   10  C   UNL     1      -6.269  15.678  70.529  1.00  0.00     0.139 C  
BRANCH  10  11
HETATM   11  C   UNL     1      -7.249  14.923  69.624  1.00  0.00    -0.166 C  
BRANCH  11  12
HETATM   12  C   UNL     1      -8.697  15.446  69.673  1.00  0.00    -0.134 C  
BRANCH  12  13
HETATM   13  N   UNL     1      -9.627  14.556  68.971  1.00  0.00    -0.154 NA 
HETATM   14  C   UNL     1     -10.977  14.559  69.549  1.00  0.00    -0.224 C  
HETATM   15  C   UNL     1     -11.950  13.777  68.644  1.00  0.00    -0.401 C  
HETATM   16  C   UNL     1     -11.435  12.376  68.253  1.00  0.00    -0.360 C  
HETATM   17  C   UNL     1      -9.982  12.512  67.771  1.00  0.00    -0.210 C  
HETATM   18  C   UNL     1      -9.124  13.193  68.829  1.00  0.00     0.160 C  
BRANCH  16  19
HETATM   19  C   UNL     1     -11.554  11.350  69.350  1.00  0.00    -0.323 A  
HETATM   20  N   UNL     1     -12.400  11.530  70.374  1.00  0.00    -0.322 NA 
HETATM   21  O   UNL     1     -12.133  10.517  71.273  1.00  0.00    -0.354 OA 
HETATM   22  C   UNL     1     -11.143   9.723  70.782  1.00  0.00    -0.345 A  
HETATM   23  C   UNL     1     -10.786  10.160  69.525  1.00  0.00    -0.289 A  
HETATM   24  C   UNL     1      -9.802   9.445  68.819  1.00  0.00    -0.172 A  
HETATM   25  C   UNL     1      -9.187   8.357  69.459  1.00  0.00    -0.154 A  
HETATM   26  C   UNL     1      -9.562   7.988  70.749  1.00  0.00    -0.162 A  
HETATM   27  C   UNL     1     -10.572   8.643  71.445  1.00  0.00    -0.334 A  
HETATM   28  F   UNL     1      -8.922   6.970  71.340  1.00  0.00    -0.137 F  
ENDBRANCH  16  19
ENDBRANCH  12  13
ENDBRANCH  11  12
ENDBRANCH  10  11
ENDBRANCH   9  10
ENDBRANCH   4   9
BRANCH   6  29
HETATM   29  C   UNL     1      -8.256  19.926  66.111  1.00  0.00    -0.322 C  
HETATM   30  O   UNL     1      -7.625  20.437  65.188  1.00  0.00    -0.048 OA 
HETATM   31  C   UNL     1      -9.756  20.064  66.192  1.00  0.00    -0.517 C  
ENDBRANCH   6  29
ENDBRANCH   2   3
TORSDOF 8
ENDMDL
MODEL      303
REMARK 921   NORMALIZED FREE ENERGY PREDICTED BY IDOCK:   -3.20 KCAL/MOL
REMARK 922        TOTAL FREE ENERGY PREDICTED BY IDOCK:   -5.49 KCAL/MOL
REMARK 923 INTER-LIGAND FREE ENERGY PREDICTED BY IDOCK:   -5.69 KCAL/MOL
REMARK 924 INTRA-LIGAND FREE ENERGY PREDICTED BY IDOCK:    0.20 KCAL/MOL
REMARK 927      BINDING AFFINITY PREDICTED BY RF-SCORE:    0.00 PKD
ROOT
HETATM    1  C   UNL     1     -11.706  12.109  67.715  1.00  0.00    -0.320 C  
HETATM    2  O   UNL     1     -10.846  12.455  66.638  1.00  0.00    -0.235 OA 
ENDROOT
BRANCH   2   3
HETATM    3  C   UNL     1      -9.515  12.624  66.923  1.00  0.00    -0.229 A  
HETATM    4  C   UNL     1      -8.708  11.479  66.790  1.00  0.00    -0.178 A  
HETATM    5  C   UNL     1      -7.340  11.562  67.062  1.00  0.00    -0.145 A  
HETATM    6  C   UNL     1      -7.561  13.915  67.577  1.00  0.00    -0.190 A  
HETATM    7  C   UNL     1      -8.933  13.839  67.302  1.00  0.00    -0.227 A  
HETATM    8  C   UNL     1      -6.766  12.778  67.442  1.00  0.00    -0.138 A  
BRANCH   4   9
HETATM    9  O   UNL     1      -9.340  10.315  66.434  1.00  0.00    -0.158 OA 
BRANCH   9  10
HETATM   10  C   UNL     1      -8.668   9.083  66.697  1.00  0.00    -0.128 C  
BRANCH  10  11
HETATM   11  C   UNL     1      -9.570   8.068  67.409  1.00  0.00    -0.196 C  
BRANCH  11  12
HETATM   12  C   UNL     1     -10.310   8.624  68.640  1.00  0.00    -0.193 C  
BRANCH  12  13
HETATM   13  N   UNL     1     -10.039   7.837  69.847  1.00  0.00    -0.199 NA 
HETATM   14  C   UNL     1      -8.744   7.148  69.808  1.00  0.00    -0.142 C  
HETATM   15  C   UNL     1      -8.428   6.520  71.180  1.00  0.00    -0.126 C  
HETATM   16  C   UNL     1      -9.580   5.663  71.744  1.00  0.00    -0.184 C  
HETATM   17  C   UNL     1     -10.885   6.466  71.621  1.00  0.00    -0.291 C  
HETATM   18  C   UNL     1     -11.113   6.907  70.182  1.00  0.00    -0.299 C  
BRANCH  16  19
HETATM   19  C   UNL     1      -9.710   4.308  71.099  1.00  0.00    -0.189 A  
HETATM   20  N   UNL     1      -9.885   3.204  71.840  1.00  0.00    -0.170 NA 
HETATM   21  O   UNL     1      -9.783   2.138  70.970  1.00  0.00    -0.142 OA 
HETATM   22  C   UNL     1      -9.566   2.601  69.709  1.00  0.00     0.004 A  
HETATM   23  C   UNL     1      -9.585   3.978  69.716  1.00  0.00    -0.280 A  
HETATM   24  C   UNL     1      -9.420   4.659  68.496  1.00  0.00    -0.206 A  
HETATM   25  C   UNL     1      -9.183   3.900  67.340  1.00  0.00    -0.199 A  
HETATM   26  C   UNL     1      -9.133   2.508  67.402  1.00  0.00    -0.169 A  
HETATM   27  C   UNL     1      -9.350   1.810  68.586  1.00  0.00    -0.233 A  
HETATM   28  F   UNL     1      -8.862   1.822  66.284  1.00  0.00    -0.106 F  
ENDBRANCH  16  19
ENDBRANCH  12  13
ENDBRANCH  11  12
ENDBRANCH  10  11
ENDBRANCH   9  10
ENDBRANCH   4   9
BRANCH   6  29
HETATM   29  C   UNL     1      -7.002  15.227  68.006  1.00  0.00    -0.133 C  
HETATM   30  O   UNL     1      -7.743  16.056  68.530  1.00  0.00    -0.144 OA 
HETATM   31  C   UNL     1      -5.525  15.496  67.852  1.00  0.00    -0.144 C  
ENDBRANCH   6  29
ENDBRANCH   2   3
TORSDOF 8
ENDMDL
MODEL      304
REMARK 921   NORMALIZED FREE ENERGY PREDICTED BY IDOCK:   -3.18 KCAL/MOL
REMARK 922        TOTAL FREE ENERGY PREDICTED BY IDOCK:   -5.46 KCAL/MOL
REMARK 923 INTER-LIGAND FREE ENERGY PREDICTED BY IDOCK:   -5.91 KCAL/MOL
REMARK 924 INTRA-LIGAND FREE ENERGY PREDICTED BY IDOCK:    0.44 KCAL/MOL
REMARK 927      BINDING AFFINITY PREDICTED BY RF-SCORE:    0.00 PKD
ROOT
HETATM    1  C   UNL     1      -7.938   4.612  69.402  1.00  0.00    -0.066 C  
HETATM    2  O   UNL     1      -7.287   5.721  68.799  1.00  0.00    -0.079 OA 
ENDROOT
BRANCH   2   3
HETATM    3  C   UNL     1      -7.363   6.927  69.449  1.00  0.00    -0.091 A  
HETATM    4  C   UNL     1      -8.256   6.985  70.535  1.00  0.00    -0.123 A  
HETATM    5  C   UNL     1      -8.396   8.175  71.252  1.00  0.00    -0.140 A  
HETATM    6  C   UNL     1      -6.753   9.248  69.837  1.00  0.00    -0.050 A  
HETATM    7  C   UNL     1      -6.606   8.056  69.117  1.00  0.00    -0.040 A  
HETATM    8  C   UNL     1      -7.639   9.300  70.913  1.00  0.00    -0.130 A  
BRANCH   4   9
HETATM    9  O   UNL     1      -8.983   5.852  70.798  1.00  0.00    -0.145 OA 
BRANCH   9  10
HETATM   10  C   UNL     1     -10.407   5.954  70.784  1.00  0.00    -0.232 C  
BRANCH  10  11
HETATM   11  C   UNL     1     -10.949   6.343  69.403  1.00  0.00    -0.421 C  
BRANCH  11  12
HETATM   12  C   UNL     1     -11.419   7.805  69.289  1.00  0.00     0.548 C  
BRANCH  12  13
HETATM   13  N   UNL     1     -10.425   8.651  68.621  1.00  0.00    -0.203 NA 
HETATM   14  C   UNL     1     -10.722  10.085  68.730  1.00  0.00    -0.223 C  
HETATM   15  C   UNL     1      -9.539  10.919  68.198  1.00  0.00    -0.169 C  
HETATM   16  C   UNL     1      -9.055  10.480  66.800  1.00  0.00    -0.167 C  
HETATM   17  C   UNL     1      -8.893   8.951  66.803  1.00  0.00    -0.142 C  
HETATM   18  C   UNL     1     -10.187   8.273  67.231  1.00  0.00    -0.274 C  
BRANCH  16  19
HETATM   19  C   UNL     1      -9.945  10.933  65.673  1.00  0.00    -0.251 A  
HETATM   20  N   UNL     1     -10.067  10.204  64.554  1.00  0.00    -0.231 NA 
HETATM   21  O   UNL     1     -10.795  10.977  63.671  1.00  0.00    -0.319 OA 
HETATM   22  C   UNL     1     -11.125  12.155  64.265  1.00  0.00    -0.346 A  
HETATM   23  C   UNL     1     -10.676  12.155  65.568  1.00  0.00    -0.321 A  
HETATM   24  C   UNL     1     -10.953  13.273  66.375  1.00  0.00    -0.301 A  
HETATM   25  C   UNL     1     -11.621  14.361  65.793  1.00  0.00    -0.353 A  
HETATM   26  C   UNL     1     -12.015  14.320  64.457  1.00  0.00    -0.462 A  
HETATM   27  C   UNL     1     -11.803  13.204  63.654  1.00  0.00    -0.549 A  
HETATM   28  F   UNL     1     -12.613  15.396  63.927  1.00  0.00    -0.407 F  
ENDBRANCH  16  19
ENDBRANCH  12  13
ENDBRANCH  11  12
ENDBRANCH  10  11
ENDBRANCH   9  10
ENDBRANCH   4   9
BRANCH   6  29
HETATM   29  C   UNL     1      -5.944  10.427  69.420  1.00  0.00    -0.038 C  
HETATM   30  O   UNL     1      -5.182  10.326  68.461  1.00  0.00    -0.036 OA 
HETATM   31  C   UNL     1      -6.117  11.744  70.136  1.00  0.00    -0.147 C  
ENDBRANCH   6  29
ENDBRANCH   2   3
TORSDOF 8
ENDMDL
MODEL      305
REMARK 921   NORMALIZED FREE ENERGY PREDICTED BY IDOCK:   -3.02 KCAL/MOL
REMARK 922        TOTAL FREE ENERGY PREDICTED BY IDOCK:   -5.23 KCAL/MOL
REMARK 923 INTER-LIGAND FREE ENERGY PREDICTED BY IDOCK:   -5.16 KCAL/MOL
REMARK 924 INTRA-LIGAND FREE ENERGY PREDICTED BY IDOCK:   -0.08 KCAL/MOL
REMARK 927      BINDING AFFINITY PREDICTED BY RF-SCORE:    0.00 PKD
ROOT
HETATM    1  C   UNL     1     -11.884  11.987  67.239  1.00  0.00    -0.187 C  
HETATM    2  O   UNL     1     -10.608  12.193  67.827  1.00  0.00    -0.197 OA 
ENDROOT
BRANCH   2   3
HETATM    3  C   UNL     1      -9.654  11.228  67.620  1.00  0.00    -0.171 A  
HETATM    4  C   UNL     1      -9.829  10.028  68.334  1.00  0.00    -0.154 A  
HETATM    5  C   UNL     1      -8.904   8.993  68.184  1.00  0.00    -0.133 A  
HETATM    6  C   UNL     1      -7.640  10.321  66.605  1.00  0.00    -0.110 A  
HETATM    7  C   UNL     1      -8.567  11.361  66.749  1.00  0.00    -0.166 A  
HETATM    8  C   UNL     1      -7.819   9.134  67.313  1.00  0.00    -0.099 A  
BRANCH   4   9
HETATM    9  O   UNL     1     -10.902   9.967  69.186  1.00  0.00    -0.218 OA 
BRANCH   9  10
HETATM   10  C   UNL     1     -10.694  10.338  70.549  1.00  0.00    -0.144 C  
BRANCH  10  11
HETATM   11  C   UNL     1     -11.714   9.688  71.491  1.00  0.00    -0.472 C  
BRANCH  11  12
HETATM   12  C   UNL     1     -12.518   8.533  70.865  1.00  0.00     0.008 C  
BRANCH  12  13
HETATM   13  N   UNL     1     -11.913   7.227  71.145  1.00  0.00    -0.314 NA 
HETATM   14  C   UNL     1     -11.344   7.132  72.495  1.00  0.00    -0.279 C  
HETATM   15  C   UNL     1     -10.921   5.680  72.797  1.00  0.00    -0.320 C  
HETATM   16  C   UNL     1     -10.040   5.054  71.697  1.00  0.00    -0.260 C  
HETATM   17  C   UNL     1     -10.701   5.325  70.335  1.00  0.00    -0.216 C  
HETATM   18  C   UNL     1     -10.938   6.816  70.139  1.00  0.00    -0.292 C  
BRANCH  16  19
HETATM   19  C   UNL     1      -8.609   5.526  71.713  1.00  0.00    -0.135 A  
HETATM   20  N   UNL     1      -7.653   4.855  71.054  1.00  0.00    -0.075 NA 
HETATM   21  O   UNL     1      -6.456   5.438  71.419  1.00  0.00    -0.033 OA 
HETATM   22  C   UNL     1      -6.695   6.465  72.278  1.00  0.00    -0.068 A  
HETATM   23  C   UNL     1      -8.054   6.619  72.445  1.00  0.00    -0.100 A  
HETATM   24  C   UNL     1      -8.517   7.661  73.268  1.00  0.00    -0.208 A  
HETATM   25  C   UNL     1      -7.567   8.455  73.929  1.00  0.00    -0.178 A  
HETATM   26  C   UNL     1      -6.204   8.225  73.754  1.00  0.00    -0.113 A  
HETATM   27  C   UNL     1      -5.721   7.238  72.901  1.00  0.00    -0.041 A  
HETATM   28  F   UNL     1      -5.330   8.978  74.435  1.00  0.00    -0.091 F  
ENDBRANCH  16  19
ENDBRANCH  12  13
ENDBRANCH  11  12
ENDBRANCH  10  11
ENDBRANCH   9  10
ENDBRANCH   4   9
BRANCH   6  29
HETATM   29  C   UNL     1      -6.486  10.529  65.687  1.00  0.00    -0.119 C  
HETATM   30  O   UNL     1      -5.672  11.418  65.933  1.00  0.00    -0.173 OA 
HETATM   31  C   UNL     1      -6.294   9.610  64.506  1.00  0.00    -0.099 C  
ENDBRANCH   6  29
ENDBRANCH   2   3
TORSDOF 8
ENDMDL
MODEL      306
REMARK 921   NORMALIZED FREE ENERGY PREDICTED BY IDOCK:   -3.02 KCAL/MOL
REMARK 922        TOTAL FREE ENERGY PREDICTED BY IDOCK:   -5.22 KCAL/MOL
REMARK 923 INTER-LIGAND FREE ENERGY PREDICTED BY IDOCK:   -6.25 KCAL/MOL
REMARK 924 INTRA-LIGAND FREE ENERGY PREDICTED BY IDOCK:    1.03 KCAL/MOL
REMARK 927      BINDING AFFINITY PREDICTED BY RF-SCORE:    0.00 PKD
ROOT
HETATM    1  C   UNL     1      -5.126  16.002  66.884  1.00  0.00     0.448 C  
HETATM    2  O   UNL     1      -5.810  17.237  66.723  1.00  0.00    -0.158 OA 
ENDROOT
BRANCH   2   3
HETATM    3  C   UNL     1      -7.140  17.270  67.056  1.00  0.00    -0.186 A  
HETATM    4  C   UNL     1      -7.511  16.511  68.181  1.00  0.00    -0.159 A  
HETATM    5  C   UNL     1      -8.847  16.486  68.590  1.00  0.00    -0.237 A  
HETATM    6  C   UNL     1      -9.450  17.983  66.786  1.00  0.00    -0.293 A  
HETATM    7  C   UNL     1      -8.111  18.013  66.375  1.00  0.00    -0.292 A  
HETATM    8  C   UNL     1      -9.811  17.229  67.903  1.00  0.00    -0.283 A  
BRANCH   4   9
HETATM    9  O   UNL     1      -6.519  15.789  68.794  1.00  0.00    -0.106 OA 
BRANCH   9  10
HETATM   10  C   UNL     1      -6.902  14.655  69.573  1.00  0.00    -0.165 C  
BRANCH  10  11
HETATM   11  C   UNL     1      -7.704  13.634  68.758  1.00  0.00    -0.064 C  
BRANCH  11  12
HETATM   12  C   UNL     1      -7.009  13.155  67.470  1.00  0.00    -0.149 C  
BRANCH  12  13
HETATM   13  N   UNL     1      -7.768  12.095  66.797  1.00  0.00    -0.040 NA 
HETATM   14  C   UNL     1      -9.219  12.314  66.829  1.00  0.00    -0.210 C  
HETATM   15  C   UNL     1      -9.936  11.288  65.929  1.00  0.00    -0.277 C  
HETATM   16  C   UNL     1      -9.513   9.830  66.200  1.00  0.00    -0.261 C  
HETATM   17  C   UNL     1      -7.977   9.772  66.247  1.00  0.00    -0.109 C  
HETATM   18  C   UNL     1      -7.432  10.756  67.274  1.00  0.00    -0.101 C  
BRANCH  16  19
HETATM   19  C   UNL     1     -10.121   9.237  67.445  1.00  0.00    -0.223 A  
HETATM   20  N   UNL     1     -10.550  10.021  68.445  1.00  0.00    -0.208 NA 
HETATM   21  O   UNL     1     -10.873   9.172  69.484  1.00  0.00    -0.231 OA 
HETATM   22  C   UNL     1     -10.656   7.884  69.103  1.00  0.00    -0.173 A  
HETATM   23  C   UNL     1     -10.248   7.857  67.788  1.00  0.00    -0.276 A  
HETATM   24  C   UNL     1     -10.009   6.610  67.183  1.00  0.00    -0.209 A  
HETATM   25  C   UNL     1     -10.139   5.456  67.972  1.00  0.00    -0.224 A  
HETATM   26  C   UNL     1     -10.515   5.549  69.310  1.00  0.00    -0.266 A  
HETATM   27  C   UNL     1     -10.812   6.766  69.915  1.00  0.00    -0.310 A  
HETATM   28  F   UNL     1     -10.587   4.428  70.040  1.00  0.00    -0.138 F  
ENDBRANCH  16  19
ENDBRANCH  12  13
ENDBRANCH  11  12
ENDBRANCH  10  11
ENDBRANCH   9  10
ENDBRANCH   4   9
BRANCH   6  29
HETATM   29  C   UNL     1     -10.444  18.768  66.005  1.00  0.00    -0.432 C  
HETATM   30  O   UNL     1     -11.036  18.233  65.069  1.00  0.00    -0.684 OA 
HETATM   31  C   UNL     1     -10.760  20.187  66.409  1.00  0.00    -0.234 C  
ENDBRANCH   6  29
ENDBRANCH   2   3
TORSDOF 8
ENDMDL
MODEL      307
REMARK 921   NORMALIZED FREE ENERGY PREDICTED BY IDOCK:   -3.00 KCAL/MOL
REMARK 922        TOTAL FREE ENERGY PREDICTED BY IDOCK:   -5.20 KCAL/MOL
REMARK 923 INTER-LIGAND FREE ENERGY PREDICTED BY IDOCK:   -5.11 KCAL/MOL
REMARK 924 INTRA-LIGAND FREE ENERGY PREDICTED BY IDOCK:   -0.09 KCAL/MOL
REMARK 927      BINDING AFFINITY PREDICTED BY RF-SCORE:    0.00 PKD
ROOT
HETATM    1  C   UNL     1      -9.345  10.583  66.635  1.00  0.00    -0.161 C  
HETATM    2  O   UNL     1      -8.851  11.754  67.269  1.00  0.00    -0.157 OA 
ENDROOT
BRANCH   2   3
HETATM    3  C   UNL     1      -9.770  12.690  67.671  1.00  0.00    -0.197 A  
HETATM    4  C   UNL     1     -10.719  12.254  68.615  1.00  0.00    -0.233 A  
HETATM    5  C   UNL     1     -11.692  13.142  69.077  1.00  0.00    -0.367 A  
HETATM    6  C   UNL     1     -10.779  14.902  67.692  1.00  0.00    -0.270 A  
HETATM    7  C   UNL     1      -9.798  14.017  67.227  1.00  0.00    -0.242 A  
HETATM    8  C   UNL     1     -11.716  14.465  68.627  1.00  0.00    -0.367 A  
BRANCH   4   9
HETATM    9  O   UNL     1     -10.651  10.939  68.996  1.00  0.00    -0.195 OA 
BRANCH   9  10
HETATM   10  C   UNL     1     -10.877  10.630  70.372  1.00  0.00     0.012 C  
BRANCH  10  11
HETATM   11  C   UNL     1     -12.071   9.689  70.570  1.00  0.00    -0.198 C  
BRANCH  11  12
HETATM   12  C   UNL     1     -11.697   8.202  70.713  1.00  0.00    -0.201 C  
BRANCH  12  13
HETATM   13  N   UNL     1     -10.268   7.970  70.480  1.00  0.00    -0.197 NA 
HETATM   14  C   UNL     1      -9.965   7.579  69.098  1.00  0.00    -0.179 C  
HETATM   15  C   UNL     1      -8.440   7.560  68.867  1.00  0.00    -0.129 C  
HETATM   16  C   UNL     1      -7.667   6.757  69.933  1.00  0.00    -0.109 C  
HETATM   17  C   UNL     1      -8.163   7.192  71.322  1.00  0.00    -0.108 C  
HETATM   18  C   UNL     1      -9.674   7.033  71.429  1.00  0.00    -0.169 C  
BRANCH  16  19
HETATM   19  C   UNL     1      -7.761   5.263  69.763  1.00  0.00    -0.073 A  
HETATM   20  N   UNL     1      -7.509   4.434  70.788  1.00  0.00    -0.051 NA 
HETATM   21  O   UNL     1      -7.504   3.160  70.258  1.00  0.00    -0.040 OA 
HETATM   22  C   UNL     1      -7.770   3.223  68.925  1.00  0.00    -0.051 A  
HETATM   23  C   UNL     1      -8.018   4.530  68.566  1.00  0.00    -0.079 A  
HETATM   24  C   UNL     1      -8.357   4.808  67.230  1.00  0.00    -0.105 A  
HETATM   25  C   UNL     1      -8.366   3.745  66.314  1.00  0.00    -0.105 A  
HETATM   26  C   UNL     1      -8.066   2.448  66.727  1.00  0.00    -0.082 A  
HETATM   27  C   UNL     1      -7.783   2.139  68.054  1.00  0.00    -0.055 A  
HETATM   28  F   UNL     1      -8.044   1.468  65.814  1.00  0.00    -0.068 F  
ENDBRANCH  16  19
ENDBRANCH  12  13
ENDBRANCH  11  12
ENDBRANCH  10  11
ENDBRANCH   9  10
ENDBRANCH   4   9
BRANCH   6  29
HETATM   29  C   UNL     1     -10.779  16.293  67.161  1.00  0.00    -0.247 C  
HETATM   30  O   UNL     1     -10.833  17.239  67.946  1.00  0.00    -0.369 OA 
HETATM   31  C   UNL     1     -10.649  16.528  65.676  1.00  0.00    -0.317 C  
ENDBRANCH   6  29
ENDBRANCH   2   3
TORSDOF 8
ENDMDL
MODEL      308
REMARK 921   NORMALIZED FREE ENERGY PREDICTED BY IDOCK:   -2.99 KCAL/MOL
REMARK 922        TOTAL FREE ENERGY PREDICTED BY IDOCK:   -5.19 KCAL/MOL
REMARK 923 INTER-LIGAND FREE ENERGY PREDICTED BY IDOCK:   -4.53 KCAL/MOL
REMARK 924 INTRA-LIGAND FREE ENERGY PREDICTED BY IDOCK:   -0.66 KCAL/MOL
REMARK 927      BINDING AFFINITY PREDICTED BY RF-SCORE:    0.00 PKD
ROOT
HETATM    1  C   UNL     1     -10.160   5.105  69.586  1.00  0.00    -0.261 C  
HETATM    2  O   UNL     1      -9.497   5.622  68.441  1.00  0.00    -0.116 OA 
ENDROOT
BRANCH   2   3
HETATM    3  C   UNL     1      -8.238   5.147  68.172  1.00  0.00    -0.097 A  
HETATM    4  C   UNL     1      -7.188   5.745  68.894  1.00  0.00    -0.082 A  
HETATM    5  C   UNL     1      -5.874   5.323  68.681  1.00  0.00    -0.016 A  
HETATM    6  C   UNL     1      -6.635   3.700  67.054  1.00  0.00    -0.045 A  
HETATM    7  C   UNL     1      -7.955   4.118  67.267  1.00  0.00    -0.096 A  
HETATM    8  C   UNL     1      -5.599   4.296  67.774  1.00  0.00    -0.021 A  
BRANCH   4   9
HETATM    9  O   UNL     1      -7.527   6.760  69.751  1.00  0.00    -0.087 OA 
BRANCH   9  10
HETATM   10  C   UNL     1      -7.013   8.064  69.478  1.00  0.00    -0.050 C  
BRANCH  10  11
HETATM   11  C   UNL     1      -8.048   8.969  68.799  1.00  0.00    -0.105 C  
BRANCH  11  12
HETATM   12  C   UNL     1      -7.925   9.043  67.266  1.00  0.00    -0.099 C  
BRANCH  12  13
HETATM   13  N   UNL     1      -8.223  10.385  66.755  1.00  0.00    -0.124 NA 
HETATM   14  C   UNL     1      -7.814  11.456  67.672  1.00  0.00    -0.122 C  
HETATM   15  C   UNL     1      -7.956  12.831  66.989  1.00  0.00    -0.045 C  
HETATM   16  C   UNL     1      -9.336  13.054  66.336  1.00  0.00    -0.189 C  
HETATM   17  C   UNL     1      -9.680  11.812  65.497  1.00  0.00    -0.248 C  
HETATM   18  C   UNL     1      -9.615  10.551  66.348  1.00  0.00    -0.177 C  
BRANCH  16  19
HETATM   19  C   UNL     1     -10.435  13.372  67.317  1.00  0.00    -0.248 A  
HETATM   20  N   UNL     1     -11.664  12.856  67.168  1.00  0.00    -0.365 NA 
HETATM   21  O   UNL     1     -12.457  13.480  68.109  1.00  0.00    -0.062 OA 
HETATM   22  C   UNL     1     -11.704  14.352  68.831  1.00  0.00    -0.322 A  
HETATM   23  C   UNL     1     -10.390  14.272  68.423  1.00  0.00    -0.247 A  
HETATM   24  C   UNL     1      -9.433  15.068  69.077  1.00  0.00    -0.210 A  
HETATM   25  C   UNL     1      -9.875  15.952  70.074  1.00  0.00     0.039 A  
HETATM   26  C   UNL     1     -11.225  16.018  70.416  1.00  0.00    -0.387 A  
HETATM   27  C   UNL     1     -12.182  15.201  69.824  1.00  0.00    -0.325 A  
HETATM   28  F   UNL     1     -11.613  16.905  71.343  1.00  0.00    -0.331 F  
ENDBRANCH  16  19
ENDBRANCH  12  13
ENDBRANCH  11  12
ENDBRANCH  10  11
ENDBRANCH   9  10
ENDBRANCH   4   9
BRANCH   6  29
HETATM   29  C   UNL     1      -6.390   2.623  66.057  1.00  0.00    -0.024 C  
HETATM   30  O   UNL     1      -5.778   1.612  66.399  1.00  0.00    -0.016 OA 
HETATM   31  C   UNL     1      -6.948   2.754  64.662  1.00  0.00    -0.049 C  
ENDBRANCH   6  29
ENDBRANCH   2   3
TORSDOF 8
ENDMDL
MODEL      309
REMARK 921   NORMALIZED FREE ENERGY PREDICTED BY IDOCK:   -2.96 KCAL/MOL
REMARK 922        TOTAL FREE ENERGY PREDICTED BY IDOCK:   -5.14 KCAL/MOL
REMARK 923 INTER-LIGAND FREE ENERGY PREDICTED BY IDOCK:   -5.99 KCAL/MOL
REMARK 924 INTRA-LIGAND FREE ENERGY PREDICTED BY IDOCK:    0.85 KCAL/MOL
REMARK 927      BINDING AFFINITY PREDICTED BY RF-SCORE:    0.00 PKD
ROOT
HETATM    1  C   UNL     1     -10.892   6.787  67.152  1.00  0.00    -0.392 C  
HETATM    2  O   UNL     1      -9.575   6.825  67.682  1.00  0.00    -0.125 OA 
ENDROOT
BRANCH   2   3
HETATM    3  C   UNL     1      -8.539   6.950  66.791  1.00  0.00    -0.120 A  
HETATM    4  C   UNL     1      -8.242   8.260  66.373  1.00  0.00    -0.107 A  
HETATM    5  C   UNL     1      -7.203   8.477  65.466  1.00  0.00    -0.083 A  
HETATM    6  C   UNL     1      -6.734   6.104  65.398  1.00  0.00    -0.047 A  
HETATM    7  C   UNL     1      -7.773   5.881  66.311  1.00  0.00    -0.102 A  
HETATM    8  C   UNL     1      -6.443   7.405  64.989  1.00  0.00    -0.037 A  
BRANCH   4   9
HETATM    9  O   UNL     1      -9.040   9.261  66.863  1.00  0.00    -0.128 OA 
BRANCH   9  10
HETATM   10  C   UNL     1      -8.403  10.408  67.426  1.00  0.00    -0.121 C  
BRANCH  10  11
HETATM   11  C   UNL     1      -8.732  11.693  66.657  1.00  0.00    -0.187 C  
BRANCH  11  12
HETATM   12  C   UNL     1      -8.235  12.986  67.329  1.00  0.00    -0.172 C  
BRANCH  12  13
HETATM   13  N   UNL     1      -9.337  13.899  67.649  1.00  0.00    -0.198 NA 
HETATM   14  C   UNL     1      -9.903  14.556  66.465  1.00  0.00    -0.285 C  
HETATM   15  C   UNL     1     -11.184  15.329  66.841  1.00  0.00    -0.256 C  
HETATM   16  C   UNL     1     -11.004  16.264  68.054  1.00  0.00    -0.328 C  
HETATM   17  C   UNL     1     -10.305  15.475  69.173  1.00  0.00    -0.237 C  
HETATM   18  C   UNL     1      -8.995  14.879  68.675  1.00  0.00    -0.184 C  
BRANCH  16  19
HETATM   19  C   UNL     1     -10.267  17.540  67.742  1.00  0.00    -0.349 A  
HETATM   20  N   UNL     1     -10.840  18.736  67.945  1.00  0.00    -0.291 NA 
HETATM   21  O   UNL     1      -9.984  19.668  67.397  1.00  0.00    -0.341 OA 
HETATM   22  C   UNL     1      -8.893  19.037  66.884  1.00  0.00    -0.301 A  
HETATM   23  C   UNL     1      -8.981  17.686  67.142  1.00  0.00    -0.249 A  
HETATM   24  C   UNL     1      -7.926  16.853  66.729  1.00  0.00    -0.271 A  
HETATM   25  C   UNL     1      -6.863  17.433  66.019  1.00  0.00    -0.220 A  
HETATM   26  C   UNL     1      -6.849  18.800  65.751  1.00  0.00    -0.270 A  
HETATM   27  C   UNL     1      -7.852  19.654  66.199  1.00  0.00    -0.340 A  
HETATM   28  F   UNL     1      -5.838  19.308  65.034  1.00  0.00    -0.197 F  
ENDBRANCH  16  19
ENDBRANCH  12  13
ENDBRANCH  11  12
ENDBRANCH  10  11
ENDBRANCH   9  10
ENDBRANCH   4   9
BRANCH   6  29
HETATM   29  C   UNL     1      -5.972   4.927  64.898  1.00  0.00    -0.021 C  
HETATM   30  O   UNL     1      -5.686   4.857  63.704  1.00  0.00    -0.016 OA 
HETATM   31  C   UNL     1      -5.507   3.870  65.868  1.00  0.00    -0.013 C  
ENDBRANCH   6  29
ENDBRANCH   2   3
TORSDOF 8
ENDMDL
MODEL      310
REMARK 921   NORMALIZED FREE ENERGY PREDICTED BY IDOCK:   -2.94 KCAL/MOL
REMARK 922        TOTAL FREE ENERGY PREDICTED BY IDOCK:   -5.12 KCAL/MOL
REMARK 923 INTER-LIGAND FREE ENERGY PREDICTED BY IDOCK:   -4.76 KCAL/MOL
REMARK 924 INTRA-LIGAND FREE ENERGY PREDICTED BY IDOCK:   -0.35 KCAL/MOL
REMARK 927      BINDING AFFINITY PREDICTED BY RF-SCORE:    0.00 PKD
ROOT
HETATM    1  C   UNL     1     -10.742   5.451  69.240  1.00  0.00    -0.128 C  
HETATM    2  O   UNL     1     -10.258   6.072  68.058  1.00  0.00    -0.149 OA 
ENDROOT
BRANCH   2   3
HETATM    3  C   UNL     1      -9.099   5.579  67.515  1.00  0.00    -0.107 A  
HETATM    4  C   UNL     1      -7.903   6.100  68.042  1.00  0.00    -0.106 A  
HETATM    5  C   UNL     1      -6.676   5.654  67.544  1.00  0.00    -0.059 A  
HETATM    6  C   UNL     1      -7.811   4.159  66.018  1.00  0.00    -0.094 A  
HETATM    7  C   UNL     1      -9.044   4.601  66.516  1.00  0.00    -0.123 A  
HETATM    8  C   UNL     1      -6.629   4.678  66.545  1.00  0.00    -0.046 A  
BRANCH   4   9
HETATM    9  O   UNL     1      -8.022   7.069  69.004  1.00  0.00    -0.113 OA 
BRANCH   9  10
HETATM   10  C   UNL     1      -7.800   8.426  68.617  1.00  0.00    -0.116 C  
BRANCH  10  11
HETATM   11  C   UNL     1      -9.046   9.298  68.813  1.00  0.00    -0.136 C  
BRANCH  11  12
HETATM   12  C   UNL     1     -10.164   9.057  67.781  1.00  0.00    -0.230 C  
BRANCH  12  13
HETATM   13  N   UNL     1     -10.642  10.309  67.186  1.00  0.00    -0.261 NA 
HETATM   14  C   UNL     1      -9.555  11.179  66.720  1.00  0.00    -0.191 C  
HETATM   15  C   UNL     1     -10.124  12.367  65.919  1.00  0.00    -0.272 C  
HETATM   16  C   UNL     1     -11.259  13.114  66.649  1.00  0.00    -0.335 C  
HETATM   17  C   UNL     1     -12.263  12.074  67.174  1.00  0.00     0.426 C  
HETATM   18  C   UNL     1     -11.563  11.043  68.048  1.00  0.00    -0.249 C  
BRANCH  16  19
HETATM   19  C   UNL     1     -10.786  14.022  67.754  1.00  0.00    -0.243 A  
HETATM   20  N   UNL     1     -11.401  14.038  68.946  1.00  0.00    -0.262 NA 
HETATM   21  O   UNL     1     -10.845  15.088  69.649  1.00  0.00    -0.255 OA 
HETATM   22  C   UNL     1      -9.889  15.687  68.889  1.00  0.00    -0.219 A  
HETATM   23  C   UNL     1      -9.753  15.005  67.700  1.00  0.00    -0.215 A  
HETATM   24  C   UNL     1      -8.779  15.441  66.782  1.00  0.00    -0.304 A  
HETATM   25  C   UNL     1      -8.037  16.588  67.100  1.00  0.00    -0.213 A  
HETATM   26  C   UNL     1      -8.248  17.261  68.301  1.00  0.00    -0.237 A  
HETATM   27  C   UNL     1      -9.164  16.818  69.250  1.00  0.00    -0.047 A  
HETATM   28  F   UNL     1      -7.549  18.377  68.548  1.00  0.00    -0.265 F  
ENDBRANCH  16  19
ENDBRANCH  12  13
ENDBRANCH  11  12
ENDBRANCH  10  11
ENDBRANCH   9  10
ENDBRANCH   4   9
BRANCH   6  29
HETATM   29  C   UNL     1      -7.814   3.139  64.934  1.00  0.00    -0.082 C  
HETATM   30  O   UNL     1      -8.596   2.192  64.998  1.00  0.00    -0.098 OA 
HETATM   31  C   UNL     1      -6.907   3.313  63.741  1.00  0.00    -0.040 C  
ENDBRANCH   6  29
ENDBRANCH   2   3
TORSDOF 8
ENDMDL
MODEL      311
REMARK 921   NORMALIZED FREE ENERGY PREDICTED BY IDOCK:   -2.90 KCAL/MOL
REMARK 922        TOTAL FREE ENERGY PREDICTED BY IDOCK:   -5.06 KCAL/MOL
REMARK 923 INTER-LIGAND FREE ENERGY PREDICTED BY IDOCK:   -4.24 KCAL/MOL
REMARK 924 INTRA-LIGAND FREE ENERGY PREDICTED BY IDOCK:   -0.82 KCAL/MOL
REMARK 927      BINDING AFFINITY PREDICTED BY RF-SCORE:    0.00 PKD
ROOT
HETATM    1  C   UNL     1      -9.056   5.983  67.776  1.00  0.00    -0.109 C  
HETATM    2  O   UNL     1      -9.651   7.273  67.800  1.00  0.00    -0.136 OA 
ENDROOT
BRANCH   2   3
HETATM    3  C   UNL     1      -9.893   7.834  69.029  1.00  0.00    -0.169 A  
HETATM    4  C   UNL     1      -8.904   8.712  69.509  1.00  0.00    -0.144 A  
HETATM    5  C   UNL     1      -9.070   9.325  70.753  1.00  0.00    -0.306 A  
HETATM    6  C   UNL     1     -11.203   8.221  71.040  1.00  0.00    -0.291 A  
HETATM    7  C   UNL     1     -11.043   7.606  69.792  1.00  0.00    -0.115 A  
HETATM    8  C   UNL     1     -10.220   9.091  71.511  1.00  0.00    -0.414 A  
BRANCH   4   9
HETATM    9  O   UNL     1      -7.792   8.879  68.725  1.00  0.00    -0.097 OA 
BRANCH   9  10
HETATM   10  C   UNL     1      -7.040  10.083  68.880  1.00  0.00    -0.068 C  
BRANCH  10  11
HETATM   11  C   UNL     1      -7.375  11.122  67.803  1.00  0.00    -0.093 C  
BRANCH  11  12
HETATM   12  C   UNL     1      -8.617  10.786  66.956  1.00  0.00    -0.130 C  
BRANCH  12  13
HETATM   13  N   UNL     1      -8.265  10.465  65.569  1.00  0.00    -0.159 NA 
HETATM   14  C   UNL     1      -9.122   9.428  64.982  1.00  0.00    -0.215 C  
HETATM   15  C   UNL     1      -8.842   9.292  63.472  1.00  0.00    -0.145 C  
HETATM   16  C   UNL     1      -7.345   9.137  63.135  1.00  0.00    -0.095 C  
HETATM   17  C   UNL     1      -6.562  10.216  63.901  1.00  0.00    -0.117 C  
HETATM   18  C   UNL     1      -6.854  10.135  65.394  1.00  0.00    -0.128 C  
BRANCH  16  19
HETATM   19  C   UNL     1      -6.793   7.762  63.411  1.00  0.00    -0.071 A  
HETATM   20  N   UNL     1      -5.526   7.596  63.818  1.00  0.00    -0.040 NA 
HETATM   21  O   UNL     1      -5.294   6.236  63.801  1.00  0.00    -0.017 OA 
HETATM   22  C   UNL     1      -6.423   5.588  63.405  1.00  0.00    -0.025 A  
HETATM   23  C   UNL     1      -7.435   6.503  63.215  1.00  0.00    -0.074 A  
HETATM   24  C   UNL     1      -8.706   6.031  62.841  1.00  0.00     0.285 A  
HETATM   25  C   UNL     1      -8.863   4.654  62.619  1.00  0.00    -0.127 A  
HETATM   26  C   UNL     1      -7.790   3.781  62.788  1.00  0.00    -0.063 A  
HETATM   27  C   UNL     1      -6.539   4.215  63.212  1.00  0.00    -0.034 A  
HETATM   28  F   UNL     1      -7.971   2.480  62.526  1.00  0.00    -0.060 F  
ENDBRANCH  16  19
ENDBRANCH  12  13
ENDBRANCH  11  12
ENDBRANCH  10  11
ENDBRANCH   9  10
ENDBRANCH   4   9
BRANCH   6  29
HETATM   29  C   UNL     1     -12.433   7.917  71.822  1.00  0.00    -0.323 C  
HETATM   30  O   UNL     1     -12.637   6.766  72.204  1.00  0.00    -0.248 OA 
HETATM   31  C   UNL     1     -13.379   9.033  72.191  1.00  0.00    -0.510 C  
ENDBRANCH   6  29
ENDBRANCH   2   3
TORSDOF 8
ENDMDL
MODEL      312
REMARK 921   NORMALIZED FREE ENERGY PREDICTED BY IDOCK:   -2.85 KCAL/MOL
REMARK 922        TOTAL FREE ENERGY PREDICTED BY IDOCK:   -4.98 KCAL/MOL
REMARK 923 INTER-LIGAND FREE ENERGY PREDICTED BY IDOCK:   -4.16 KCAL/MOL
REMARK 924 INTRA-LIGAND FREE ENERGY PREDICTED BY IDOCK:   -0.82 KCAL/MOL
REMARK 927      BINDING AFFINITY PREDICTED BY RF-SCORE:    0.00 PKD
ROOT
HETATM    1  C   UNL     1      -7.827   8.361  65.110  1.00  0.00    -0.118 C  
HETATM    2  O   UNL     1      -8.044   7.154  65.827  1.00  0.00    -0.115 OA 
ENDROOT
BRANCH   2   3
HETATM    3  C   UNL     1      -7.166   6.855  66.839  1.00  0.00    -0.077 A  
HETATM    4  C   UNL     1      -6.712   5.524  66.885  1.00  0.00    -0.062 A  
HETATM    5  C   UNL     1      -5.817   5.133  67.883  1.00  0.00    -0.018 A  
HETATM    6  C   UNL     1      -5.800   7.380  68.781  1.00  0.00    -0.023 A  
HETATM    7  C   UNL     1      -6.695   7.778  67.779  1.00  0.00    -0.068 A  
HETATM    8  C   UNL     1      -5.353   6.059  68.821  1.00  0.00    -0.007 A  
BRANCH   4   9
HETATM    9  O   UNL     1      -7.224   4.664  65.948  1.00  0.00    -0.073 OA 
BRANCH   9  10
HETATM   10  C   UNL     1      -7.536   3.334  66.363  1.00  0.00    -0.077 C  
BRANCH  10  11
HETATM   11  C   UNL     1      -9.048   3.087  66.442  1.00  0.00    -0.156 C  
BRANCH  11  12
HETATM   12  C   UNL     1      -9.659   3.308  67.838  1.00  0.00    -0.084 C  
BRANCH  12  13
HETATM   13  N   UNL     1      -9.456   4.679  68.316  1.00  0.00    -0.140 NA 
HETATM   14  C   UNL     1      -9.135   4.750  69.747  1.00  0.00    -0.108 C  
HETATM   15  C   UNL     1      -8.725   6.185  70.135  1.00  0.00    -0.141 C  
HETATM   16  C   UNL     1      -9.726   7.259  69.661  1.00  0.00    -0.159 C  
HETATM   17  C   UNL     1     -10.052   6.997  68.181  1.00  0.00    -0.193 C  
HETATM   18  C   UNL     1     -10.561   5.574  67.986  1.00  0.00    -0.140 C  
BRANCH  16  19
HETATM   19  C   UNL     1     -10.980   7.340  70.492  1.00  0.00    -0.260 A  
HETATM   20  N   UNL     1     -11.757   6.262  70.674  1.00  0.00    -0.297 NA 
HETATM   21  O   UNL     1     -12.893   6.714  71.315  1.00  0.00    -0.261 OA 
HETATM   22  C   UNL     1     -12.789   8.053  71.533  1.00  0.00    -0.311 A  
HETATM   23  C   UNL     1     -11.559   8.495  71.098  1.00  0.00    -0.325 A  
HETATM   24  C   UNL     1     -11.231   9.852  71.271  1.00  0.00    -0.356 A  
HETATM   25  C   UNL     1     -12.202  10.701  71.824  1.00  0.00    -0.089 A  
HETATM   26  C   UNL     1     -13.446  10.204  72.207  1.00  0.00    -0.189 A  
HETATM   27  C   UNL     1     -13.773   8.856  72.099  1.00  0.00    -0.527 A  
HETATM   28  F   UNL     1     -14.360  11.056  72.691  1.00  0.00     0.304 F  
ENDBRANCH  16  19
ENDBRANCH  12  13
ENDBRANCH  11  12
ENDBRANCH  10  11
ENDBRANCH   9  10
ENDBRANCH   4   9
BRANCH   6  29
HETATM   29  C   UNL     1      -5.357   8.397  69.774  1.00  0.00    -0.029 C  
HETATM   30  O   UNL     1      -5.134   9.547  69.401  1.00  0.00    -0.035 OA 
HETATM   31  C   UNL     1      -5.248   8.022  71.231  1.00  0.00    -0.030 C  
ENDBRANCH   6  29
ENDBRANCH   2   3
TORSDOF 8
ENDMDL
MODEL      313
REMARK 921   NORMALIZED FREE ENERGY PREDICTED BY IDOCK:   -2.79 KCAL/MOL
REMARK 922        TOTAL FREE ENERGY PREDICTED BY IDOCK:   -4.89 KCAL/MOL
REMARK 923 INTER-LIGAND FREE ENERGY PREDICTED BY IDOCK:   -5.65 KCAL/MOL
REMARK 924 INTRA-LIGAND FREE ENERGY PREDICTED BY IDOCK:    0.76 KCAL/MOL
REMARK 927      BINDING AFFINITY PREDICTED BY RF-SCORE:    0.00 PKD
ROOT
HETATM    1  C   UNL     1     -10.869   7.084  66.941  1.00  0.00    -0.280 C  
HETATM    2  O   UNL     1      -9.547   7.604  66.980  1.00  0.00    -0.153 OA 
ENDROOT
BRANCH   2   3
HETATM    3  C   UNL     1      -8.794   7.499  65.837  1.00  0.00    -0.126 A  
HETATM    4  C   UNL     1      -9.035   8.473  64.851  1.00  0.00     0.115 A  
HETATM    5  C   UNL     1      -8.314   8.440  63.655  1.00  0.00    -0.050 A  
HETATM    6  C   UNL     1      -7.097   6.492  64.417  1.00  0.00    -0.064 A  
HETATM    7  C   UNL     1      -7.816   6.523  65.619  1.00  0.00    -0.100 A  
HETATM    8  C   UNL     1      -7.340   7.460  63.443  1.00  0.00    -0.087 A  
BRANCH   4   9
HETATM    9  O   UNL     1     -10.019   9.390  65.116  1.00  0.00    -0.105 OA 
BRANCH   9  10
HETATM   10  C   UNL     1      -9.764  10.757  64.790  1.00  0.00    -0.283 C  
BRANCH  10  11
HETATM   11  C   UNL     1     -10.961  11.663  65.100  1.00  0.00    -0.326 C  
BRANCH  11  12
HETATM   12  C   UNL     1     -10.608  13.153  65.264  1.00  0.00    -0.313 C  
BRANCH  12  13
HETATM   13  N   UNL     1     -10.696  13.589  66.662  1.00  0.00    -0.281 NA 
HETATM   14  C   UNL     1     -11.876  14.418  66.935  1.00  0.00    -0.410 C  
HETATM   15  C   UNL     1     -12.023  14.660  68.451  1.00  0.00    -0.289 C  
HETATM   16  C   UNL     1     -10.729  15.166  69.121  1.00  0.00    -0.253 C  
HETATM   17  C   UNL     1      -9.565  14.273  68.660  1.00  0.00    -0.192 C  
HETATM   18  C   UNL     1      -9.480  14.240  67.140  1.00  0.00    -0.227 C  
BRANCH  16  19
HETATM   19  C   UNL     1     -10.435  16.621  68.867  1.00  0.00    -0.322 A  
HETATM   20  N   UNL     1     -10.163  17.458  69.880  1.00  0.00     0.244 NA 
HETATM   21  O   UNL     1     -10.124  18.723  69.331  1.00  0.00    -0.208 OA 
HETATM   22  C   UNL     1     -10.353  18.645  67.992  1.00  0.00    -0.377 A  
HETATM   23  C   UNL     1     -10.483  17.323  67.625  1.00  0.00    -0.363 A  
HETATM   24  C   UNL     1     -10.685  17.019  66.267  1.00  0.00    -0.086 A  
HETATM   25  C   UNL     1     -10.805  18.084  65.361  1.00  0.00     0.242 A  
HETATM   26  C   UNL     1     -10.706  19.403  65.798  1.00  0.00    -0.365 A  
HETATM   27  C   UNL     1     -10.450  19.728  67.126  1.00  0.00    -0.592 A  
HETATM   28  F   UNL     1     -10.868  20.392  64.908  1.00  0.00    -0.353 F  
ENDBRANCH  16  19
ENDBRANCH  12  13
ENDBRANCH  11  12
ENDBRANCH  10  11
ENDBRANCH   9  10
ENDBRANCH   4   9
BRANCH   6  29
HETATM   29  C   UNL     1      -6.090   5.412  64.227  1.00  0.00    -0.022 C  
HETATM   30  O   UNL     1      -6.013   4.843  63.139  1.00  0.00    -0.017 OA 
HETATM   31  C   UNL     1      -5.136   5.074  65.345  1.00  0.00    -0.012 C  
ENDBRANCH   6  29
ENDBRANCH   2   3
TORSDOF 8
ENDMDL
MODEL      314
REMARK 921   NORMALIZED FREE ENERGY PREDICTED BY IDOCK:   -2.77 KCAL/MOL
REMARK 922        TOTAL FREE ENERGY PREDICTED BY IDOCK:   -4.86 KCAL/MOL
REMARK 923 INTER-LIGAND FREE ENERGY PREDICTED BY IDOCK:   -4.60 KCAL/MOL
REMARK 924 INTRA-LIGAND FREE ENERGY PREDICTED BY IDOCK:   -0.26 KCAL/MOL
REMARK 927      BINDING AFFINITY PREDICTED BY RF-SCORE:    0.00 PKD
ROOT
HETATM    1  C   UNL     1      -9.798  14.980  69.281  1.00  0.00    -0.197 C  
HETATM    2  O   UNL     1      -9.185  14.873  68.004  1.00  0.00    -0.179 OA 
ENDROOT
BRANCH   2   3
HETATM    3  C   UNL     1      -8.164  15.744  67.720  1.00  0.00    -0.144 A  
HETATM    4  C   UNL     1      -6.866  15.204  67.764  1.00  0.00    -0.170 A  
HETATM    5  C   UNL     1      -5.767  16.022  67.489  1.00  0.00    -0.157 A  
HETATM    6  C   UNL     1      -7.236  17.906  67.104  1.00  0.00    -0.206 A  
HETATM    7  C   UNL     1      -8.342  17.089  67.376  1.00  0.00    -0.206 A  
HETATM    8  C   UNL     1      -5.952  17.365  67.148  1.00  0.00    -0.173 A  
BRANCH   4   9
HETATM    9  O   UNL     1      -6.756  13.886  68.126  1.00  0.00    -0.095 OA 
BRANCH   9  10
HETATM   10  C   UNL     1      -6.381  13.593  69.472  1.00  0.00    -0.114 C  
BRANCH  10  11
HETATM   11  C   UNL     1      -5.531  12.321  69.575  1.00  0.00    -0.075 C  
BRANCH  11  12
HETATM   12  C   UNL     1      -6.319  11.054  69.954  1.00  0.00    -0.137 C  
BRANCH  12  13
HETATM   13  N   UNL     1      -7.553  10.920  69.174  1.00  0.00    -0.134 NA 
HETATM   14  C   UNL     1      -8.765  10.937  70.002  1.00  0.00     1.127 C  
HETATM   15  C   UNL     1     -10.022  11.010  69.113  1.00  0.00    -0.142 C  
HETATM   16  C   UNL     1     -10.043   9.953  67.990  1.00  0.00    -0.202 C  
HETATM   17  C   UNL     1      -8.678   9.973  67.281  1.00  0.00    -0.127 C  
HETATM   18  C   UNL     1      -7.549   9.765  68.282  1.00  0.00    -0.081 C  
BRANCH  16  19
HETATM   19  C   UNL     1     -10.394   8.565  68.459  1.00  0.00    -0.198 A  
HETATM   20  N   UNL     1     -10.540   7.557  67.586  1.00  0.00    -0.243 NA 
HETATM   21  O   UNL     1     -11.031   6.491  68.311  1.00  0.00    -0.280 OA 
HETATM   22  C   UNL     1     -11.161   6.851  69.617  1.00  0.00    -0.258 A  
HETATM   23  C   UNL     1     -10.699   8.138  69.786  1.00  0.00    -0.229 A  
HETATM   24  C   UNL     1     -10.707   8.690  71.080  1.00  0.00    -0.284 A  
HETATM   25  C   UNL     1     -11.244   7.923  72.125  1.00  0.00    -0.363 A  
HETATM   26  C   UNL     1     -11.735   6.641  71.884  1.00  0.00    -0.313 A  
HETATM   27  C   UNL     1     -11.686   6.051  70.626  1.00  0.00    -0.005 A  
HETATM   28  F   UNL     1     -12.277   5.957  72.901  1.00  0.00    -0.156 F  
ENDBRANCH  16  19
ENDBRANCH  12  13
ENDBRANCH  11  12
ENDBRANCH  10  11
ENDBRANCH   9  10
ENDBRANCH   4   9
BRANCH   6  29
HETATM   29  C   UNL     1      -7.483  19.336  66.774  1.00  0.00    -0.228 C  
HETATM   30  O   UNL     1      -6.537  20.122  66.752  1.00  0.00    -0.203 OA 
HETATM   31  C   UNL     1      -8.874  19.791  66.408  1.00  0.00    -0.428 C  
ENDBRANCH   6  29
ENDBRANCH   2   3
TORSDOF 8
ENDMDL
MODEL      315
REMARK 921   NORMALIZED FREE ENERGY PREDICTED BY IDOCK:   -2.66 KCAL/MOL
REMARK 922        TOTAL FREE ENERGY PREDICTED BY IDOCK:   -4.70 KCAL/MOL
REMARK 923 INTER-LIGAND FREE ENERGY PREDICTED BY IDOCK:   -4.38 KCAL/MOL
REMARK 924 INTRA-LIGAND FREE ENERGY PREDICTED BY IDOCK:   -0.32 KCAL/MOL
REMARK 927      BINDING AFFINITY PREDICTED BY RF-SCORE:    0.00 PKD
ROOT
HETATM    1  C   UNL     1     -10.474   5.397  69.466  1.00  0.00    -0.273 C  
HETATM    2  O   UNL     1      -9.513   5.814  68.508  1.00  0.00    -0.119 OA 
ENDROOT
BRANCH   2   3
HETATM    3  C   UNL     1      -8.303   5.165  68.503  1.00  0.00    -0.089 A  
HETATM    4  C   UNL     1      -7.535   5.289  69.675  1.00  0.00    -0.065 A  
HETATM    5  C   UNL     1      -6.290   4.661  69.755  1.00  0.00    -0.027 A  
HETATM    6  C   UNL     1      -6.570   3.769  67.523  1.00  0.00    -0.042 A  
HETATM    7  C   UNL     1      -7.822   4.394  67.439  1.00  0.00    -0.096 A  
HETATM    8  C   UNL     1      -5.814   3.894  68.688  1.00  0.00    -0.023 A  
BRANCH   4   9
HETATM    9  O   UNL     1      -8.052   6.073  70.673  1.00  0.00    -0.111 OA 
BRANCH   9  10
HETATM   10  C   UNL     1      -7.379   7.295  70.979  1.00  0.00    -0.074 C  
BRANCH  10  11
HETATM   11  C   UNL     1      -7.823   8.448  70.070  1.00  0.00    -0.103 C  
BRANCH  11  12
HETATM   12  C   UNL     1      -6.949   8.648  68.819  1.00  0.00    -0.063 C  
BRANCH  12  13
HETATM   13  N   UNL     1      -6.902  10.053  68.400  1.00  0.00    -0.062 NA 
HETATM   14  C   UNL     1      -7.261  10.987  69.474  1.00  0.00    -0.090 C  
HETATM   15  C   UNL     1      -6.985  12.439  69.035  1.00  0.00    -0.071 C  
HETATM   16  C   UNL     1      -7.594  12.794  67.663  1.00  0.00    -0.152 C  
HETATM   17  C   UNL     1      -7.229  11.678  66.669  1.00  0.00    -0.025 C  
HETATM   18  C   UNL     1      -7.679  10.321  67.194  1.00  0.00    -0.092 C  
BRANCH  16  19
HETATM   19  C   UNL     1      -9.081  13.033  67.694  1.00  0.00    -0.198 A  
HETATM   20  N   UNL     1      -9.847  12.494  68.654  1.00  0.00    -0.136 NA 
HETATM   21  O   UNL     1     -11.153  12.753  68.291  1.00  0.00    -0.230 OA 
HETATM   22  C   UNL     1     -11.170  13.460  67.129  1.00  0.00    -0.302 A  
HETATM   23  C   UNL     1      -9.877  13.734  66.739  1.00  0.00    -0.275 A  
HETATM   24  C   UNL     1      -9.673  14.497  65.576  1.00  0.00    -0.232 A  
HETATM   25  C   UNL     1     -10.799  14.889  64.835  1.00  0.00    -0.431 A  
HETATM   26  C   UNL     1     -12.081  14.546  65.257  1.00  0.00    -0.337 A  
HETATM   27  C   UNL     1     -12.312  13.841  66.434  1.00  0.00    -0.460 A  
HETATM   28  F   UNL     1     -13.127  14.903  64.499  1.00  0.00    -0.143 F  
ENDBRANCH  16  19
ENDBRANCH  12  13
ENDBRANCH  11  12
ENDBRANCH  10  11
ENDBRANCH   9  10
ENDBRANCH   4   9
BRANCH   6  29
HETATM   29  C   UNL     1      -6.095   2.986  66.349  1.00  0.00    -0.024 C  
HETATM   30  O   UNL     1      -5.909   3.559  65.277  1.00  0.00    -0.020 OA 
HETATM   31  C   UNL     1      -5.786   1.518  66.505  1.00  0.00    -0.018 C  
ENDBRANCH   6  29
ENDBRANCH   2   3
TORSDOF 8
ENDMDL
MODEL      316
REMARK 921   NORMALIZED FREE ENERGY PREDICTED BY IDOCK:   -2.57 KCAL/MOL
REMARK 922        TOTAL FREE ENERGY PREDICTED BY IDOCK:   -4.57 KCAL/MOL
REMARK 923 INTER-LIGAND FREE ENERGY PREDICTED BY IDOCK:   -5.42 KCAL/MOL
REMARK 924 INTRA-LIGAND FREE ENERGY PREDICTED BY IDOCK:    0.85 KCAL/MOL
REMARK 927      BINDING AFFINITY PREDICTED BY RF-SCORE:    0.00 PKD
ROOT
HETATM    1  C   UNL     1     -12.701  12.554  64.018  1.00  0.00    -0.318 C  
HETATM    2  O   UNL     1     -12.736  12.712  65.429  1.00  0.00    -0.635 OA 
ENDROOT
BRANCH   2   3
HETATM    3  C   UNL     1     -11.624  13.244  66.032  1.00  0.00    -0.349 A  
HETATM    4  C   UNL     1     -10.495  12.406  66.088  1.00  0.00    -0.248 A  
HETATM    5  C   UNL     1      -9.320  12.868  66.687  1.00  0.00    -0.240 A  
HETATM    6  C   UNL     1     -10.369  14.997  67.157  1.00  0.00    -0.257 A  
HETATM    7  C   UNL     1     -11.548  14.540  66.555  1.00  0.00    -0.379 A  
HETATM    8  C   UNL     1      -9.253  14.162  67.208  1.00  0.00    -0.222 A  
BRANCH   4   9
HETATM    9  O   UNL     1     -10.638  11.142  65.577  1.00  0.00    -0.263 OA 
BRANCH   9  10
HETATM   10  C   UNL     1      -9.460  10.351  65.412  1.00  0.00    -0.232 C  
BRANCH  10  11
HETATM   11  C   UNL     1      -9.042   9.652  66.711  1.00  0.00    -0.171 C  
BRANCH  11  12
HETATM   12  C   UNL     1     -10.175   8.887  67.419  1.00  0.00    -0.249 C  
BRANCH  12  13
HETATM   13  N   UNL     1      -9.668   7.756  68.203  1.00  0.00    -0.151 NA 
HETATM   14  C   UNL     1      -8.215   7.799  68.405  1.00  0.00    -0.124 C  
HETATM   15  C   UNL     1      -7.781   6.711  69.408  1.00  0.00    -0.101 C  
HETATM   16  C   UNL     1      -8.328   5.309  69.070  1.00  0.00    -0.095 C  
HETATM   17  C   UNL     1      -9.832   5.435  68.777  1.00  0.00    -0.208 C  
HETATM   18  C   UNL     1     -10.083   6.459  67.678  1.00  0.00    -0.151 C  
BRANCH  16  19
HETATM   19  C   UNL     1      -7.607   4.624  67.938  1.00  0.00    -0.078 A  
HETATM   20  N   UNL     1      -7.071   3.404  68.098  1.00  0.00    -0.050 NA 
HETATM   21  O   UNL     1      -6.343   3.153  66.953  1.00  0.00    -0.034 OA 
HETATM   22  C   UNL     1      -6.456   4.209  66.103  1.00  0.00    -0.037 A  
HETATM   23  C   UNL     1      -7.310   5.145  66.643  1.00  0.00    -0.086 A  
HETATM   24  C   UNL     1      -7.598   6.303  65.898  1.00  0.00    -0.084 A  
HETATM   25  C   UNL     1      -6.950   6.475  64.665  1.00  0.00    -0.054 A  
HETATM   26  C   UNL     1      -6.062   5.512  64.189  1.00  0.00    -0.022 A  
HETATM   27  C   UNL     1      -5.805   4.332  64.880  1.00  0.00    -0.018 A  
HETATM   28  F   UNL     1      -5.432   5.733  63.027  1.00  0.00    -0.013 F  
ENDBRANCH  16  19
ENDBRANCH  12  13
ENDBRANCH  11  12
ENDBRANCH  10  11
ENDBRANCH   9  10
ENDBRANCH   4   9
BRANCH   6  29
HETATM   29  C   UNL     1     -10.355  16.374  67.724  1.00  0.00    -0.287 C  
HETATM   30  O   UNL     1      -9.907  16.557  68.854  1.00  0.00    -0.239 OA 
HETATM   31  C   UNL     1     -10.830  17.533  66.883  1.00  0.00    -0.020 C  
ENDBRANCH   6  29
ENDBRANCH   2   3
TORSDOF 8
ENDMDL
MODEL      317
REMARK 921   NORMALIZED FREE ENERGY PREDICTED BY IDOCK:   -2.51 KCAL/MOL
REMARK 922        TOTAL FREE ENERGY PREDICTED BY IDOCK:   -4.48 KCAL/MOL
REMARK 923 INTER-LIGAND FREE ENERGY PREDICTED BY IDOCK:   -5.26 KCAL/MOL
REMARK 924 INTRA-LIGAND FREE ENERGY PREDICTED BY IDOCK:    0.78 KCAL/MOL
REMARK 927      BINDING AFFINITY PREDICTED BY RF-SCORE:    0.00 PKD
ROOT
HETATM    1  C   UNL     1     -11.304  11.351  63.738  1.00  0.00    -0.221 C  
HETATM    2  O   UNL     1     -11.571  11.726  65.081  1.00  0.00    -0.260 OA 
ENDROOT
BRANCH   2   3
HETATM    3  C   UNL     1     -10.522  12.210  65.822  1.00  0.00    -0.253 A  
HETATM    4  C   UNL     1      -9.620  11.248  66.313  1.00  0.00    -0.209 A  
HETATM    5  C   UNL     1      -8.524  11.655  67.078  1.00  0.00    -0.168 A  
HETATM    6  C   UNL     1      -9.197  13.968  66.856  1.00  0.00    -0.271 A  
HETATM    7  C   UNL     1     -10.296  13.566  66.085  1.00  0.00    -0.296 A  
HETATM    8  C   UNL     1      -8.306  13.010  67.338  1.00  0.00    -0.194 A  
BRANCH   4   9
HETATM    9  O   UNL     1      -9.906   9.936  66.038  1.00  0.00    -0.227 OA 
BRANCH   9  10
HETATM   10  C   UNL     1      -9.828   8.997  67.111  1.00  0.00    -0.203 C  
BRANCH  10  11
HETATM   11  C   UNL     1     -10.757   7.795  66.902  1.00  0.00    -0.244 C  
BRANCH  11  12
HETATM   12  C   UNL     1     -10.030   6.459  66.662  1.00  0.00    -0.149 C  
BRANCH  12  13
HETATM   13  N   UNL     1      -9.906   5.671  67.893  1.00  0.00    -0.126 NA 
HETATM   14  C   UNL     1     -10.701   6.208  69.004  1.00  0.00    -0.312 C  
HETATM   15  C   UNL     1     -10.697   5.224  70.191  1.00  0.00    -0.217 C  
HETATM   16  C   UNL     1      -9.284   4.755  70.597  1.00  0.00    -0.191 C  
HETATM   17  C   UNL     1      -8.534   4.327  69.325  1.00  0.00    -0.093 C  
HETATM   18  C   UNL     1      -8.521   5.453  68.301  1.00  0.00    -0.097 C  
BRANCH  16  19
HETATM   19  C   UNL     1      -8.499   5.777  71.377  1.00  0.00    -0.128 A  
HETATM   20  N   UNL     1      -8.520   5.787  72.718  1.00  0.00    -0.119 NA 
HETATM   21  O   UNL     1      -7.858   6.936  73.102  1.00  0.00    -0.095 OA 
HETATM   22  C   UNL     1      -7.426   7.601  71.998  1.00  0.00    -0.072 A  
HETATM   23  C   UNL     1      -7.738   6.873  70.871  1.00  0.00    -0.092 A  
HETATM   24  C   UNL     1      -7.338   7.370  69.617  1.00  0.00    -0.091 A  
HETATM   25  C   UNL     1      -6.694   8.616  69.573  1.00  0.00    -0.040 A  
HETATM   26  C   UNL     1      -6.442   9.327  70.744  1.00  0.00    -0.079 A  
HETATM   27  C   UNL     1      -6.776   8.831  72.000  1.00  0.00    -0.048 A  
HETATM   28  F   UNL     1      -5.862  10.531  70.656  1.00  0.00    -0.072 F  
ENDBRANCH  16  19
ENDBRANCH  12  13
ENDBRANCH  11  12
ENDBRANCH  10  11
ENDBRANCH   9  10
ENDBRANCH   4   9
BRANCH   6  29
HETATM   29  C   UNL     1      -9.023  15.421  67.129  1.00  0.00    -0.218 C  
HETATM   30  O   UNL     1      -8.002  15.990  66.746  1.00  0.00    -0.225 OA 
HETATM   31  C   UNL     1     -10.126  16.190  67.814  1.00  0.00    -0.250 C  
ENDBRANCH   6  29
ENDBRANCH   2   3
TORSDOF 8
ENDMDL
MODEL      318
REMARK 921   NORMALIZED FREE ENERGY PREDICTED BY IDOCK:   -2.44 KCAL/MOL
REMARK 922        TOTAL FREE ENERGY PREDICTED BY IDOCK:   -4.38 KCAL/MOL
REMARK 923 INTER-LIGAND FREE ENERGY PREDICTED BY IDOCK:   -3.01 KCAL/MOL
REMARK 924 INTRA-LIGAND FREE ENERGY PREDICTED BY IDOCK:   -1.37 KCAL/MOL
REMARK 927      BINDING AFFINITY PREDICTED BY RF-SCORE:    0.00 PKD
ROOT
HETATM    1  C   UNL     1      -7.223   3.029  71.862  1.00  0.00    -0.039 C  
HETATM    2  O   UNL     1      -7.885   3.421  70.668  1.00  0.00    -0.043 OA 
ENDROOT
BRANCH   2   3
HETATM    3  C   UNL     1      -7.737   4.723  70.263  1.00  0.00    -0.058 A  
HETATM    4  C   UNL     1      -6.740   4.956  69.298  1.00  0.00    -0.048 A  
HETATM    5  C   UNL     1      -6.520   6.254  68.830  1.00  0.00    -0.043 A  
HETATM    6  C   UNL     1      -8.288   7.092  70.255  1.00  0.00    -0.133 A  
HETATM    7  C   UNL     1      -8.514   5.791  70.724  1.00  0.00    -0.125 A  
HETATM    8  C   UNL     1      -7.299   7.316  69.297  1.00  0.00    -0.087 A  
BRANCH   4   9
HETATM    9  O   UNL     1      -5.999   3.873  68.900  1.00  0.00    -0.022 OA 
BRANCH   9  10
HETATM   10  C   UNL     1      -5.129   4.034  67.780  1.00  0.00    -0.007 C  
BRANCH  10  11
HETATM   11  C   UNL     1      -5.545   3.163  66.588  1.00  0.00    -0.021 C  
BRANCH  11  12
HETATM   12  C   UNL     1      -7.066   3.065  66.369  1.00  0.00    -0.058 C  
BRANCH  12  13
HETATM   13  N   UNL     1      -7.554   4.087  65.437  1.00  0.00    -0.081 NA 
HETATM   14  C   UNL     1      -6.483   4.709  64.650  1.00  0.00    -0.039 C  
HETATM   15  C   UNL     1      -7.079   5.609  63.549  1.00  0.00    -0.051 C  
HETATM   16  C   UNL     1      -8.134   6.605  64.073  1.00  0.00    -0.020 C  
HETATM   17  C   UNL     1      -9.123   5.836  64.966  1.00  0.00     0.186 C  
HETATM   18  C   UNL     1      -8.386   5.101  66.077  1.00  0.00    -0.116 C  
BRANCH  16  19
HETATM   19  C   UNL     1      -7.553   7.791  64.797  1.00  0.00    -0.108 A  
HETATM   20  N   UNL     1      -6.320   7.742  65.323  1.00  0.00    -0.038 NA 
HETATM   21  O   UNL     1      -6.172   8.901  66.057  1.00  0.00    -0.055 OA 
HETATM   22  C   UNL     1      -7.303   9.651  65.957  1.00  0.00    -0.099 A  
HETATM   23  C   UNL     1      -8.191   9.030  65.105  1.00  0.00    -0.147 A  
HETATM   24  C   UNL     1      -9.415   9.665  64.830  1.00  0.00    -0.288 A  
HETATM   25  C   UNL     1      -9.697  10.873  65.488  1.00  0.00    -0.282 A  
HETATM   26  C   UNL     1      -8.776  11.432  66.372  1.00  0.00    -0.185 A  
HETATM   27  C   UNL     1      -7.535  10.853  66.616  1.00  0.00    -0.139 A  
HETATM   28  F   UNL     1      -9.100  12.564  67.011  1.00  0.00    -0.183 F  
ENDBRANCH  16  19
ENDBRANCH  12  13
ENDBRANCH  11  12
ENDBRANCH  10  11
ENDBRANCH   9  10
ENDBRANCH   4   9
BRANCH   6  29
HETATM   29  C   UNL     1      -9.124   8.194  70.804  1.00  0.00    -0.146 C  
HETATM   30  O   UNL     1      -8.703   8.857  71.750  1.00  0.00    -0.312 OA 
HETATM   31  C   UNL     1     -10.445   8.525  70.154  1.00  0.00    -0.226 C  
ENDBRANCH   6  29
ENDBRANCH   2   3
TORSDOF 8
ENDMDL
MODEL      319
REMARK 921   NORMALIZED FREE ENERGY PREDICTED BY IDOCK:   -2.40 KCAL/MOL
REMARK 922        TOTAL FREE ENERGY PREDICTED BY IDOCK:   -4.32 KCAL/MOL
REMARK 923 INTER-LIGAND FREE ENERGY PREDICTED BY IDOCK:   -5.30 KCAL/MOL
REMARK 924 INTRA-LIGAND FREE ENERGY PREDICTED BY IDOCK:    0.98 KCAL/MOL
REMARK 927      BINDING AFFINITY PREDICTED BY RF-SCORE:    0.00 PKD
ROOT
HETATM    1  C   UNL     1     -10.782  11.000  63.248  1.00  0.00    -0.003 C  
HETATM    2  O   UNL     1     -11.236  11.489  64.502  1.00  0.00    -0.305 OA 
ENDROOT
BRANCH   2   3
HETATM    3  C   UNL     1     -10.284  11.874  65.412  1.00  0.00    -0.263 A  
HETATM    4  C   UNL     1      -9.367  10.879  65.799  1.00  0.00    -0.203 A  
HETATM    5  C   UNL     1      -8.365  11.184  66.723  1.00  0.00    -0.152 A  
HETATM    6  C   UNL     1      -9.161  13.464  66.868  1.00  0.00    -0.237 A  
HETATM    7  C   UNL     1     -10.165  13.165  65.939  1.00  0.00    -0.294 A  
HETATM    8  C   UNL     1      -8.254  12.475  67.247  1.00  0.00    -0.184 A  
BRANCH   4   9
HETATM    9  O   UNL     1      -9.548   9.630  65.263  1.00  0.00    -0.274 OA 
BRANCH   9  10
HETATM   10  C   UNL     1      -9.195   8.502  66.064  1.00  0.00    -0.202 C  
BRANCH  10  11
HETATM   11  C   UNL     1      -7.899   7.834  65.591  1.00  0.00    -0.107 C  
BRANCH  11  12
HETATM   12  C   UNL     1      -6.708   7.996  66.555  1.00  0.00    -0.062 C  
BRANCH  12  13
HETATM   13  N   UNL     1      -6.935   7.308  67.830  1.00  0.00    -0.073 NA 
HETATM   14  C   UNL     1      -7.933   6.235  67.737  1.00  0.00    -0.114 C  
HETATM   15  C   UNL     1      -7.966   5.419  69.045  1.00  0.00    -0.094 C  
HETATM   16  C   UNL     1      -8.095   6.291  70.311  1.00  0.00    -0.116 C  
HETATM   17  C   UNL     1      -7.067   7.432  70.219  1.00  0.00    -0.064 C  
HETATM   18  C   UNL     1      -7.248   8.217  68.928  1.00  0.00    -0.078 C  
BRANCH  16  19
HETATM   19  C   UNL     1      -9.483   6.825  70.550  1.00  0.00    -0.169 A  
HETATM   20  N   UNL     1     -10.496   6.001  70.859  1.00  0.00    -0.225 NA 
HETATM   21  O   UNL     1     -11.639   6.773  70.832  1.00  0.00    -0.311 OA 
HETATM   22  C   UNL     1     -11.312   8.058  70.527  1.00  0.00    -0.225 A  
HETATM   23  C   UNL     1      -9.943   8.168  70.411  1.00  0.00    -0.190 A  
HETATM   24  C   UNL     1      -9.391   9.433  70.138  1.00  0.00    -0.276 A  
HETATM   25  C   UNL     1     -10.269  10.509  69.936  1.00  0.00    -0.110 A  
HETATM   26  C   UNL     1     -11.648  10.328  70.026  1.00  0.00    -0.276 A  
HETATM   27  C   UNL     1     -12.216   9.100  70.350  1.00  0.00     0.175 A  
HETATM   28  F   UNL     1     -12.453  11.371  69.785  1.00  0.00    -0.314 F  
ENDBRANCH  16  19
ENDBRANCH  12  13
ENDBRANCH  11  12
ENDBRANCH  10  11
ENDBRANCH   9  10
ENDBRANCH   4   9
BRANCH   6  29
HETATM   29  C   UNL     1      -9.101  14.846  67.418  1.00  0.00    -0.189 C  
HETATM   30  O   UNL     1     -10.012  15.634  67.171  1.00  0.00    -0.235 OA 
HETATM   31  C   UNL     1      -7.960  15.243  68.322  1.00  0.00    -0.132 C  
ENDBRANCH   6  29
ENDBRANCH   2   3
TORSDOF 8
ENDMDL
MODEL      320
REMARK 921   NORMALIZED FREE ENERGY PREDICTED BY IDOCK:   -2.13 KCAL/MOL
REMARK 922        TOTAL FREE ENERGY PREDICTED BY IDOCK:   -3.93 KCAL/MOL
REMARK 923 INTER-LIGAND FREE ENERGY PREDICTED BY IDOCK:   -4.90 KCAL/MOL
REMARK 924 INTRA-LIGAND FREE ENERGY PREDICTED BY IDOCK:    0.97 KCAL/MOL
REMARK 927      BINDING AFFINITY PREDICTED BY RF-SCORE:    0.00 PKD
ROOT
HETATM    1  C   UNL     1     -11.088   9.146  70.629  1.00  0.00    -0.265 C  
HETATM    2  O   UNL     1     -10.412  10.339  70.258  1.00  0.00    -0.265 OA 
ENDROOT
BRANCH   2   3
HETATM    3  C   UNL     1     -10.741  10.901  69.050  1.00  0.00    -0.224 A  
HETATM    4  C   UNL     1     -11.714  11.916  69.090  1.00  0.00    -0.319 A  
HETATM    5  C   UNL     1     -12.109  12.542  67.905  1.00  0.00    -0.120 A  
HETATM    6  C   UNL     1     -10.563  11.176  66.641  1.00  0.00    -0.314 A  
HETATM    7  C   UNL     1     -10.161  10.548  67.827  1.00  0.00    -0.205 A  
HETATM    8  C   UNL     1     -11.528  12.182  66.687  1.00  0.00    -0.426 A  
BRANCH   4   9
HETATM    9  O   UNL     1     -12.258  12.203  70.315  1.00  0.00    -0.316 OA 
BRANCH   9  10
HETATM   10  C   UNL     1     -12.293  13.570  70.727  1.00  0.00    -0.363 C  
BRANCH  10  11
HETATM   11  C   UNL     1     -11.338  14.449  69.911  1.00  0.00    -0.273 C  
BRANCH  11  12
HETATM   12  C   UNL     1      -9.902  14.515  70.463  1.00  0.00     1.459 C  
BRANCH  12  13
HETATM   13  N   UNL     1      -9.058  15.433  69.691  1.00  0.00    -0.238 NA 
HETATM   14  C   UNL     1      -9.570  16.808  69.669  1.00  0.00     0.272 C  
HETATM   15  C   UNL     1      -8.536  17.756  69.030  1.00  0.00    -0.017 C  
HETATM   16  C   UNL     1      -8.005  17.260  67.669  1.00  0.00    -0.195 C  
HETATM   17  C   UNL     1      -7.609  15.782  67.814  1.00  0.00    -0.157 C  
HETATM   18  C   UNL     1      -8.778  14.959  68.339  1.00  0.00    -0.172 C  
BRANCH  16  19
HETATM   19  C   UNL     1      -8.966  17.458  66.526  1.00  0.00    -0.260 A  
HETATM   20  N   UNL     1      -9.328  18.689  66.134  1.00  0.00    -0.489 NA 
HETATM   21  O   UNL     1     -10.336  18.514  65.207  1.00  0.00    -0.348 OA 
HETATM   22  C   UNL     1     -10.565  17.185  65.030  1.00  0.00     0.183 A  
HETATM   23  C   UNL     1      -9.670  16.460  65.788  1.00  0.00    -0.271 A  
HETATM   24  C   UNL     1      -9.710  15.056  65.715  1.00  0.00    -0.375 A  
HETATM   25  C   UNL     1     -10.702  14.462  64.920  1.00  0.00    -0.444 A  
HETATM   26  C   UNL     1     -11.607  15.247  64.208  1.00  0.00    -0.197 A  
HETATM   27  C   UNL     1     -11.552  16.637  64.218  1.00  0.00     0.525 A  
HETATM   28  F   UNL     1     -12.565  14.641  63.494  1.00  0.00    -0.269 F  
ENDBRANCH  16  19
ENDBRANCH  12  13
ENDBRANCH  11  12
ENDBRANCH  10  11
ENDBRANCH   9  10
ENDBRANCH   4   9
BRANCH   6  29
HETATM   29  C   UNL     1      -9.935  10.738  65.364  1.00  0.00    -0.271 C  
HETATM   30  O   UNL     1      -9.972  11.483  64.387  1.00  0.00    -0.246 OA 
HETATM   31  C   UNL     1      -9.206   9.419  65.304  1.00  0.00    -0.299 C  
ENDBRANCH   6  29
ENDBRANCH   2   3
TORSDOF 8
ENDMDL
MODEL      321
REMARK 921   NORMALIZED FREE ENERGY PREDICTED BY IDOCK:   -2.11 KCAL/MOL
REMARK 922        TOTAL FREE ENERGY PREDICTED BY IDOCK:   -3.89 KCAL/MOL
REMARK 923 INTER-LIGAND FREE ENERGY PREDICTED BY IDOCK:   -4.90 KCAL/MOL
REMARK 924 INTRA-LIGAND FREE ENERGY PREDICTED BY IDOCK:    1.01 KCAL/MOL
REMARK 927      BINDING AFFINITY PREDICTED BY RF-SCORE:    0.00 PKD
ROOT
HETATM    1  C   UNL     1      -9.966   3.182  65.269  1.00  0.00     0.194 C  
HETATM    2  O   UNL     1      -9.150   3.538  66.375  1.00  0.00    -0.141 OA 
ENDROOT
BRANCH   2   3
HETATM    3  C   UNL     1      -8.295   4.600  66.212  1.00  0.00    -0.110 A  
HETATM    4  C   UNL     1      -8.150   5.448  67.326  1.00  0.00    -0.101 A  
HETATM    5  C   UNL     1      -7.301   6.553  67.247  1.00  0.00    -0.087 A  
HETATM    6  C   UNL     1      -6.719   5.973  64.971  1.00  0.00    -0.043 A  
HETATM    7  C   UNL     1      -7.567   4.861  65.046  1.00  0.00    -0.077 A  
HETATM    8  C   UNL     1      -6.578   6.809  66.078  1.00  0.00    -0.051 A  
BRANCH   4   9
HETATM    9  O   UNL     1      -8.905   5.150  68.431  1.00  0.00    -0.101 OA 
BRANCH   9  10
HETATM   10  C   UNL     1      -9.158   6.198  69.368  1.00  0.00    -0.134 C  
BRANCH  10  11
HETATM   11  C   UNL     1      -7.901   7.019  69.679  1.00  0.00    -0.119 C  
BRANCH  11  12
HETATM   12  C   UNL     1      -7.985   8.499  69.262  1.00  0.00    -0.111 C  
BRANCH  12  13
HETATM   13  N   UNL     1      -9.373   8.956  69.131  1.00  0.00    -0.148 NA 
HETATM   14  C   UNL     1      -9.744   9.285  67.750  1.00  0.00    -0.150 C  
HETATM   15  C   UNL     1     -11.260   9.548  67.650  1.00  0.00     0.188 C  
HETATM   16  C   UNL     1     -11.780  10.553  68.699  1.00  0.00    -0.157 C  
HETATM   17  C   UNL     1     -11.225  10.148  70.074  1.00  0.00    -0.361 C  
HETATM   18  C   UNL     1      -9.706  10.052  70.035  1.00  0.00    -0.175 C  
BRANCH  16  19
HETATM   19  C   UNL     1     -11.459  11.991  68.383  1.00  0.00    -0.301 A  
HETATM   20  N   UNL     1     -11.469  12.928  69.343  1.00  0.00    -0.275 NA 
HETATM   21  O   UNL     1     -11.317  14.138  68.698  1.00  0.00    -0.247 OA 
HETATM   22  C   UNL     1     -11.197  13.927  67.359  1.00  0.00    -0.312 A  
HETATM   23  C   UNL     1     -11.205  12.573  67.105  1.00  0.00    -0.352 A  
HETATM   24  C   UNL     1     -11.050  12.138  65.776  1.00  0.00    -0.362 A  
HETATM   25  C   UNL     1     -10.957  13.109  64.768  1.00  0.00    -0.355 A  
HETATM   26  C   UNL     1     -10.997  14.466  65.082  1.00  0.00    -0.373 A  
HETATM   27  C   UNL     1     -11.092  14.922  66.393  1.00  0.00    -0.342 A  
HETATM   28  F   UNL     1     -10.948  15.361  64.086  1.00  0.00    -0.214 F  
ENDBRANCH  16  19
ENDBRANCH  12  13
ENDBRANCH  11  12
ENDBRANCH  10  11
ENDBRANCH   9  10
ENDBRANCH   4   9
BRANCH   6  29
HETATM   29  C   UNL     1      -5.993   6.219  63.695  1.00  0.00    -0.022 C  
HETATM   30  O   UNL     1      -5.689   5.266  62.980  1.00  0.00    -0.013 OA 
HETATM   31  C   UNL     1      -5.696   7.634  63.264  1.00  0.00    -0.050 C  
ENDBRANCH   6  29
ENDBRANCH   2   3
TORSDOF 8
ENDMDL
MODEL      322
REMARK 921   NORMALIZED FREE ENERGY PREDICTED BY IDOCK:   -1.90 KCAL/MOL
REMARK 922        TOTAL FREE ENERGY PREDICTED BY IDOCK:   -3.59 KCAL/MOL
REMARK 923 INTER-LIGAND FREE ENERGY PREDICTED BY IDOCK:   -3.99 KCAL/MOL
REMARK 924 INTRA-LIGAND FREE ENERGY PREDICTED BY IDOCK:    0.41 KCAL/MOL
REMARK 927      BINDING AFFINITY PREDICTED BY RF-SCORE:    0.00 PKD
ROOT
HETATM    1  C   UNL     1      -5.330  17.229  65.433  1.00  0.00     0.897 C  
HETATM    2  O   UNL     1      -5.407  18.129  66.529  1.00  0.00    -0.134 OA 
ENDROOT
BRANCH   2   3
HETATM    3  C   UNL     1      -6.483  18.006  67.372  1.00  0.00    -0.169 A  
HETATM    4  C   UNL     1      -6.522  16.835  68.152  1.00  0.00    -0.143 A  
HETATM    5  C   UNL     1      -7.584  16.629  69.035  1.00  0.00    -0.226 A  
HETATM    6  C   UNL     1      -8.560  18.749  68.396  1.00  0.00    -0.373 A  
HETATM    7  C   UNL     1      -7.495  18.962  67.510  1.00  0.00    -0.244 A  
HETATM    8  C   UNL     1      -8.593  17.587  69.167  1.00  0.00     0.099 A  
BRANCH   4   9
HETATM    9  O   UNL     1      -5.513  15.929  67.956  1.00  0.00    -0.106 OA 
BRANCH   9  10
HETATM   10  C   UNL     1      -5.536  14.727  68.727  1.00  0.00    -0.087 C  
BRANCH  10  11
HETATM   11  C   UNL     1      -6.304  13.600  68.026  1.00  0.00    -0.139 C  
BRANCH  11  12
HETATM   12  C   UNL     1      -7.550  14.064  67.248  1.00  0.00    -0.070 C  
BRANCH  12  13
HETATM   13  N   UNL     1      -8.581  13.023  67.190  1.00  0.00    -0.203 NA 
HETATM   14  C   UNL     1      -9.320  12.872  68.450  1.00  0.00    -0.147 C  
HETATM   15  C   UNL     1     -10.520  11.923  68.258  1.00  0.00    -0.221 C  
HETATM   16  C   UNL     1     -10.145  10.587  67.584  1.00  0.00    -0.211 C  
HETATM   17  C   UNL     1      -9.285  10.893  66.347  1.00  0.00    -0.193 C  
HETATM   18  C   UNL     1      -8.074  11.734  66.727  1.00  0.00    -0.133 C  
BRANCH  16  19
HETATM   19  C   UNL     1      -9.455   9.610  68.501  1.00  0.00    -0.141 A  
HETATM   20  N   UNL     1      -9.404   9.823  69.824  1.00  0.00    -0.213 NA 
HETATM   21  O   UNL     1      -8.561   8.856  70.334  1.00  0.00    -0.146 OA 
HETATM   22  C   UNL     1      -8.125   8.055  69.325  1.00  0.00    -0.118 A  
HETATM   23  C   UNL     1      -8.721   8.440  68.144  1.00  0.00    -0.143 A  
HETATM   24  C   UNL     1      -8.434   7.708  66.977  1.00  0.00    -0.125 A  
HETATM   25  C   UNL     1      -7.506   6.659  67.064  1.00  0.00    -0.087 A  
HETATM   26  C   UNL     1      -6.904   6.343  68.280  1.00  0.00    -0.071 A  
HETATM   27  C   UNL     1      -7.213   7.014  69.458  1.00  0.00    -0.080 A  
HETATM   28  F   UNL     1      -5.991   5.362  68.313  1.00  0.00    -0.015 F  
ENDBRANCH  16  19
ENDBRANCH  12  13
ENDBRANCH  11  12
ENDBRANCH  10  11
ENDBRANCH   9  10
ENDBRANCH   4   9
BRANCH   6  29
HETATM   29  C   UNL     1      -9.624  19.786  68.479  1.00  0.00    -0.342 C  
HETATM   30  O   UNL     1     -10.198  19.977  69.550  1.00  0.00    -0.256 OA 
HETATM   31  C   UNL     1      -9.942  20.630  67.270  1.00  0.00    -0.452 C  
ENDBRANCH   6  29
ENDBRANCH   2   3
TORSDOF 8
ENDMDL
MODEL      323
REMARK 921   NORMALIZED FREE ENERGY PREDICTED BY IDOCK:   -1.51 KCAL/MOL
REMARK 922        TOTAL FREE ENERGY PREDICTED BY IDOCK:   -3.01 KCAL/MOL
REMARK 923 INTER-LIGAND FREE ENERGY PREDICTED BY IDOCK:   -2.84 KCAL/MOL
REMARK 924 INTRA-LIGAND FREE ENERGY PREDICTED BY IDOCK:   -0.17 KCAL/MOL
REMARK 927      BINDING AFFINITY PREDICTED BY RF-SCORE:    0.00 PKD
ROOT
HETATM    1  C   UNL     1     -11.813  13.497  66.344  1.00  0.00    -0.394 C  
HETATM    2  O   UNL     1     -11.293  14.656  66.978  1.00  0.00    -0.333 OA 
ENDROOT
BRANCH   2   3
HETATM    3  C   UNL     1     -11.514  14.792  68.326  1.00  0.00    -0.317 A  
HETATM    4  C   UNL     1     -11.002  15.961  68.918  1.00  0.00    -0.290 A  
HETATM    5  C   UNL     1     -11.180  16.178  70.286  1.00  0.00    -0.389 A  
HETATM    6  C   UNL     1     -12.391  14.093  70.483  1.00  0.00    -0.434 A  
HETATM    7  C   UNL     1     -12.218  13.872  69.111  1.00  0.00    -0.305 A  
HETATM    8  C   UNL     1     -11.882  15.254  71.064  1.00  0.00    -0.394 A  
BRANCH   4   9
HETATM    9  O   UNL     1     -10.305  16.813  68.101  1.00  0.00    -0.286 OA 
BRANCH   9  10
HETATM   10  C   UNL     1     -10.920  17.218  66.878  1.00  0.00     0.139 C  
BRANCH  10  11
HETATM   11  C   UNL     1     -10.800  18.727  66.637  1.00  0.00    -0.214 C  
BRANCH  11  12
HETATM   12  C   UNL     1      -9.788  19.122  65.546  1.00  0.00     0.549 C  
BRANCH  12  13
HETATM   13  N   UNL     1      -8.530  19.616  66.116  1.00  0.00    -0.353 NA 
HETATM   14  C   UNL     1      -7.524  18.562  66.294  1.00  0.00    -0.257 C  
HETATM   15  C   UNL     1      -6.167  19.177  66.691  1.00  0.00    -0.188 C  
HETATM   16  C   UNL     1      -6.260  20.164  67.873  1.00  0.00    -0.267 C  
HETATM   17  C   UNL     1      -7.420  21.136  67.600  1.00  0.00    -0.057 C  
HETATM   18  C   UNL     1      -8.715  20.373  67.350  1.00  0.00    -0.320 C  
BRANCH  16  19
HETATM   19  C   UNL     1      -6.408  19.500  69.217  1.00  0.00    -0.311 A  
HETATM   20  N   UNL     1      -6.756  20.207  70.302  1.00  0.00    -0.216 NA 
HETATM   21  O   UNL     1      -6.625  19.350  71.375  1.00  0.00     0.556 OA 
HETATM   22  C   UNL     1      -6.218  18.129  70.935  1.00  0.00     0.995 A  
HETATM   23  C   UNL     1      -6.136  18.141  69.559  1.00  0.00    -0.248 A  
HETATM   24  C   UNL     1      -5.771  16.955  68.897  1.00  0.00    -0.144 A  
HETATM   25  C   UNL     1      -5.447  15.834  69.676  1.00  0.00    -0.118 A  
HETATM   26  C   UNL     1      -5.509  15.894  71.067  1.00  0.00     0.032 A  
HETATM   27  C   UNL     1      -5.922  17.037  71.743  1.00  0.00     1.875 A  
HETATM   28  F   UNL     1      -5.152  14.815  71.776  1.00  0.00    -0.134 F  
ENDBRANCH  16  19
ENDBRANCH  12  13
ENDBRANCH  11  12
ENDBRANCH  10  11
ENDBRANCH   9  10
ENDBRANCH   4   9
BRANCH   6  29
HETATM   29  C   UNL     1     -13.122  13.065  71.275  1.00  0.00    -0.179 C  
HETATM   30  O   UNL     1     -13.963  13.423  72.097  1.00  0.00    -0.494 OA 
HETATM   31  C   UNL     1     -12.869  11.601  71.015  1.00  0.00    -0.339 C  
ENDBRANCH   6  29
ENDBRANCH   2   3
TORSDOF 8
ENDMDL
MODEL      324
REMARK 921   NORMALIZED FREE ENERGY PREDICTED BY IDOCK:   -1.03 KCAL/MOL
REMARK 922        TOTAL FREE ENERGY PREDICTED BY IDOCK:   -2.31 KCAL/MOL
REMARK 923 INTER-LIGAND FREE ENERGY PREDICTED BY IDOCK:   -2.89 KCAL/MOL
REMARK 924 INTRA-LIGAND FREE ENERGY PREDICTED BY IDOCK:    0.58 KCAL/MOL
REMARK 927      BINDING AFFINITY PREDICTED BY RF-SCORE:    0.00 PKD
ROOT
HETATM    1  C   UNL     1      -9.959  12.776  69.683  1.00  0.00     1.403 C  
HETATM    2  O   UNL     1      -9.106  13.565  68.866  1.00  0.00     0.028 OA 
ENDROOT
BRANCH   2   3
HETATM    3  C   UNL     1      -9.633  14.065  67.702  1.00  0.00    -0.221 A  
HETATM    4  C   UNL     1      -8.948  15.157  67.138  1.00  0.00    -0.213 A  
HETATM    5  C   UNL     1      -9.417  15.730  65.953  1.00  0.00    -0.377 A  
HETATM    6  C   UNL     1     -11.230  14.130  65.869  1.00  0.00    -0.313 A  
HETATM    7  C   UNL     1     -10.762  13.549  67.055  1.00  0.00    -0.278 A  
HETATM    8  C   UNL     1     -10.546  15.211  65.314  1.00  0.00    -0.432 A  
BRANCH   4   9
HETATM    9  O   UNL     1      -7.862  15.629  67.828  1.00  0.00    -0.130 OA 
BRANCH   9  10
HETATM   10  C   UNL     1      -6.622  14.937  67.677  1.00  0.00    -0.165 C  
BRANCH  10  11
HETATM   11  C   UNL     1      -6.811  13.515  67.136  1.00  0.00     0.329 C  
BRANCH  11  12
HETATM   12  C   UNL     1      -6.243  12.406  68.041  1.00  0.00    -0.082 C  
BRANCH  12  13
HETATM   13  N   UNL     1      -6.557  11.066  67.532  1.00  0.00    -0.065 NA 
HETATM   14  C   UNL     1      -7.976  10.716  67.665  1.00  0.00    -0.106 C  
HETATM   15  C   UNL     1      -8.275   9.398  66.924  1.00  0.00    -0.116 C  
HETATM   16  C   UNL     1      -7.307   8.253  67.289  1.00  0.00    -0.089 C  
HETATM   17  C   UNL     1      -5.870   8.793  67.212  1.00  0.00    -0.043 C  
HETATM   18  C   UNL     1      -5.707  10.022  68.096  1.00  0.00    -0.038 C  
BRANCH  16  19
HETATM   19  C   UNL     1      -7.582   7.620  68.628  1.00  0.00    -0.109 A  
HETATM   20  N   UNL     1      -6.796   6.644  69.104  1.00  0.00    -0.066 NA 
HETATM   21  O   UNL     1      -7.419   6.171  70.241  1.00  0.00    -0.085 OA 
HETATM   22  C   UNL     1      -8.565   6.872  70.456  1.00  0.00    -0.142 A  
HETATM   23  C   UNL     1      -8.684   7.860  69.503  1.00  0.00    -0.134 A  
HETATM   24  C   UNL     1      -9.786   8.732  69.571  1.00  0.00    -0.180 A  
HETATM   25  C   UNL     1     -10.744   8.511  70.573  1.00  0.00    -0.246 A  
HETATM   26  C   UNL     1     -10.591   7.468  71.484  1.00  0.00    -0.212 A  
HETATM   27  C   UNL     1      -9.481   6.628  71.473  1.00  0.00    -0.159 A  
HETATM   28  F   UNL     1     -11.548   7.264  72.399  1.00  0.00    -0.275 F  
ENDBRANCH  16  19
ENDBRANCH  12  13
ENDBRANCH  11  12
ENDBRANCH  10  11
ENDBRANCH   9  10
ENDBRANCH   4   9
BRANCH   6  29
HETATM   29  C   UNL     1     -12.453  13.559  65.241  1.00  0.00    -0.482 C  
HETATM   30  O   UNL     1     -13.316  13.050  65.955  1.00  0.00     0.215 OA 
HETATM   31  C   UNL     1     -12.648  13.668  63.749  1.00  0.00    -0.106 C  
ENDBRANCH   6  29
ENDBRANCH   2   3
TORSDOF 8
ENDMDL
MODEL      325
REMARK 921   NORMALIZED FREE ENERGY PREDICTED BY IDOCK:   -0.95 KCAL/MOL
REMARK 922        TOTAL FREE ENERGY PREDICTED BY IDOCK:   -2.19 KCAL/MOL
REMARK 923 INTER-LIGAND FREE ENERGY PREDICTED BY IDOCK:   -3.76 KCAL/MOL
REMARK 924 INTRA-LIGAND FREE ENERGY PREDICTED BY IDOCK:    1.57 KCAL/MOL
REMARK 927      BINDING AFFINITY PREDICTED BY RF-SCORE:    0.00 PKD
ROOT
HETATM    1  C   UNL     1     -10.495   4.617  65.716  1.00  0.00    -0.255 C  
HETATM    2  O   UNL     1     -11.014   5.921  65.928  1.00  0.00     0.316 OA 
ENDROOT
BRANCH   2   3
HETATM    3  C   UNL     1     -10.465   6.662  66.944  1.00  0.00    -0.279 A  
HETATM    4  C   UNL     1      -9.508   6.002  67.737  1.00  0.00    -0.112 A  
HETATM    5  C   UNL     1      -8.900   6.682  68.795  1.00  0.00    -0.126 A  
HETATM    6  C   UNL     1     -10.166   8.677  68.273  1.00  0.00    -0.237 A  
HETATM    7  C   UNL     1     -10.777   8.000  67.209  1.00  0.00    -0.280 A  
HETATM    8  C   UNL     1      -9.218   8.018  69.055  1.00  0.00    -0.148 A  
BRANCH   4   9
HETATM    9  O   UNL     1      -9.260   4.687  67.440  1.00  0.00    -0.119 OA 
BRANCH   9  10
HETATM   10  C   UNL     1      -7.905   4.239  67.472  1.00  0.00    -0.088 C  
BRANCH  10  11
HETATM   11  C   UNL     1      -7.794   2.711  67.410  1.00  0.00    -0.069 C  
BRANCH  11  12
HETATM   12  C   UNL     1      -8.998   1.959  68.006  1.00  0.00    -0.140 C  
BRANCH  12  13
HETATM   13  N   UNL     1      -9.028   2.042  69.470  1.00  0.00    -0.083 NA 
HETATM   14  C   UNL     1      -9.688   3.256  69.966  1.00  0.00    -0.010 C  
HETATM   15  C   UNL     1      -9.876   3.179  71.494  1.00  0.00    -0.200 C  
HETATM   16  C   UNL     1      -8.586   2.808  72.255  1.00  0.00    -0.085 C  
HETATM   17  C   UNL     1      -7.949   1.592  71.562  1.00  0.00    -0.040 C  
HETATM   18  C   UNL     1      -7.715   1.875  70.084  1.00  0.00    -0.042 C  
BRANCH  16  19
HETATM   19  C   UNL     1      -7.601   3.941  72.383  1.00  0.00    -0.071 A  
HETATM   20  N   UNL     1      -6.300   3.758  72.116  1.00  0.00    -0.014 NA 
HETATM   21  O   UNL     1      -5.663   4.920  72.502  1.00  0.00    -0.008 OA 
HETATM   22  C   UNL     1      -6.581   5.803  72.981  1.00  0.00    -0.069 A  
HETATM   23  C   UNL     1      -7.843   5.264  72.860  1.00  0.00    -0.098 A  
HETATM   24  C   UNL     1      -8.946   6.039  73.262  1.00  0.00    -0.130 A  
HETATM   25  C   UNL     1      -8.700   7.300  73.825  1.00  0.00    -0.216 A  
HETATM   26  C   UNL     1      -7.397   7.775  73.960  1.00  0.00    -0.135 A  
HETATM   27  C   UNL     1      -6.293   7.053  73.518  1.00  0.00    -0.065 A  
HETATM   28  F   UNL     1      -7.201   8.967  74.541  1.00  0.00    -0.209 F  
ENDBRANCH  16  19
ENDBRANCH  12  13
ENDBRANCH  11  12
ENDBRANCH  10  11
ENDBRANCH   9  10
ENDBRANCH   4   9
BRANCH   6  29
HETATM   29  C   UNL     1     -10.559  10.090  68.527  1.00  0.00    -0.215 C  
HETATM   30  O   UNL     1     -10.742  10.467  69.683  1.00  0.00    -0.233 OA 
HETATM   31  C   UNL     1     -10.667  11.055  67.373  1.00  0.00    -0.303 C  
ENDBRANCH   6  29
ENDBRANCH   2   3
TORSDOF 8
ENDMDL
MODEL      326
REMARK 921   NORMALIZED FREE ENERGY PREDICTED BY IDOCK:   -0.93 KCAL/MOL
REMARK 922        TOTAL FREE ENERGY PREDICTED BY IDOCK:   -2.16 KCAL/MOL
REMARK 923 INTER-LIGAND FREE ENERGY PREDICTED BY IDOCK:   -2.49 KCAL/MOL
REMARK 924 INTRA-LIGAND FREE ENERGY PREDICTED BY IDOCK:    0.33 KCAL/MOL
REMARK 927      BINDING AFFINITY PREDICTED BY RF-SCORE:    0.00 PKD
ROOT
HETATM    1  C   UNL     1      -8.859  13.976  70.079  1.00  0.00     1.897 C  
HETATM    2  O   UNL     1      -9.546  13.046  69.255  1.00  0.00     0.452 OA 
ENDROOT
BRANCH   2   3
HETATM    3  C   UNL     1      -9.816  13.427  67.964  1.00  0.00    -0.229 A  
HETATM    4  C   UNL     1      -8.790  14.127  67.302  1.00  0.00    -0.218 A  
HETATM    5  C   UNL     1      -8.981  14.553  65.986  1.00  0.00     0.172 A  
HETATM    6  C   UNL     1     -11.195  13.576  65.967  1.00  0.00    -0.305 A  
HETATM    7  C   UNL     1     -11.007  13.143  67.286  1.00  0.00    -0.288 A  
HETATM    8  C   UNL     1     -10.174  14.268  65.316  1.00  0.00    -0.408 A  
BRANCH   4   9
HETATM    9  O   UNL     1      -7.656  14.391  68.026  1.00  0.00    -0.111 OA 
BRANCH   9  10
HETATM   10  C   UNL     1      -6.459  13.697  67.669  1.00  0.00    -0.153 C  
BRANCH  10  11
HETATM   11  C   UNL     1      -6.566  12.188  67.913  1.00  0.00    -0.085 C  
BRANCH  11  12
HETATM   12  C   UNL     1      -6.411  11.323  66.648  1.00  0.00    -0.128 C  
BRANCH  12  13
HETATM   13  N   UNL     1      -7.315  10.168  66.658  1.00  0.00    -0.103 NA 
HETATM   14  C   UNL     1      -8.545  10.404  67.424  1.00  0.00    -0.125 C  
HETATM   15  C   UNL     1      -9.537   9.241  67.217  1.00  0.00    -0.200 C  
HETATM   16  C   UNL     1      -8.910   7.850  67.445  1.00  0.00    -0.129 C  
HETATM   17  C   UNL     1      -7.581   7.786  66.675  1.00  0.00    -0.097 C  
HETATM   18  C   UNL     1      -6.665   8.932  67.084  1.00  0.00    -0.066 C  
BRANCH  16  19
HETATM   19  C   UNL     1      -8.718   7.494  68.897  1.00  0.00    -0.132 A  
HETATM   20  N   UNL     1      -8.667   8.446  69.840  1.00  0.00    -0.134 NA 
HETATM   21  O   UNL     1      -8.307   7.806  71.009  1.00  0.00    -0.110 OA 
HETATM   22  C   UNL     1      -8.161   6.475  70.772  1.00  0.00    -0.125 A  
HETATM   23  C   UNL     1      -8.484   6.204  69.460  1.00  0.00    -0.120 A  
HETATM   24  C   UNL     1      -8.439   4.869  69.018  1.00  0.00    -0.086 A  
HETATM   25  C   UNL     1      -8.007   3.886  69.922  1.00  0.00    -0.054 A  
HETATM   26  C   UNL     1      -7.653   4.227  71.226  1.00  0.00    -0.060 A  
HETATM   27  C   UNL     1      -7.743   5.531  71.704  1.00  0.00    -0.107 A  
HETATM   28  F   UNL     1      -7.205   3.266  72.045  1.00  0.00    -0.040 F  
ENDBRANCH  16  19
ENDBRANCH  12  13
ENDBRANCH  11  12
ENDBRANCH  10  11
ENDBRANCH   9  10
ENDBRANCH   4   9
BRANCH   6  29
HETATM   29  C   UNL     1     -12.494  13.273  65.306  1.00  0.00    -0.489 C  
HETATM   30  O   UNL     1     -13.404  14.099  65.357  1.00  0.00    -0.705 OA 
HETATM   31  C   UNL     1     -12.656  11.990  64.529  1.00  0.00    -0.209 C  
ENDBRANCH   6  29
ENDBRANCH   2   3
TORSDOF 8
ENDMDL
MODEL      327
REMARK 921   NORMALIZED FREE ENERGY PREDICTED BY IDOCK:   -0.51 KCAL/MOL
REMARK 922        TOTAL FREE ENERGY PREDICTED BY IDOCK:   -1.54 KCAL/MOL
REMARK 923 INTER-LIGAND FREE ENERGY PREDICTED BY IDOCK:   -3.31 KCAL/MOL
REMARK 924 INTRA-LIGAND FREE ENERGY PREDICTED BY IDOCK:    1.76 KCAL/MOL
REMARK 927      BINDING AFFINITY PREDICTED BY RF-SCORE:    0.00 PKD
ROOT
HETATM    1  C   UNL     1     -12.976   6.999  70.376  1.00  0.00     0.625 C  
HETATM    2  O   UNL     1     -11.729   7.674  70.460  1.00  0.00    -0.237 OA 
ENDROOT
BRANCH   2   3
HETATM    3  C   UNL     1     -11.133   8.049  69.282  1.00  0.00     0.146 A  
HETATM    4  C   UNL     1     -10.783   7.001  68.410  1.00  0.00    -0.179 A  
HETATM    5  C   UNL     1     -10.169   7.293  67.190  1.00  0.00    -0.339 A  
HETATM    6  C   UNL     1     -10.267   9.661  67.680  1.00  0.00    -0.267 A  
HETATM    7  C   UNL     1     -10.886   9.373  68.904  1.00  0.00    -0.151 A  
HETATM    8  C   UNL     1      -9.924   8.618  66.820  1.00  0.00    -0.343 A  
BRANCH   4   9
HETATM    9  O   UNL     1     -11.032   5.725  68.846  1.00  0.00    -0.286 OA 
BRANCH   9  10
HETATM   10  C   UNL     1      -9.952   4.994  69.425  1.00  0.00    -0.220 C  
BRANCH  10  11
HETATM   11  C   UNL     1      -9.706   5.379  70.889  1.00  0.00    -0.237 C  
BRANCH  11  12
HETATM   12  C   UNL     1      -8.323   4.976  71.432  1.00  0.00    -0.118 C  
BRANCH  12  13
HETATM   13  N   UNL     1      -7.313   4.911  70.371  1.00  0.00    -0.053 NA 
HETATM   14  C   UNL     1      -7.742   5.558  69.126  1.00  0.00    -0.087 C  
HETATM   15  C   UNL     1      -6.566   5.644  68.133  1.00  0.00    -0.049 C  
HETATM   16  C   UNL     1      -5.837   4.301  67.925  1.00  0.00    -0.023 C  
HETATM   17  C   UNL     1      -5.548   3.689  69.306  1.00  0.00    -0.017 C  
HETATM   18  C   UNL     1      -6.831   3.557  70.116  1.00  0.00    -0.034 C  
BRANCH  16  19
HETATM   19  C   UNL     1      -6.576   3.331  67.041  1.00  0.00    -0.037 A  
HETATM   20  N   UNL     1      -6.174   2.056  66.926  1.00  0.00    -0.023 NA 
HETATM   21  O   UNL     1      -6.941   1.502  65.922  1.00  0.00    -0.036 OA 
HETATM   22  C   UNL     1      -7.813   2.434  65.450  1.00  0.00    -0.078 A  
HETATM   23  C   UNL     1      -7.680   3.597  66.176  1.00  0.00    -0.088 A  
HETATM   24  C   UNL     1      -8.525   4.680  65.873  1.00  0.00    -0.116 A  
HETATM   25  C   UNL     1      -9.421   4.541  64.802  1.00  0.00    -0.126 A  
HETATM   26  C   UNL     1      -9.482   3.353  64.076  1.00  0.00    -0.136 A  
HETATM   27  C   UNL     1      -8.697   2.248  64.393  1.00  0.00    -0.100 A  
HETATM   28  F   UNL     1     -10.321   3.275  63.034  1.00  0.00    -0.120 F  
ENDBRANCH  16  19
ENDBRANCH  12  13
ENDBRANCH  11  12
ENDBRANCH  10  11
ENDBRANCH   9  10
ENDBRANCH   4   9
BRANCH   6  29
HETATM   29  C   UNL     1     -10.001  11.086  67.344  1.00  0.00    -0.182 C  
HETATM   30  O   UNL     1     -10.875  11.749  66.789  1.00  0.00    -0.245 OA 
HETATM   31  C   UNL     1      -8.690  11.717  67.745  1.00  0.00    -0.152 C  
ENDBRANCH   6  29
ENDBRANCH   2   3
TORSDOF 8
ENDMDL
MODEL      328
REMARK 921   NORMALIZED FREE ENERGY PREDICTED BY IDOCK:   -0.01 KCAL/MOL
REMARK 922        TOTAL FREE ENERGY PREDICTED BY IDOCK:   -0.81 KCAL/MOL
REMARK 923 INTER-LIGAND FREE ENERGY PREDICTED BY IDOCK:   -2.91 KCAL/MOL
REMARK 924 INTRA-LIGAND FREE ENERGY PREDICTED BY IDOCK:    2.10 KCAL/MOL
REMARK 927      BINDING AFFINITY PREDICTED BY RF-SCORE:    0.00 PKD
ROOT
HETATM    1  C   UNL     1     -11.861  11.423  66.397  1.00  0.00     0.600 C  
HETATM    2  O   UNL     1     -11.492  10.052  66.392  1.00  0.00     0.548 OA 
ENDROOT
BRANCH   2   3
HETATM    3  C   UNL     1     -10.944   9.542  67.542  1.00  0.00    -0.054 A  
HETATM    4  C   UNL     1     -11.363  10.144  68.743  1.00  0.00    -0.115 A  
HETATM    5  C   UNL     1     -10.853   9.687  69.960  1.00  0.00    -0.302 A  
HETATM    6  C   UNL     1      -9.527   8.023  68.807  1.00  0.00    -0.147 A  
HETATM    7  C   UNL     1     -10.039   8.475  67.584  1.00  0.00    -0.271 A  
HETATM    8  C   UNL     1      -9.947   8.623  69.994  1.00  0.00    -0.191 A  
BRANCH   4   9
HETATM    9  O   UNL     1     -12.235  11.196  68.635  1.00  0.00    -0.582 OA 
BRANCH   9  10
HETATM   10  C   UNL     1     -12.244  12.166  69.682  1.00  0.00    -0.120 C  
BRANCH  10  11
HETATM   11  C   UNL     1     -11.653  13.509  69.238  1.00  0.00    -0.369 C  
BRANCH  11  12
HETATM   12  C   UNL     1     -10.240  13.417  68.632  1.00  0.00    -0.182 C  
BRANCH  12  13
HETATM   13  N   UNL     1     -10.123  14.189  67.391  1.00  0.00    -0.239 NA 
HETATM   14  C   UNL     1      -8.924  15.035  67.350  1.00  0.00    -0.186 C  
HETATM   15  C   UNL     1      -8.749  15.649  65.946  1.00  0.00     0.092 C  
HETATM   16  C   UNL     1     -10.022  16.335  65.412  1.00  0.00    -0.097 C  
HETATM   17  C   UNL     1     -11.210  15.380  65.619  1.00  0.00    -0.208 C  
HETATM   18  C   UNL     1     -11.319  14.965  67.080  1.00  0.00    -0.342 C  
BRANCH  16  19
HETATM   19  C   UNL     1     -10.294  17.685  66.022  1.00  0.00    -0.304 A  
HETATM   20  N   UNL     1     -10.324  18.792  65.265  1.00  0.00    -0.121 NA 
HETATM   21  O   UNL     1     -10.413  19.854  66.142  1.00  0.00    -0.470 OA 
HETATM   22  C   UNL     1     -10.455  19.385  67.419  1.00  0.00    -0.466 A  
HETATM   23  C   UNL     1     -10.459  18.007  67.403  1.00  0.00    -0.399 A  
HETATM   24  C   UNL     1     -10.542  17.321  68.627  1.00  0.00    -0.329 A  
HETATM   25  C   UNL     1     -10.555  18.075  69.810  1.00  0.00     0.904 A  
HETATM   26  C   UNL     1     -10.506  19.467  69.766  1.00  0.00     0.736 A  
HETATM   27  C   UNL     1     -10.481  20.171  68.566  1.00  0.00    -0.264 A  
HETATM   28  F   UNL     1     -10.477  20.150  70.918  1.00  0.00     0.287 F  
ENDBRANCH  16  19
ENDBRANCH  12  13
ENDBRANCH  11  12
ENDBRANCH  10  11
ENDBRANCH   9  10
ENDBRANCH   4   9
BRANCH   6  29
HETATM   29  C   UNL     1      -8.544   6.906  68.789  1.00  0.00    -0.124 C  
HETATM   30  O   UNL     1      -7.433   7.071  69.290  1.00  0.00    -0.089 OA 
HETATM   31  C   UNL     1      -8.942   5.568  68.217  1.00  0.00    -0.109 C  
ENDBRANCH   6  29
ENDBRANCH   2   3
TORSDOF 8
ENDMDL
MODEL      329
REMARK 921   NORMALIZED FREE ENERGY PREDICTED BY IDOCK:    0.49 KCAL/MOL
REMARK 922        TOTAL FREE ENERGY PREDICTED BY IDOCK:   -0.08 KCAL/MOL
REMARK 923 INTER-LIGAND FREE ENERGY PREDICTED BY IDOCK:   -3.67 KCAL/MOL
REMARK 924 INTRA-LIGAND FREE ENERGY PREDICTED BY IDOCK:    3.59 KCAL/MOL
REMARK 927      BINDING AFFINITY PREDICTED BY RF-SCORE:    0.00 PKD
ROOT
HETATM    1  C   UNL     1      -9.482   2.216  64.421  1.00  0.00    -0.128 C  
HETATM    2  O   UNL     1      -8.628   2.325  65.550  1.00  0.00    -0.100 OA 
ENDROOT
BRANCH   2   3
HETATM    3  C   UNL     1      -7.725   3.359  65.562  1.00  0.00    -0.081 A  
HETATM    4  C   UNL     1      -7.479   3.945  66.817  1.00  0.00    -0.076 A  
HETATM    5  C   UNL     1      -6.575   5.005  66.919  1.00  0.00    -0.050 A  
HETATM    6  C   UNL     1      -6.140   4.894  64.542  1.00  0.00    -0.022 A  
HETATM    7  C   UNL     1      -7.043   3.829  64.434  1.00  0.00    -0.054 A  
HETATM    8  C   UNL     1      -5.899   5.471  65.789  1.00  0.00    -0.021 A  
BRANCH   4   9
HETATM    9  O   UNL     1      -8.192   3.454  67.879  1.00  0.00    -0.078 OA 
BRANCH   9  10
HETATM   10  C   UNL     1      -8.309   4.274  69.042  1.00  0.00    -0.078 C  
BRANCH  10  11
HETATM   11  C   UNL     1      -7.165   5.288  69.157  1.00  0.00    -0.058 C  
BRANCH  11  12
HETATM   12  C   UNL     1      -7.417   6.622  68.430  1.00  0.00    -0.095 C  
BRANCH  12  13
HETATM   13  N   UNL     1      -8.848   6.921  68.312  1.00  0.00    -0.123 NA 
HETATM   14  C   UNL     1      -9.134   8.008  67.367  1.00  0.00    -0.134 C  
HETATM   15  C   UNL     1     -10.653   8.126  67.128  1.00  0.00    -0.355 C  
HETATM   16  C   UNL     1     -11.476   8.192  68.431  1.00  0.00     1.115 C  
HETATM   17  C   UNL     1     -10.996   7.068  69.364  1.00  0.00    -0.232 C  
HETATM   18  C   UNL     1      -9.494   7.166  69.597  1.00  0.00    -0.152 C  
BRANCH  16  19
HETATM   19  C   UNL     1     -11.430   9.531  69.120  1.00  0.00     0.246 A  
HETATM   20  N   UNL     1     -11.454   9.620  70.458  1.00  0.00    -0.272 NA 
HETATM   21  O   UNL     1     -11.583  10.963  70.749  1.00  0.00    -0.312 OA 
HETATM   22  C   UNL     1     -11.616  11.678  69.592  1.00  0.00    -0.330 A  
HETATM   23  C   UNL     1     -11.446  10.826  68.522  1.00  0.00    -0.362 A  
HETATM   24  C   UNL     1     -11.408  11.374  67.226  1.00  0.00    -0.347 A  
HETATM   25  C   UNL     1     -11.606  12.756  67.085  1.00  0.00    -0.426 A  
HETATM   26  C   UNL     1     -11.815  13.561  68.203  1.00  0.00    -0.365 A  
HETATM   27  C   UNL     1     -11.800  13.053  69.498  1.00  0.00    -0.385 A  
HETATM   28  F   UNL     1     -12.042  14.869  68.023  1.00  0.00    -0.339 F  
ENDBRANCH  16  19
ENDBRANCH  12  13
ENDBRANCH  11  12
ENDBRANCH  10  11
ENDBRANCH   9  10
ENDBRANCH   4   9
BRANCH   6  29
HETATM   29  C   UNL     1      -5.465   5.373  63.304  1.00  0.00    -0.013 C  
HETATM   30  O   UNL     1      -5.240   4.578  62.393  1.00  0.00    -0.008 OA 
HETATM   31  C   UNL     1      -5.126   6.835  63.155  1.00  0.00    -0.030 C  
ENDBRANCH   6  29
ENDBRANCH   2   3
TORSDOF 8
ENDMDL
MODEL      330
REMARK 921   NORMALIZED FREE ENERGY PREDICTED BY IDOCK:    0.72 KCAL/MOL
REMARK 922        TOTAL FREE ENERGY PREDICTED BY IDOCK:    0.26 KCAL/MOL
REMARK 923 INTER-LIGAND FREE ENERGY PREDICTED BY IDOCK:   -3.64 KCAL/MOL
REMARK 924 INTRA-LIGAND FREE ENERGY PREDICTED BY IDOCK:    3.89 KCAL/MOL
REMARK 927      BINDING AFFINITY PREDICTED BY RF-SCORE:    0.00 PKD
ROOT
HETATM    1  C   UNL     1      -9.305  13.211  69.121  1.00  0.00     0.629 C  
HETATM    2  O   UNL     1      -8.530  13.818  68.098  1.00  0.00    -0.157 OA 
ENDROOT
BRANCH   2   3
HETATM    3  C   UNL     1      -9.204  14.491  67.110  1.00  0.00    -0.223 A  
HETATM    4  C   UNL     1      -8.839  15.837  66.924  1.00  0.00    -0.245 A  
HETATM    5  C   UNL     1      -9.477  16.597  65.941  1.00  0.00    -0.218 A  
HETATM    6  C   UNL     1     -10.825  14.690  65.308  1.00  0.00    -0.387 A  
HETATM    7  C   UNL     1     -10.185  13.922  66.290  1.00  0.00    -0.299 A  
HETATM    8  C   UNL     1     -10.457  16.023  65.128  1.00  0.00    -0.331 A  
BRANCH   4   9
HETATM    9  O   UNL     1      -7.886  16.342  67.771  1.00  0.00    -0.138 OA 
BRANCH   9  10
HETATM   10  C   UNL     1      -6.605  15.712  67.786  1.00  0.00    -0.161 C  
BRANCH  10  11
HETATM   11  C   UNL     1      -6.564  14.454  66.910  1.00  0.00     1.293 C  
BRANCH  11  12
HETATM   12  C   UNL     1      -6.261  13.152  67.675  1.00  0.00    -0.153 C  
BRANCH  12  13
HETATM   13  N   UNL     1      -6.294  11.978  66.797  1.00  0.00    -0.113 NA 
HETATM   14  C   UNL     1      -7.609  11.327  66.754  1.00  0.00    -0.151 C  
HETATM   15  C   UNL     1      -7.634  10.241  65.660  1.00  0.00    -0.148 C  
HETATM   16  C   UNL     1      -6.447   9.259  65.739  1.00  0.00    -0.068 C  
HETATM   17  C   UNL     1      -5.153  10.076  65.890  1.00  0.00    -0.041 C  
HETATM   18  C   UNL     1      -5.242  11.010  67.089  1.00  0.00    -0.048 C  
BRANCH  16  19
HETATM   19  C   UNL     1      -6.574   8.230  66.832  1.00  0.00    -0.057 A  
HETATM   20  N   UNL     1      -5.512   7.873  67.570  1.00  0.00    -0.035 NA 
HETATM   21  O   UNL     1      -5.923   6.802  68.338  1.00  0.00    -0.023 OA 
HETATM   22  C   UNL     1      -7.230   6.530  68.075  1.00  0.00    -0.088 A  
HETATM   23  C   UNL     1      -7.721   7.455  67.179  1.00  0.00    -0.115 A  
HETATM   24  C   UNL     1      -9.074   7.376  66.804  1.00  0.00    -0.178 A  
HETATM   25  C   UNL     1      -9.843   6.319  67.316  1.00  0.00    -0.165 A  
HETATM   26  C   UNL     1      -9.280   5.389  68.188  1.00  0.00    -0.111 A  
HETATM   27  C   UNL     1      -7.960   5.479  68.618  1.00  0.00    -0.092 A  
HETATM   28  F   UNL     1     -10.036   4.371  68.622  1.00  0.00    -0.225 F  
ENDBRANCH  16  19
ENDBRANCH  12  13
ENDBRANCH  11  12
ENDBRANCH  10  11
ENDBRANCH   9  10
ENDBRANCH   4   9
BRANCH   6  29
HETATM   29  C   UNL     1     -11.882  14.041  64.485  1.00  0.00    -0.434 C  
HETATM   30  O   UNL     1     -12.356  14.646  63.525  1.00  0.00    -0.599 OA 
HETATM   31  C   UNL     1     -12.313  12.630  64.800  1.00  0.00    -0.556 C  
ENDBRANCH   6  29
ENDBRANCH   2   3
TORSDOF 8
ENDMDL
MODEL      331
REMARK 921   NORMALIZED FREE ENERGY PREDICTED BY IDOCK:    1.18 KCAL/MOL
REMARK 922        TOTAL FREE ENERGY PREDICTED BY IDOCK:    0.94 KCAL/MOL
REMARK 923 INTER-LIGAND FREE ENERGY PREDICTED BY IDOCK:   -0.98 KCAL/MOL
REMARK 924 INTRA-LIGAND FREE ENERGY PREDICTED BY IDOCK:    1.92 KCAL/MOL
REMARK 927      BINDING AFFINITY PREDICTED BY RF-SCORE:    0.00 PKD
ROOT
HETATM    1  C   UNL     1     -12.347  12.751  71.925  1.00  0.00     0.501 C  
HETATM    2  O   UNL     1     -12.737  12.013  70.777  1.00  0.00    -0.249 OA 
ENDROOT
BRANCH   2   3
HETATM    3  C   UNL     1     -12.011  12.204  69.627  1.00  0.00    -0.284 A  
HETATM    4  C   UNL     1     -12.428  13.269  68.808  1.00  0.00     0.347 A  
HETATM    5  C   UNL     1     -11.746  13.533  67.618  1.00  0.00    -0.398 A  
HETATM    6  C   UNL     1     -10.225  11.703  68.056  1.00  0.00    -0.202 A  
HETATM    7  C   UNL     1     -10.903  11.436  69.252  1.00  0.00    -0.242 A  
HETATM    8  C   UNL     1     -10.641  12.761  67.248  1.00  0.00    -0.245 A  
BRANCH   4   9
HETATM    9  O   UNL     1     -13.531  13.971  69.220  1.00  0.00     1.889 OA 
BRANCH   9  10
HETATM   10  C   UNL     1     -13.469  14.631  70.484  1.00  0.00     0.094 C  
BRANCH  10  11
HETATM   11  C   UNL     1     -12.833  16.023  70.385  1.00  0.00     0.430 C  
BRANCH  11  12
HETATM   12  C   UNL     1     -11.294  16.019  70.323  1.00  0.00    -0.382 C  
BRANCH  12  13
HETATM   13  N   UNL     1     -10.784  16.910  69.276  1.00  0.00    -0.325 NA 
HETATM   14  C   UNL     1     -10.616  16.240  67.980  1.00  0.00    -0.308 C  
HETATM   15  C   UNL     1     -10.286  17.271  66.882  1.00  0.00    -0.322 C  
HETATM   16  C   UNL     1      -9.127  18.219  67.257  1.00  0.00    -0.256 C  
HETATM   17  C   UNL     1      -9.382  18.758  68.674  1.00  0.00    -0.392 C  
HETATM   18  C   UNL     1      -9.564  17.613  69.661  1.00  0.00     0.564 C  
BRANCH  16  19
HETATM   19  C   UNL     1      -7.762  17.592  67.148  1.00  0.00    -0.205 A  
HETATM   20  N   UNL     1      -6.813  18.136  66.371  1.00  0.00    -0.210 NA 
HETATM   21  O   UNL     1      -5.769  17.233  66.355  1.00  0.00    -0.191 OA 
HETATM   22  C   UNL     1      -6.082  16.162  67.132  1.00  0.00    -0.066 A  
HETATM   23  C   UNL     1      -7.309  16.368  67.725  1.00  0.00    -0.153 A  
HETATM   24  C   UNL     1      -7.802  15.390  68.608  1.00  0.00    -0.142 A  
HETATM   25  C   UNL     1      -7.046  14.223  68.793  1.00  0.00    -0.105 A  
HETATM   26  C   UNL     1      -5.830  14.052  68.133  1.00  0.00    -0.125 A  
HETATM   27  C   UNL     1      -5.294  15.028  67.300  1.00  0.00     0.485 A  
HETATM   28  F   UNL     1      -5.159  12.905  68.303  1.00  0.00    -0.057 F  
ENDBRANCH  16  19
ENDBRANCH  12  13
ENDBRANCH  11  12
ENDBRANCH  10  11
ENDBRANCH   9  10
ENDBRANCH   4   9
BRANCH   6  29
HETATM   29  C   UNL     1      -9.072  10.835  67.692  1.00  0.00    -0.147 C  
HETATM   30  O   UNL     1      -8.969   9.722  68.204  1.00  0.00    -0.120 OA 
HETATM   31  C   UNL     1      -8.081  11.303  66.655  1.00  0.00    -0.160 C  
ENDBRANCH   6  29
ENDBRANCH   2   3
TORSDOF 8
ENDMDL
MODEL      332
REMARK 921   NORMALIZED FREE ENERGY PREDICTED BY IDOCK:    1.31 KCAL/MOL
REMARK 922        TOTAL FREE ENERGY PREDICTED BY IDOCK:    1.12 KCAL/MOL
REMARK 923 INTER-LIGAND FREE ENERGY PREDICTED BY IDOCK:   -1.46 KCAL/MOL
REMARK 924 INTRA-LIGAND FREE ENERGY PREDICTED BY IDOCK:    2.58 KCAL/MOL
REMARK 927      BINDING AFFINITY PREDICTED BY RF-SCORE:    0.00 PKD
ROOT
HETATM    1  C   UNL     1     -10.731  10.361  65.626  1.00  0.00     0.075 C  
HETATM    2  O   UNL     1     -11.120  11.491  66.393  1.00  0.00    -0.296 OA 
ENDROOT
BRANCH   2   3
HETATM    3  C   UNL     1     -10.354  12.624  66.282  1.00  0.00    -0.252 A  
HETATM    4  C   UNL     1      -8.989  12.476  66.591  1.00  0.00    -0.174 A  
HETATM    5  C   UNL     1      -8.138  13.579  66.506  1.00  0.00     0.692 A  
HETATM    6  C   UNL     1      -9.979  14.975  65.787  1.00  0.00    -0.376 A  
HETATM    7  C   UNL     1     -10.837  13.870  65.867  1.00  0.00    -0.287 A  
HETATM    8  C   UNL     1      -8.627  14.821  66.093  1.00  0.00     0.386 A  
BRANCH   4   9
HETATM    9  O   UNL     1      -8.582  11.235  67.009  1.00  0.00    -0.139 OA 
BRANCH   9  10
HETATM   10  C   UNL     1      -7.488  11.165  67.925  1.00  0.00    -0.094 C  
BRANCH  10  11
HETATM   11  C   UNL     1      -7.943  11.275  69.385  1.00  0.00     0.179 C  
BRANCH  11  12
HETATM   12  C   UNL     1      -6.797  11.436  70.401  1.00  0.00     0.740 C  
BRANCH  12  13
HETATM   13  N   UNL     1      -6.179  12.764  70.326  1.00  0.00    -0.055 NA 
HETATM   14  C   UNL     1      -6.751  13.722  71.279  1.00  0.00     1.535 C  
HETATM   15  C   UNL     1      -5.921  15.021  71.298  1.00  0.00     0.245 C  
HETATM   16  C   UNL     1      -5.662  15.607  69.895  1.00  0.00    -0.145 C  
HETATM   17  C   UNL     1      -5.173  14.472  68.980  1.00  0.00    -0.089 C  
HETATM   18  C   UNL     1      -6.165  13.317  68.975  1.00  0.00    -0.093 C  
BRANCH  16  19
HETATM   19  C   UNL     1      -6.849  16.316  69.297  1.00  0.00    -0.211 A  
HETATM   20  N   UNL     1      -7.982  15.654  69.021  1.00  0.00    -0.190 NA 
HETATM   21  O   UNL     1      -8.784  16.539  68.330  1.00  0.00    -0.196 OA 
HETATM   22  C   UNL     1      -8.143  17.733  68.209  1.00  0.00    -0.283 A  
HETATM   23  C   UNL     1      -6.937  17.676  68.872  1.00  0.00    -0.251 A  
HETATM   24  C   UNL     1      -6.132  18.829  68.905  1.00  0.00    -0.239 A  
HETATM   25  C   UNL     1      -6.571  19.964  68.206  1.00  0.00    -0.312 A  
HETATM   26  C   UNL     1      -7.783  19.949  67.517  1.00  0.00    -0.287 A  
HETATM   27  C   UNL     1      -8.624  18.840  67.518  1.00  0.00    -0.292 A  
HETATM   28  F   UNL     1      -8.147  21.038  66.828  1.00  0.00    -0.204 F  
ENDBRANCH  16  19
ENDBRANCH  12  13
ENDBRANCH  11  12
ENDBRANCH  10  11
ENDBRANCH   9  10
ENDBRANCH   4   9
BRANCH   6  29
HETATM   29  C   UNL     1     -10.553  16.283  65.370  1.00  0.00    -0.352 C  
HETATM   30  O   UNL     1     -10.082  17.323  65.827  1.00  0.00    -0.533 OA 
HETATM   31  C   UNL     1     -11.661  16.321  64.346  1.00  0.00     0.039 C  
ENDBRANCH   6  29
ENDBRANCH   2   3
TORSDOF 8
ENDMDL
MODEL      333
REMARK 921   NORMALIZED FREE ENERGY PREDICTED BY IDOCK:    1.46 KCAL/MOL
REMARK 922        TOTAL FREE ENERGY PREDICTED BY IDOCK:    1.35 KCAL/MOL
REMARK 923 INTER-LIGAND FREE ENERGY PREDICTED BY IDOCK:    0.28 KCAL/MOL
REMARK 924 INTRA-LIGAND FREE ENERGY PREDICTED BY IDOCK:    1.07 KCAL/MOL
REMARK 927      BINDING AFFINITY PREDICTED BY RF-SCORE:    0.00 PKD
ROOT
HETATM    1  C   UNL     1     -12.137  10.045  67.291  1.00  0.00     3.643 C  
HETATM    2  O   UNL     1     -11.405   8.828  67.305  1.00  0.00     0.497 OA 
ENDROOT
BRANCH   2   3
HETATM    3  C   UNL     1     -10.123   8.867  67.792  1.00  0.00    -0.210 A  
HETATM    4  C   UNL     1      -9.521   7.620  68.038  1.00  0.00    -0.143 A  
HETATM    5  C   UNL     1      -8.217   7.568  68.537  1.00  0.00    -0.125 A  
HETATM    6  C   UNL     1      -8.093   9.985  68.530  1.00  0.00    -0.103 A  
HETATM    7  C   UNL     1      -9.399  10.042  68.026  1.00  0.00    -0.139 A  
HETATM    8  C   UNL     1      -7.501   8.745  68.771  1.00  0.00    -0.084 A  
BRANCH   4   9
HETATM    9  O   UNL     1     -10.287   6.507  67.808  1.00  0.00    -0.152 OA 
BRANCH   9  10
HETATM   10  C   UNL     1     -10.795   5.800  68.940  1.00  0.00    -0.235 C  
BRANCH  10  11
HETATM   11  C   UNL     1     -11.674   6.683  69.832  1.00  0.00    -0.333 C  
BRANCH  11  12
HETATM   12  C   UNL     1     -10.895   7.556  70.834  1.00  0.00    -0.240 C  
BRANCH  12  13
HETATM   13  N   UNL     1     -10.695   6.874  72.117  1.00  0.00    -0.215 NA 
HETATM   14  C   UNL     1      -9.345   7.057  72.664  1.00  0.00    -0.138 C  
HETATM   15  C   UNL     1      -9.268   6.503  74.100  1.00  0.00    -0.196 C  
HETATM   16  C   UNL     1      -9.812   5.065  74.235  1.00  0.00    -0.197 C  
HETATM   17  C   UNL     1     -11.175   4.996  73.526  1.00  0.00    -0.341 C  
HETATM   18  C   UNL     1     -11.055   5.460  72.081  1.00  0.00    -0.168 C  
BRANCH  16  19
HETATM   19  C   UNL     1      -8.875   4.004  73.722  1.00  0.00    -0.093 A  
HETATM   20  N   UNL     1      -8.269   3.152  74.563  1.00  0.00    -0.068 NA 
HETATM   21  O   UNL     1      -7.359   2.446  73.804  1.00  0.00    -0.035 OA 
HETATM   22  C   UNL     1      -7.431   2.858  72.509  1.00  0.00    -0.048 A  
HETATM   23  C   UNL     1      -8.432   3.796  72.381  1.00  0.00    -0.093 A  
HETATM   24  C   UNL     1      -8.701   4.323  71.105  1.00  0.00    -0.134 A  
HETATM   25  C   UNL     1      -7.892   3.911  70.035  1.00  0.00    -0.051 A  
HETATM   26  C   UNL     1      -6.866   2.990  70.234  1.00  0.00    -0.033 A  
HETATM   27  C   UNL     1      -6.617   2.412  71.474  1.00  0.00    -0.019 A  
HETATM   28  F   UNL     1      -6.089   2.655  69.195  1.00  0.00    -0.022 F  
ENDBRANCH  16  19
ENDBRANCH  12  13
ENDBRANCH  11  12
ENDBRANCH  10  11
ENDBRANCH   9  10
ENDBRANCH   4   9
BRANCH   6  29
HETATM   29  C   UNL     1      -7.382  11.267  68.789  1.00  0.00    -0.109 C  
HETATM   30  O   UNL     1      -7.533  12.208  68.012  1.00  0.00    -0.098 OA 
HETATM   31  C   UNL     1      -6.539  11.416  70.031  1.00  0.00    -0.033 C  
ENDBRANCH   6  29
ENDBRANCH   2   3
TORSDOF 8
ENDMDL
MODEL      334
REMARK 921   NORMALIZED FREE ENERGY PREDICTED BY IDOCK:    3.38 KCAL/MOL
REMARK 922        TOTAL FREE ENERGY PREDICTED BY IDOCK:    4.17 KCAL/MOL
REMARK 923 INTER-LIGAND FREE ENERGY PREDICTED BY IDOCK:   -2.32 KCAL/MOL
REMARK 924 INTRA-LIGAND FREE ENERGY PREDICTED BY IDOCK:    6.50 KCAL/MOL
REMARK 927      BINDING AFFINITY PREDICTED BY RF-SCORE:    0.00 PKD
ROOT
HETATM    1  C   UNL     1      -9.546  13.283  68.359  1.00  0.00    -0.185 C  
HETATM    2  O   UNL     1     -10.583  12.475  67.821  1.00  0.00    -0.212 OA 
ENDROOT
BRANCH   2   3
HETATM    3  C   UNL     1     -10.215  11.312  67.193  1.00  0.00    -0.201 A  
HETATM    4  C   UNL     1      -9.185  11.427  66.241  1.00  0.00    -0.208 A  
HETATM    5  C   UNL     1      -8.750  10.292  65.553  1.00  0.00    -0.176 A  
HETATM    6  C   UNL     1     -10.336   8.922  66.762  1.00  0.00    -0.317 A  
HETATM    7  C   UNL     1     -10.774  10.056  67.458  1.00  0.00    -0.339 A  
HETATM    8  C   UNL     1      -9.314   9.042  65.821  1.00  0.00    -0.302 A  
BRANCH   4   9
HETATM    9  O   UNL     1      -8.693  12.685  66.012  1.00  0.00     0.183 OA 
BRANCH   9  10
HETATM   10  C   UNL     1      -7.879  13.278  67.025  1.00  0.00     0.068 C  
BRANCH  10  11
HETATM   11  C   UNL     1      -7.125  12.231  67.854  1.00  0.00    -0.105 C  
BRANCH  11  12
HETATM   12  C   UNL     1      -6.834  10.915  67.109  1.00  0.00    -0.093 C  
BRANCH  12  13
HETATM   13  N   UNL     1      -6.277   9.891  67.999  1.00  0.00    -0.054 NA 
HETATM   14  C   UNL     1      -7.050   8.643  67.997  1.00  0.00    -0.082 C  
HETATM   15  C   UNL     1      -6.299   7.546  68.778  1.00  0.00    -0.039 C  
HETATM   16  C   UNL     1      -5.834   7.997  70.179  1.00  0.00    -0.022 C  
HETATM   17  C   UNL     1      -5.141   9.363  70.042  1.00  0.00    -0.032 C  
HETATM   18  C   UNL     1      -6.061  10.368  69.361  1.00  0.00    -0.044 C  
BRANCH  16  19
HETATM   19  C   UNL     1      -6.935   8.044  71.205  1.00  0.00    -0.056 A  
HETATM   20  N   UNL     1      -6.818   8.795  72.310  1.00  0.00    -0.269 NA 
HETATM   21  O   UNL     1      -7.897   8.474  73.108  1.00  0.00    -0.343 OA 
HETATM   22  C   UNL     1      -8.669   7.549  72.476  1.00  0.00    -0.128 A  
HETATM   23  C   UNL     1      -8.148   7.291  71.227  1.00  0.00    -0.102 A  
HETATM   24  C   UNL     1      -8.825   6.387  70.389  1.00  0.00    -0.151 A  
HETATM   25  C   UNL     1      -9.967   5.745  70.892  1.00  0.00    -0.243 A  
HETATM   26  C   UNL     1     -10.424   6.016  72.181  1.00  0.00    -0.206 A  
HETATM   27  C   UNL     1      -9.805   6.948  73.008  1.00  0.00    -0.204 A  
HETATM   28  F   UNL     1     -11.492   5.350  72.640  1.00  0.00    -0.304 F  
ENDBRANCH  16  19
ENDBRANCH  12  13
ENDBRANCH  11  12
ENDBRANCH  10  11
ENDBRANCH   9  10
ENDBRANCH   4   9
BRANCH   6  29
HETATM   29  C   UNL     1     -10.988   7.617  67.063  1.00  0.00     0.028 C  
HETATM   30  O   UNL     1     -10.755   6.647  66.345  1.00  0.00    -0.065 OA 
HETATM   31  C   UNL     1     -11.872   7.485  68.278  1.00  0.00     1.879 C  
ENDBRANCH   6  29
ENDBRANCH   2   3
TORSDOF 8
ENDMDL
MODEL      335
REMARK 921   NORMALIZED FREE ENERGY PREDICTED BY IDOCK:    6.39 KCAL/MOL
REMARK 922        TOTAL FREE ENERGY PREDICTED BY IDOCK:    8.58 KCAL/MOL
REMARK 923 INTER-LIGAND FREE ENERGY PREDICTED BY IDOCK:   -1.13 KCAL/MOL
REMARK 924 INTRA-LIGAND FREE ENERGY PREDICTED BY IDOCK:    9.71 KCAL/MOL
REMARK 927      BINDING AFFINITY PREDICTED BY RF-SCORE:    0.00 PKD
ROOT
HETATM    1  C   UNL     1      -9.709  17.560  65.566  1.00  0.00     0.469 C  
HETATM    2  O   UNL     1      -9.550  18.036  66.894  1.00  0.00    -0.275 OA 
ENDROOT
BRANCH   2   3
HETATM    3  C   UNL     1      -9.267  17.110  67.867  1.00  0.00    -0.241 A  
HETATM    4  C   UNL     1     -10.204  16.071  68.017  1.00  0.00    -0.245 A  
HETATM    5  C   UNL     1      -9.995  15.086  68.986  1.00  0.00    -0.246 A  
HETATM    6  C   UNL     1      -7.920  16.142  69.644  1.00  0.00     0.181 A  
HETATM    7  C   UNL     1      -8.123  17.130  68.672  1.00  0.00    -0.264 A  
HETATM    8  C   UNL     1      -8.851  15.114  69.788  1.00  0.00     0.051 A  
BRANCH   4   9
HETATM    9  O   UNL     1     -11.313  16.118  67.213  1.00  0.00    -0.084 OA 
BRANCH   9  10
HETATM   10  C   UNL     1     -11.168  15.713  65.851  1.00  0.00    -0.061 C  
BRANCH  10  11
HETATM   11  C   UNL     1     -12.433  15.041  65.305  1.00  0.00     0.179 C  
BRANCH  11  12
HETATM   12  C   UNL     1     -12.976  13.895  66.178  1.00  0.00     0.057 C  
BRANCH  12  13
HETATM   13  N   UNL     1     -11.945  13.342  67.063  1.00  0.00    -0.380 NA 
HETATM   14  C   UNL     1     -10.579  13.650  66.621  1.00  0.00    -0.277 C  
HETATM   15  C   UNL     1      -9.559  13.230  67.698  1.00  0.00    -0.213 C  
HETATM   16  C   UNL     1      -9.749  11.781  68.193  1.00  0.00    -0.192 C  
HETATM   17  C   UNL     1     -11.238  11.571  68.514  1.00  0.00    -0.315 C  
HETATM   18  C   UNL     1     -12.102  11.912  67.308  1.00  0.00     0.251 C  
BRANCH  16  19
HETATM   19  C   UNL     1      -9.243  10.734  67.235  1.00  0.00    -0.147 A  
HETATM   20  N   UNL     1      -9.535  10.796  65.928  1.00  0.00    -0.188 NA 
HETATM   21  O   UNL     1      -9.083   9.613  65.379  1.00  0.00    -0.183 OA 
HETATM   22  C   UNL     1      -8.505   8.854  66.348  1.00  0.00    -0.117 A  
HETATM   23  C   UNL     1      -8.510   9.548  67.539  1.00  0.00    -0.126 A  
HETATM   24  C   UNL     1      -7.917   8.953  68.667  1.00  0.00    -0.103 A  
HETATM   25  C   UNL     1      -7.405   7.652  68.537  1.00  0.00    -0.095 A  
HETATM   26  C   UNL     1      -7.467   6.983  67.316  1.00  0.00    -0.099 A  
HETATM   27  C   UNL     1      -7.996   7.572  66.173  1.00  0.00    -0.111 A  
HETATM   28  F   UNL     1      -7.005   5.727  67.245  1.00  0.00    -0.058 F  
ENDBRANCH  16  19
ENDBRANCH  12  13
ENDBRANCH  11  12
ENDBRANCH  10  11
ENDBRANCH   9  10
ENDBRANCH   4   9
BRANCH   6  29
HETATM   29  C   UNL     1      -6.700  16.230  70.494  1.00  0.00     1.014 C  
HETATM   30  O   UNL     1      -6.557  15.444  71.429  1.00  0.00     0.924 OA 
HETATM   31  C   UNL     1      -5.628  17.237  70.160  1.00  0.00    -0.242 C  
ENDBRANCH   6  29
ENDBRANCH   2   3
TORSDOF 8
ENDMDL
MODEL      336
REMARK 921   NORMALIZED FREE ENERGY PREDICTED BY IDOCK:    6.99 KCAL/MOL
REMARK 922        TOTAL FREE ENERGY PREDICTED BY IDOCK:    9.46 KCAL/MOL
REMARK 923 INTER-LIGAND FREE ENERGY PREDICTED BY IDOCK:   -5.65 KCAL/MOL
REMARK 924 INTRA-LIGAND FREE ENERGY PREDICTED BY IDOCK:   15.11 KCAL/MOL
REMARK 927      BINDING AFFINITY PREDICTED BY RF-SCORE:    0.00 PKD
ROOT
HETATM    1  C   UNL     1     -10.149  18.872  65.902  1.00  0.00    -0.217 C  
HETATM    2  O   UNL     1      -8.978  19.528  66.366  1.00  0.00    -0.342 OA 
ENDROOT
BRANCH   2   3
HETATM    3  C   UNL     1      -8.377  19.025  67.493  1.00  0.00    -0.278 A  
HETATM    4  C   UNL     1      -8.816  17.754  67.909  1.00  0.00    -0.251 A  
HETATM    5  C   UNL     1      -8.260  17.169  69.048  1.00  0.00    -0.107 A  
HETATM    6  C   UNL     1      -6.817  19.087  69.357  1.00  0.00    -0.272 A  
HETATM    7  C   UNL     1      -7.370  19.677  68.213  1.00  0.00    -0.351 A  
HETATM    8  C   UNL     1      -7.255  17.827  69.763  1.00  0.00     0.551 A  
BRANCH   4   9
HETATM    9  O   UNL     1      -9.819  17.176  67.174  1.00  0.00    -0.257 OA 
BRANCH   9  10
HETATM   10  C   UNL     1     -10.693  18.037  66.443  1.00  0.00    -0.127 C  
BRANCH  10  11
HETATM   11  C   UNL     1     -11.134  17.423  65.109  1.00  0.00     0.354 C  
BRANCH  11  12
HETATM   12  C   UNL     1     -11.546  15.942  65.193  1.00  0.00     0.126 C  
BRANCH  12  13
HETATM   13  N   UNL     1     -10.945  15.268  66.348  1.00  0.00    -0.318 NA 
HETATM   14  C   UNL     1      -9.553  14.860  66.118  1.00  0.00    -0.310 C  
HETATM   15  C   UNL     1      -8.918  14.357  67.430  1.00  0.00    -0.204 C  
HETATM   16  C   UNL     1      -9.772  13.301  68.162  1.00  0.00    -0.227 C  
HETATM   17  C   UNL     1     -11.220  13.814  68.233  1.00  0.00    -0.301 C  
HETATM   18  C   UNL     1     -11.741  14.149  66.842  1.00  0.00    -0.414 C  
BRANCH  16  19
HETATM   19  C   UNL     1      -9.708  11.927  67.547  1.00  0.00    -0.181 A  
HETATM   20  N   UNL     1      -9.485  10.842  68.303  1.00  0.00    -0.158 NA 
HETATM   21  O   UNL     1      -9.308   9.793  67.424  1.00  0.00    -0.133 OA 
HETATM   22  C   UNL     1      -9.444  10.243  66.147  1.00  0.00    -0.181 A  
HETATM   23  C   UNL     1      -9.774  11.580  66.164  1.00  0.00    -0.249 A  
HETATM   24  C   UNL     1     -10.002  12.232  64.939  1.00  0.00    -0.219 A  
HETATM   25  C   UNL     1      -9.820  11.501  63.755  1.00  0.00    -0.348 A  
HETATM   26  C   UNL     1      -9.444  10.160  63.800  1.00  0.00    -0.275 A  
HETATM   27  C   UNL     1      -9.268   9.477  64.999  1.00  0.00    -0.297 A  
HETATM   28  F   UNL     1      -9.239   9.508  62.647  1.00  0.00    -0.262 F  
ENDBRANCH  16  19
ENDBRANCH  12  13
ENDBRANCH  11  12
ENDBRANCH  10  11
ENDBRANCH   9  10
ENDBRANCH   4   9
BRANCH   6  29
HETATM   29  C   UNL     1      -5.770  19.840  70.101  1.00  0.00    -0.278 C  
HETATM   30  O   UNL     1      -5.144  19.276  70.997  1.00  0.00    -0.213 OA 
HETATM   31  C   UNL     1      -5.446  21.259  69.706  1.00  0.00     0.085 C  
ENDBRANCH   6  29
ENDBRANCH   2   3
TORSDOF 8
ENDMDL
MODEL      337
REMARK 921   NORMALIZED FREE ENERGY PREDICTED BY IDOCK:    8.31 KCAL/MOL
REMARK 922        TOTAL FREE ENERGY PREDICTED BY IDOCK:   11.41 KCAL/MOL
REMARK 923 INTER-LIGAND FREE ENERGY PREDICTED BY IDOCK:    6.04 KCAL/MOL
REMARK 924 INTRA-LIGAND FREE ENERGY PREDICTED BY IDOCK:    5.37 KCAL/MOL
REMARK 927      BINDING AFFINITY PREDICTED BY RF-SCORE:    0.00 PKD
ROOT
HETATM    1  C   UNL     1     -13.277   6.969  70.052  1.00  0.00     2.311 C  
HETATM    2  O   UNL     1     -12.203   7.873  70.268  1.00  0.00     0.206 OA 
ENDROOT
BRANCH   2   3
HETATM    3  C   UNL     1     -11.764   8.600  69.190  1.00  0.00     1.181 A  
HETATM    4  C   UNL     1     -11.548   7.873  68.005  1.00  0.00     1.570 A  
HETATM    5  C   UNL     1     -11.099   8.534  66.860  1.00  0.00     0.614 A  
HETATM    6  C   UNL     1     -11.096  10.641  68.049  1.00  0.00    -0.361 A  
HETATM    7  C   UNL     1     -11.550   9.983  69.200  1.00  0.00    -0.016 A  
HETATM    8  C   UNL     1     -10.885   9.915  66.877  1.00  0.00    -0.137 A  
BRANCH   4   9
HETATM    9  O   UNL     1     -11.757   6.519  68.064  1.00  0.00     0.254 OA 
BRANCH   9  10
HETATM   10  C   UNL     1     -10.834   5.733  68.818  1.00  0.00    -0.215 C  
BRANCH  10  11
HETATM   11  C   UNL     1     -11.491   5.068  70.033  1.00  0.00     2.543 C  
BRANCH  11  12
HETATM   12  C   UNL     1     -10.555   4.874  71.240  1.00  0.00    -0.023 C  
BRANCH  12  13
HETATM   13  N   UNL     1      -9.287   5.592  71.074  1.00  0.00    -0.152 NA 
HETATM   14  C   UNL     1      -9.321   6.578  69.987  1.00  0.00    -0.157 C  
HETATM   15  C   UNL     1      -8.043   7.440  70.005  1.00  0.00    -0.129 C  
HETATM   16  C   UNL     1      -6.743   6.612  70.064  1.00  0.00    -0.049 C  
HETATM   17  C   UNL     1      -6.893   5.554  71.170  1.00  0.00    -0.057 C  
HETATM   18  C   UNL     1      -8.136   4.705  70.938  1.00  0.00    -0.082 C  
BRANCH  16  19
HETATM   19  C   UNL     1      -6.357   5.981  68.752  1.00  0.00    -0.041 A  
HETATM   20  N   UNL     1      -5.323   5.130  68.673  1.00  0.00    -0.004 NA 
HETATM   21  O   UNL     1      -5.131   4.885  67.328  1.00  0.00    -0.007 OA 
HETATM   22  C   UNL     1      -6.058   5.570  66.606  1.00  0.00    -0.030 A  
HETATM   23  C   UNL     1      -6.915   6.226  67.462  1.00  0.00    -0.068 A  
HETATM   24  C   UNL     1      -7.980   6.964  66.913  1.00  0.00    -0.109 A  
HETATM   25  C   UNL     1      -8.079   7.045  65.516  1.00  0.00    -0.132 A  
HETATM   26  C   UNL     1      -7.156   6.393  64.700  1.00  0.00    -0.057 A  
HETATM   27  C   UNL     1      -6.129   5.610  65.217  1.00  0.00    -0.026 A  
HETATM   28  F   UNL     1      -7.261   6.529  63.371  1.00  0.00    -0.048 F  
ENDBRANCH  16  19
ENDBRANCH  12  13
ENDBRANCH  11  12
ENDBRANCH  10  11
ENDBRANCH   9  10
ENDBRANCH   4   9
BRANCH   6  29
HETATM   29  C   UNL     1     -10.855  12.108  68.126  1.00  0.00    -0.222 C  
HETATM   30  O   UNL     1     -11.796  12.862  68.372  1.00  0.00    -0.315 OA 
HETATM   31  C   UNL     1      -9.455  12.646  67.966  1.00  0.00    -0.209 C  
ENDBRANCH   6  29
ENDBRANCH   2   3
TORSDOF 8
ENDMDL
MODEL      338
REMARK 921   NORMALIZED FREE ENERGY PREDICTED BY IDOCK:    8.58 KCAL/MOL
REMARK 922        TOTAL FREE ENERGY PREDICTED BY IDOCK:   11.81 KCAL/MOL
REMARK 923 INTER-LIGAND FREE ENERGY PREDICTED BY IDOCK:    7.07 KCAL/MOL
REMARK 924 INTRA-LIGAND FREE ENERGY PREDICTED BY IDOCK:    4.74 KCAL/MOL
REMARK 927      BINDING AFFINITY PREDICTED BY RF-SCORE:    0.00 PKD
ROOT
HETATM    1  C   UNL     1     -11.046   9.121  69.443  1.00  0.00    -0.008 C  
HETATM    2  O   UNL     1     -10.049   9.928  68.831  1.00  0.00    -0.169 OA 
ENDROOT
BRANCH   2   3
HETATM    3  C   UNL     1      -9.594   9.541  67.596  1.00  0.00    -0.136 A  
HETATM    4  C   UNL     1     -10.574   9.407  66.595  1.00  0.00    -0.100 A  
HETATM    5  C   UNL     1     -10.199   9.015  65.308  1.00  0.00     1.148 A  
HETATM    6  C   UNL     1      -7.880   8.908  65.991  1.00  0.00    -0.102 A  
HETATM    7  C   UNL     1      -8.251   9.304  67.283  1.00  0.00    -0.121 A  
HETATM    8  C   UNL     1      -8.856   8.778  65.003  1.00  0.00    -0.151 A  
BRANCH   4   9
HETATM    9  O   UNL     1     -11.874   9.633  66.968  1.00  0.00     1.518 OA 
BRANCH   9  10
HETATM   10  C   UNL     1     -12.113  10.569  68.020  1.00  0.00     1.099 C  
BRANCH  10  11
HETATM   11  C   UNL     1     -12.023  12.022  67.538  1.00  0.00    -0.144 C  
BRANCH  11  12
HETATM   12  C   UNL     1     -11.120  12.925  68.399  1.00  0.00    -0.262 C  
BRANCH  12  13
HETATM   13  N   UNL     1     -10.350  13.869  67.583  1.00  0.00    -0.240 NA 
HETATM   14  C   UNL     1      -8.994  13.396  67.277  1.00  0.00    -0.221 C  
HETATM   15  C   UNL     1      -8.321  14.326  66.249  1.00  0.00     0.796 C  
HETATM   16  C   UNL     1      -8.395  15.820  66.629  1.00  0.00    -0.319 C  
HETATM   17  C   UNL     1      -9.844  16.145  67.029  1.00  0.00    -0.248 C  
HETATM   18  C   UNL     1     -10.317  15.218  68.141  1.00  0.00    -0.242 C  
BRANCH  16  19
HETATM   19  C   UNL     1      -7.425  16.228  67.707  1.00  0.00    -0.134 A  
HETATM   20  N   UNL     1      -6.324  16.935  67.414  1.00  0.00    -0.141 NA 
HETATM   21  O   UNL     1      -5.579  16.981  68.574  1.00  0.00    -0.132 OA 
HETATM   22  C   UNL     1      -6.238  16.321  69.564  1.00  0.00    -0.186 A  
HETATM   23  C   UNL     1      -7.457  15.884  69.092  1.00  0.00    -0.210 A  
HETATM   24  C   UNL     1      -8.318  15.209  69.976  1.00  0.00     0.358 A  
HETATM   25  C   UNL     1      -7.865  14.961  71.281  1.00  0.00     2.906 A  
HETATM   26  C   UNL     1      -6.604  15.392  71.689  1.00  0.00     1.757 A  
HETATM   27  C   UNL     1      -5.758  16.110  70.852  1.00  0.00     0.174 A  
HETATM   28  F   UNL     1      -6.193  15.098  72.930  1.00  0.00     0.733 F  
ENDBRANCH  16  19
ENDBRANCH  12  13
ENDBRANCH  11  12
ENDBRANCH  10  11
ENDBRANCH   9  10
ENDBRANCH   4   9
BRANCH   6  29
HETATM   29  C   UNL     1      -6.440   8.640  65.723  1.00  0.00    -0.056 C  
HETATM   30  O   UNL     1      -5.970   8.916  64.621  1.00  0.00    -0.063 OA 
HETATM   31  C   UNL     1      -5.564   8.094  66.824  1.00  0.00    -0.033 C  
ENDBRANCH   6  29
ENDBRANCH   2   3
TORSDOF 8
ENDMDL
MODEL      339
REMARK 921   NORMALIZED FREE ENERGY PREDICTED BY IDOCK:    9.01 KCAL/MOL
REMARK 922        TOTAL FREE ENERGY PREDICTED BY IDOCK:   12.43 KCAL/MOL
REMARK 923 INTER-LIGAND FREE ENERGY PREDICTED BY IDOCK:    9.53 KCAL/MOL
REMARK 924 INTRA-LIGAND FREE ENERGY PREDICTED BY IDOCK:    2.90 KCAL/MOL
REMARK 927      BINDING AFFINITY PREDICTED BY RF-SCORE:    0.00 PKD
ROOT
HETATM    1  C   UNL     1      -7.082  13.736  72.838  1.00  0.00     5.036 C  
HETATM    2  O   UNL     1      -6.056  13.107  72.085  1.00  0.00     0.325 OA 
ENDROOT
BRANCH   2   3
HETATM    3  C   UNL     1      -6.421  12.484  70.918  1.00  0.00     1.405 A  
HETATM    4  C   UNL     1      -7.371  13.161  70.131  1.00  0.00     1.534 A  
HETATM    5  C   UNL     1      -7.800  12.596  68.928  1.00  0.00     0.137 A  
HETATM    6  C   UNL     1      -6.334  10.701  69.267  1.00  0.00    -0.057 A  
HETATM    7  C   UNL     1      -5.898  11.264  70.473  1.00  0.00    -0.135 A  
HETATM    8  C   UNL     1      -7.275  11.377  68.491  1.00  0.00    -0.093 A  
BRANCH   4   9
HETATM    9  O   UNL     1      -7.859  14.340  70.631  1.00  0.00     1.367 OA 
BRANCH   9  10
HETATM   10  C   UNL     1      -9.258  14.592  70.500  1.00  0.00     1.812 C  
BRANCH  10  11
HETATM   11  C   UNL     1      -9.548  15.937  69.822  1.00  0.00    -0.084 C  
BRANCH  11  12
HETATM   12  C   UNL     1     -10.588  15.870  68.688  1.00  0.00    -0.250 C  
BRANCH  12  13
HETATM   13  N   UNL     1     -11.370  14.631  68.732  1.00  0.00    -0.266 NA 
HETATM   14  C   UNL     1     -10.840  13.647  69.683  1.00  0.00     0.169 C  
HETATM   15  C   UNL     1     -11.821  12.467  69.837  1.00  0.00    -0.373 C  
HETATM   16  C   UNL     1     -12.272  11.863  68.492  1.00  0.00     0.091 C  
HETATM   17  C   UNL     1     -12.695  13.012  67.563  1.00  0.00     1.250 C  
HETATM   18  C   UNL     1     -11.571  14.029  67.418  1.00  0.00    -0.368 C  
BRANCH  16  19
HETATM   19  C   UNL     1     -11.239  10.983  67.837  1.00  0.00    -0.310 A  
HETATM   20  N   UNL     1     -11.100  10.957  66.503  1.00  0.00    -0.134 NA 
HETATM   21  O   UNL     1     -10.213   9.935  66.231  1.00  0.00    -0.243 OA 
HETATM   22  C   UNL     1      -9.808   9.363  67.397  1.00  0.00    -0.172 A  
HETATM   23  C   UNL     1     -10.369  10.037  68.459  1.00  0.00    -0.217 A  
HETATM   24  C   UNL     1     -10.042   9.628  69.764  1.00  0.00    -0.258 A  
HETATM   25  C   UNL     1      -9.207   8.511  69.918  1.00  0.00    -0.154 A  
HETATM   26  C   UNL     1      -8.702   7.843  68.805  1.00  0.00    -0.128 A  
HETATM   27  C   UNL     1      -8.965   8.262  67.505  1.00  0.00    -0.141 A  
HETATM   28  F   UNL     1      -7.943   6.755  68.994  1.00  0.00    -0.107 F  
ENDBRANCH  16  19
ENDBRANCH  12  13
ENDBRANCH  11  12
ENDBRANCH  10  11
ENDBRANCH   9  10
ENDBRANCH   4   9
BRANCH   6  29
HETATM   29  C   UNL     1      -5.766   9.387  68.858  1.00  0.00    -0.039 C  
HETATM   30  O   UNL     1      -5.859   8.426  69.620  1.00  0.00    -0.029 OA 
HETATM   31  C   UNL     1      -5.143   9.234  67.492  1.00  0.00    -0.037 C  
ENDBRANCH   6  29
ENDBRANCH   2   3
TORSDOF 8
ENDMDL
MODEL      340
REMARK 921   NORMALIZED FREE ENERGY PREDICTED BY IDOCK:    9.22 KCAL/MOL
REMARK 922        TOTAL FREE ENERGY PREDICTED BY IDOCK:   12.74 KCAL/MOL
REMARK 923 INTER-LIGAND FREE ENERGY PREDICTED BY IDOCK:    9.01 KCAL/MOL
REMARK 924 INTRA-LIGAND FREE ENERGY PREDICTED BY IDOCK:    3.73 KCAL/MOL
REMARK 927      BINDING AFFINITY PREDICTED BY RF-SCORE:    0.00 PKD
ROOT
HETATM    1  C   UNL     1      -7.082  13.736  72.838  1.00  0.00     5.036 C  
HETATM    2  O   UNL     1      -6.056  13.107  72.085  1.00  0.00     0.325 OA 
ENDROOT
BRANCH   2   3
HETATM    3  C   UNL     1      -6.421  12.484  70.918  1.00  0.00     1.405 A  
HETATM    4  C   UNL     1      -7.371  13.161  70.131  1.00  0.00     1.534 A  
HETATM    5  C   UNL     1      -7.800  12.596  68.928  1.00  0.00     0.137 A  
HETATM    6  C   UNL     1      -6.334  10.701  69.267  1.00  0.00    -0.057 A  
HETATM    7  C   UNL     1      -5.898  11.264  70.473  1.00  0.00    -0.135 A  
HETATM    8  C   UNL     1      -7.275  11.377  68.491  1.00  0.00    -0.093 A  
BRANCH   4   9
HETATM    9  O   UNL     1      -7.859  14.340  70.631  1.00  0.00     1.367 OA 
BRANCH   9  10
HETATM   10  C   UNL     1      -9.258  14.592  70.500  1.00  0.00     1.812 C  
BRANCH  10  11
HETATM   11  C   UNL     1      -9.548  15.937  69.822  1.00  0.00    -0.084 C  
BRANCH  11  12
HETATM   12  C   UNL     1     -10.588  15.870  68.688  1.00  0.00    -0.250 C  
BRANCH  12  13
HETATM   13  N   UNL     1     -11.370  14.631  68.732  1.00  0.00    -0.266 NA 
HETATM   14  C   UNL     1     -10.840  13.647  69.683  1.00  0.00     0.169 C  
HETATM   15  C   UNL     1     -11.821  12.467  69.837  1.00  0.00    -0.373 C  
HETATM   16  C   UNL     1     -12.272  11.863  68.492  1.00  0.00     0.091 C  
HETATM   17  C   UNL     1     -12.695  13.012  67.563  1.00  0.00     1.250 C  
HETATM   18  C   UNL     1     -11.571  14.029  67.418  1.00  0.00    -0.368 C  
BRANCH  16  19
HETATM   19  C   UNL     1     -11.239  10.983  67.837  1.00  0.00    -0.310 A  
HETATM   20  N   UNL     1     -10.590  10.041  68.538  1.00  0.00    -0.205 NA 
HETATM   21  O   UNL     1      -9.606   9.553  67.702  1.00  0.00    -0.133 OA 
HETATM   22  C   UNL     1      -9.677  10.185  66.499  1.00  0.00    -0.200 A  
HETATM   23  C   UNL     1     -10.746  11.054  66.499  1.00  0.00    -0.298 A  
HETATM   24  C   UNL     1     -11.022  11.780  65.327  1.00  0.00    -0.350 A  
HETATM   25  C   UNL     1     -10.155  11.629  64.234  1.00  0.00    -0.328 A  
HETATM   26  C   UNL     1      -9.064  10.765  64.308  1.00  0.00    -0.195 A  
HETATM   27  C   UNL     1      -8.803   9.993  65.435  1.00  0.00    -0.199 A  
HETATM   28  F   UNL     1      -8.236  10.681  63.258  1.00  0.00    -0.163 F  
ENDBRANCH  16  19
ENDBRANCH  12  13
ENDBRANCH  11  12
ENDBRANCH  10  11
ENDBRANCH   9  10
ENDBRANCH   4   9
BRANCH   6  29
HETATM   29  C   UNL     1      -5.766   9.387  68.858  1.00  0.00    -0.039 C  
HETATM   30  O   UNL     1      -5.859   8.426  69.620  1.00  0.00    -0.029 OA 
HETATM   31  C   UNL     1      -5.143   9.234  67.492  1.00  0.00    -0.037 C  
ENDBRANCH   6  29
ENDBRANCH   2   3
TORSDOF 8
ENDMDL
MODEL      341
REMARK 921   NORMALIZED FREE ENERGY PREDICTED BY IDOCK:    9.94 KCAL/MOL
REMARK 922        TOTAL FREE ENERGY PREDICTED BY IDOCK:   13.79 KCAL/MOL
REMARK 923 INTER-LIGAND FREE ENERGY PREDICTED BY IDOCK:   -0.45 KCAL/MOL
REMARK 924 INTRA-LIGAND FREE ENERGY PREDICTED BY IDOCK:   14.25 KCAL/MOL
REMARK 927      BINDING AFFINITY PREDICTED BY RF-SCORE:    0.00 PKD
ROOT
HETATM    1  C   UNL     1     -11.126  10.119  65.699  1.00  0.00     0.934 C  
HETATM    2  O   UNL     1     -10.969  10.005  67.106  1.00  0.00    -0.226 OA 
ENDROOT
BRANCH   2   3
HETATM    3  C   UNL     1     -10.573  11.127  67.790  1.00  0.00    -0.209 A  
HETATM    4  C   UNL     1      -9.212  11.466  67.679  1.00  0.00    -0.158 A  
HETATM    5  C   UNL     1      -8.723  12.593  68.345  1.00  0.00    -0.118 A  
HETATM    6  C   UNL     1     -10.931  13.065  69.214  1.00  0.00    -0.122 A  
HETATM    7  C   UNL     1     -11.427  11.938  68.546  1.00  0.00    -0.349 A  
HETATM    8  C   UNL     1      -9.582  13.397  69.100  1.00  0.00     0.455 A  
BRANCH   4   9
HETATM    9  O   UNL     1      -8.423  10.622  66.941  1.00  0.00    -0.124 OA 
BRANCH   9  10
HETATM   10  C   UNL     1      -7.011  10.675  67.148  1.00  0.00    -0.088 C  
BRANCH  10  11
HETATM   11  C   UNL     1      -6.578   9.920  68.410  1.00  0.00    -0.055 C  
BRANCH  11  12
HETATM   12  C   UNL     1      -5.531  10.654  69.267  1.00  0.00    -0.037 C  
BRANCH  12  13
HETATM   13  N   UNL     1      -6.037  11.932  69.778  1.00  0.00    -0.128 NA 
HETATM   14  C   UNL     1      -7.439  12.183  69.420  1.00  0.00     0.339 C  
HETATM   15  C   UNL     1      -7.968  13.426  70.162  1.00  0.00     2.473 C  
HETATM   16  C   UNL     1      -7.053  14.660  70.025  1.00  0.00     0.005 C  
HETATM   17  C   UNL     1      -5.608  14.226  70.322  1.00  0.00    -0.123 C  
HETATM   18  C   UNL     1      -5.197  13.070  69.420  1.00  0.00    -0.075 C  
BRANCH  16  19
HETATM   19  C   UNL     1      -7.152  15.353  68.691  1.00  0.00    -0.116 A  
HETATM   20  N   UNL     1      -6.805  14.724  67.559  1.00  0.00    -0.200 NA 
HETATM   21  O   UNL     1      -6.840  15.680  66.564  1.00  0.00     0.039 OA 
HETATM   22  C   UNL     1      -7.223  16.873  67.094  1.00  0.00    -0.180 A  
HETATM   23  C   UNL     1      -7.510  16.710  68.431  1.00  0.00    -0.194 A  
HETATM   24  C   UNL     1      -7.968  17.822  69.161  1.00  0.00     0.042 A  
HETATM   25  C   UNL     1      -8.052  19.058  68.501  1.00  0.00    -0.385 A  
HETATM   26  C   UNL     1      -7.708  19.170  67.155  1.00  0.00    -0.245 A  
HETATM   27  C   UNL     1      -7.307  18.074  66.398  1.00  0.00    -0.292 A  
HETATM   28  F   UNL     1      -7.761  20.375  66.573  1.00  0.00    -0.294 F  
ENDBRANCH  16  19
ENDBRANCH  12  13
ENDBRANCH  11  12
ENDBRANCH  10  11
ENDBRANCH   9  10
ENDBRANCH   4   9
BRANCH   6  29
HETATM   29  C   UNL     1     -11.879  13.874  70.029  1.00  0.00    -0.315 C  
HETATM   30  O   UNL     1     -12.124  15.033  69.697  1.00  0.00    -0.308 OA 
HETATM   31  C   UNL     1     -12.575  13.245  71.211  1.00  0.00    -0.398 C  
ENDBRANCH   6  29
ENDBRANCH   2   3
TORSDOF 8
ENDMDL
MODEL      342
REMARK 921   NORMALIZED FREE ENERGY PREDICTED BY IDOCK:   14.54 KCAL/MOL
REMARK 922        TOTAL FREE ENERGY PREDICTED BY IDOCK:   20.55 KCAL/MOL
REMARK 923 INTER-LIGAND FREE ENERGY PREDICTED BY IDOCK:   16.72 KCAL/MOL
REMARK 924 INTRA-LIGAND FREE ENERGY PREDICTED BY IDOCK:    3.83 KCAL/MOL
REMARK 927      BINDING AFFINITY PREDICTED BY RF-SCORE:    0.00 PKD
ROOT
HETATM    1  C   UNL     1     -10.411  16.438  62.922  1.00  0.00    11.246 C  
HETATM    2  O   UNL     1     -10.898  17.405  63.840  1.00  0.00     1.322 OA 
ENDROOT
BRANCH   2   3
HETATM    3  C   UNL     1     -10.803  17.110  65.177  1.00  0.00     0.001 A  
HETATM    4  C   UNL     1     -11.221  15.820  65.553  1.00  0.00    -0.093 A  
HETATM    5  C   UNL     1     -11.159  15.437  66.895  1.00  0.00    -0.256 A  
HETATM    6  C   UNL     1     -10.251  17.598  67.494  1.00  0.00    -0.348 A  
HETATM    7  C   UNL     1     -10.307  17.986  66.149  1.00  0.00    -0.368 A  
HETATM    8  C   UNL     1     -10.665  16.318  67.860  1.00  0.00    -0.329 A  
BRANCH   4   9
HETATM    9  O   UNL     1     -11.715  15.016  64.558  1.00  0.00    -0.416 OA 
BRANCH   9  10
HETATM   10  C   UNL     1     -10.997  13.822  64.247  1.00  0.00    -0.251 C  
BRANCH  10  11
HETATM   11  C   UNL     1     -10.982  12.829  65.415  1.00  0.00    -0.313 C  
BRANCH  11  12
HETATM   12  C   UNL     1     -12.077  13.069  66.471  1.00  0.00    -0.341 C  
BRANCH  12  13
HETATM   13  N   UNL     1     -12.023  12.081  67.554  1.00  0.00    -0.578 NA 
HETATM   14  C   UNL     1     -13.346  11.739  68.090  1.00  0.00     5.971 C  
HETATM   15  C   UNL     1     -13.238  10.550  69.065  1.00  0.00     2.875 C  
HETATM   16  C   UNL     1     -12.150  10.734  70.143  1.00  0.00    -0.427 C  
HETATM   17  C   UNL     1     -10.857  11.195  69.451  1.00  0.00    -0.264 C  
HETATM   18  C   UNL     1     -11.105  12.451  68.627  1.00  0.00    -0.257 C  
BRANCH  16  19
HETATM   19  C   UNL     1     -12.540  11.673  71.254  1.00  0.00    -0.320 A  
HETATM   20  N   UNL     1     -12.806  11.213  72.486  1.00  0.00     0.480 NA 
HETATM   21  O   UNL     1     -13.297  12.288  73.198  1.00  0.00     0.942 OA 
HETATM   22  C   UNL     1     -13.309  13.392  72.403  1.00  0.00    -0.528 A  
HETATM   23  C   UNL     1     -12.767  13.080  71.176  1.00  0.00    -0.372 A  
HETATM   24  C   UNL     1     -12.647  14.100  70.214  1.00  0.00    -0.367 A  
HETATM   25  C   UNL     1     -13.144  15.373  70.534  1.00  0.00    -0.318 A  
HETATM   26  C   UNL     1     -13.720  15.618  71.779  1.00  0.00    -0.388 A  
HETATM   27  C   UNL     1     -13.798  14.642  72.766  1.00  0.00    -0.381 A  
HETATM   28  F   UNL     1     -14.220  16.836  72.029  1.00  0.00     1.409 F  
ENDBRANCH  16  19
ENDBRANCH  12  13
ENDBRANCH  11  12
ENDBRANCH  10  11
ENDBRANCH   9  10
ENDBRANCH   4   9
BRANCH   6  29
HETATM   29  C   UNL     1      -9.743  18.582  68.490  1.00  0.00    -0.367 C  
HETATM   30  O   UNL     1      -9.877  18.350  69.690  1.00  0.00     0.134 OA 
HETATM   31  C   UNL     1      -9.014  19.816  68.017  1.00  0.00    -0.376 C  
ENDBRANCH   6  29
ENDBRANCH   2   3
TORSDOF 8
ENDMDL
MODEL      343
REMARK 921   NORMALIZED FREE ENERGY PREDICTED BY IDOCK:   15.94 KCAL/MOL
REMARK 922        TOTAL FREE ENERGY PREDICTED BY IDOCK:   22.60 KCAL/MOL
REMARK 923 INTER-LIGAND FREE ENERGY PREDICTED BY IDOCK:   19.99 KCAL/MOL
REMARK 924 INTRA-LIGAND FREE ENERGY PREDICTED BY IDOCK:    2.61 KCAL/MOL
REMARK 927      BINDING AFFINITY PREDICTED BY RF-SCORE:    0.00 PKD
ROOT
HETATM    1  C   UNL     1     -11.309   9.982  70.301  1.00  0.00    -0.308 C  
HETATM    2  O   UNL     1     -10.578  11.167  70.016  1.00  0.00     0.036 OA 
ENDROOT
BRANCH   2   3
HETATM    3  C   UNL     1     -11.258  12.199  69.419  1.00  0.00    -0.182 A  
HETATM    4  C   UNL     1     -11.840  13.137  70.292  1.00  0.00    -0.224 A  
HETATM    5  C   UNL     1     -12.552  14.219  69.768  1.00  0.00    -0.152 A  
HETATM    6  C   UNL     1     -12.095  13.460  67.516  1.00  0.00    -0.323 A  
HETATM    7  C   UNL     1     -11.377  12.375  68.036  1.00  0.00    -0.340 A  
HETATM    8  C   UNL     1     -12.669  14.387  68.386  1.00  0.00     0.820 A  
BRANCH   4   9
HETATM    9  O   UNL     1     -11.705  12.899  71.635  1.00  0.00     1.198 OA 
BRANCH   9  10
HETATM   10  C   UNL     1     -11.129  13.927  72.441  1.00  0.00     3.706 C  
BRANCH  10  11
HETATM   11  C   UNL     1     -11.018  15.260  71.692  1.00  0.00    -0.107 C  
BRANCH  11  12
HETATM   12  C   UNL     1      -9.929  15.293  70.604  1.00  0.00     0.572 C  
BRANCH  12  13
HETATM   13  N   UNL     1      -9.228  16.580  70.566  1.00  0.00     2.170 NA 
HETATM   14  C   UNL     1     -10.050  17.700  71.039  1.00  0.00     3.425 C  
HETATM   15  C   UNL     1      -9.194  18.975  71.176  1.00  0.00     4.294 C  
HETATM   16  C   UNL     1      -8.361  19.294  69.918  1.00  0.00     0.831 C  
HETATM   17  C   UNL     1      -7.643  18.009  69.474  1.00  0.00     0.357 C  
HETATM   18  C   UNL     1      -8.642  16.879  69.262  1.00  0.00     0.073 C  
BRANCH  16  19
HETATM   19  C   UNL     1      -9.159  19.892  68.789  1.00  0.00    -0.072 A  
HETATM   20  N   UNL     1      -9.551  21.174  68.824  1.00  0.00     1.195 NA 
HETATM   21  O   UNL     1     -10.398  21.344  67.748  1.00  0.00     0.639 OA 
HETATM   22  C   UNL     1     -10.499  20.175  67.060  1.00  0.00    -0.300 A  
HETATM   23  C   UNL     1      -9.672  19.233  67.631  1.00  0.00    -0.412 A  
HETATM   24  C   UNL     1      -9.596  17.958  67.042  1.00  0.00    -0.286 A  
HETATM   25  C   UNL     1     -10.415  17.691  65.934  1.00  0.00    -0.247 A  
HETATM   26  C   UNL     1     -11.263  18.672  65.425  1.00  0.00     1.050 A  
HETATM   27  C   UNL     1     -11.315  19.957  65.955  1.00  0.00     0.511 A  
HETATM   28  F   UNL     1     -12.061  18.364  64.393  1.00  0.00     3.267 F  
ENDBRANCH  16  19
ENDBRANCH  12  13
ENDBRANCH  11  12
ENDBRANCH  10  11
ENDBRANCH   9  10
ENDBRANCH   4   9
BRANCH   6  29
HETATM   29  C   UNL     1     -12.215  13.581  66.037  1.00  0.00    -0.445 C  
HETATM   30  O   UNL     1     -12.374  14.691  65.533  1.00  0.00    -0.286 OA 
HETATM   31  C   UNL     1     -12.077  12.352  65.173  1.00  0.00    -0.464 C  
ENDBRANCH   6  29
ENDBRANCH   2   3
TORSDOF 8
ENDMDL
MODEL      344
REMARK 921   NORMALIZED FREE ENERGY PREDICTED BY IDOCK:   16.60 KCAL/MOL
REMARK 922        TOTAL FREE ENERGY PREDICTED BY IDOCK:   23.58 KCAL/MOL
REMARK 923 INTER-LIGAND FREE ENERGY PREDICTED BY IDOCK:    6.15 KCAL/MOL
REMARK 924 INTRA-LIGAND FREE ENERGY PREDICTED BY IDOCK:   17.42 KCAL/MOL
REMARK 927      BINDING AFFINITY PREDICTED BY RF-SCORE:    0.00 PKD
ROOT
HETATM    1  C   UNL     1     -12.810   6.303  70.027  1.00  0.00     2.803 C  
HETATM    2  O   UNL     1     -11.894   7.271  70.516  1.00  0.00    -0.276 OA 
ENDROOT
BRANCH   2   3
HETATM    3  C   UNL     1     -11.209   8.017  69.588  1.00  0.00     0.089 A  
HETATM    4  C   UNL     1     -10.896   7.361  68.383  1.00  0.00    -0.017 A  
HETATM    5  C   UNL     1     -10.199   8.045  67.385  1.00  0.00    -0.330 A  
HETATM    6  C   UNL     1     -10.138  10.036  68.760  1.00  0.00    -0.197 A  
HETATM    7  C   UNL     1     -10.840   9.355  69.763  1.00  0.00    -0.250 A  
HETATM    8  C   UNL     1      -9.832   9.381  67.567  1.00  0.00    -0.220 A  
BRANCH   4   9
HETATM    9  O   UNL     1     -11.268   6.045  68.281  1.00  0.00    -0.273 OA 
BRANCH   9  10
HETATM   10  C   UNL     1     -10.977   5.182  69.380  1.00  0.00     0.655 C  
BRANCH  10  11
HETATM   11  C   UNL     1     -12.121   5.132  70.400  1.00  0.00     4.453 C  
BRANCH  11  12
HETATM   12  C   UNL     1     -11.665   5.016  71.866  1.00  0.00     0.829 C  
BRANCH  12  13
HETATM   13  N   UNL     1     -10.214   5.173  72.005  1.00  0.00    -0.197 NA 
HETATM   14  C   UNL     1      -9.563   5.637  70.774  1.00  0.00    -0.169 C  
HETATM   15  C   UNL     1      -8.086   5.985  71.046  1.00  0.00    -0.121 C  
HETATM   16  C   UNL     1      -7.317   4.870  71.783  1.00  0.00    -0.071 C  
HETATM   17  C   UNL     1      -8.163   4.409  72.982  1.00  0.00    -0.095 C  
HETATM   18  C   UNL     1      -9.552   3.981  72.527  1.00  0.00    -0.136 C  
BRANCH  16  19
HETATM   19  C   UNL     1      -6.932   3.707  70.907  1.00  0.00    -0.033 A  
HETATM   20  N   UNL     1      -5.995   2.829  71.296  1.00  0.00    -0.014 NA 
HETATM   21  O   UNL     1      -5.759   2.014  70.207  1.00  0.00    -0.016 OA 
HETATM   22  C   UNL     1      -6.563   2.389  69.176  1.00  0.00    -0.029 A  
HETATM   23  C   UNL     1      -7.388   3.414  69.586  1.00  0.00    -0.045 A  
HETATM   24  C   UNL     1      -8.332   3.923  68.676  1.00  0.00    -0.091 A  
HETATM   25  C   UNL     1      -8.345   3.401  67.374  1.00  0.00    -0.095 A  
HETATM   26  C   UNL     1      -7.457   2.392  67.004  1.00  0.00    -0.061 A  
HETATM   27  C   UNL     1      -6.553   1.833  67.902  1.00  0.00    -0.028 A  
HETATM   28  F   UNL     1      -7.473   1.950  65.740  1.00  0.00    -0.057 F  
ENDBRANCH  16  19
ENDBRANCH  12  13
ENDBRANCH  11  12
ENDBRANCH  10  11
ENDBRANCH   9  10
ENDBRANCH   4   9
BRANCH   6  29
HETATM   29  C   UNL     1      -9.743  11.449  69.012  1.00  0.00    -0.012 C  
HETATM   30  O   UNL     1     -10.617  12.305  69.140  1.00  0.00    -0.125 OA 
HETATM   31  C   UNL     1      -8.285  11.802  69.170  1.00  0.00     0.281 C  
ENDBRANCH   6  29
ENDBRANCH   2   3
TORSDOF 8
ENDMDL
MODEL      345
REMARK 921   NORMALIZED FREE ENERGY PREDICTED BY IDOCK:   16.79 KCAL/MOL
REMARK 922        TOTAL FREE ENERGY PREDICTED BY IDOCK:   23.85 KCAL/MOL
REMARK 923 INTER-LIGAND FREE ENERGY PREDICTED BY IDOCK:   15.12 KCAL/MOL
REMARK 924 INTRA-LIGAND FREE ENERGY PREDICTED BY IDOCK:    8.73 KCAL/MOL
REMARK 927      BINDING AFFINITY PREDICTED BY RF-SCORE:    0.00 PKD
ROOT
HETATM    1  C   UNL     1     -10.975  13.497  72.332  1.00  0.00     5.915 C  
HETATM    2  O   UNL     1     -11.514  12.519  71.454  1.00  0.00     1.668 OA 
ENDROOT
BRANCH   2   3
HETATM    3  C   UNL     1     -11.145  12.585  70.133  1.00  0.00     0.684 A  
HETATM    4  C   UNL     1     -12.188  12.460  69.197  1.00  0.00    -0.009 A  
HETATM    5  C   UNL     1     -11.901  12.513  67.831  1.00  0.00    -0.383 A  
HETATM    6  C   UNL     1      -9.552  12.835  68.314  1.00  0.00    -0.211 A  
HETATM    7  C   UNL     1      -9.835  12.785  69.685  1.00  0.00     1.511 A  
HETATM    8  C   UNL     1     -10.590  12.712  67.391  1.00  0.00    -0.240 A  
BRANCH   4   9
HETATM    9  O   UNL     1     -13.446  12.246  69.698  1.00  0.00     2.019 OA 
BRANCH   9  10
HETATM   10  C   UNL     1     -13.751  12.777  70.988  1.00  0.00     1.084 C  
BRANCH  10  11
HETATM   11  C   UNL     1     -13.689  14.308  71.018  1.00  0.00    -0.155 C  
BRANCH  11  12
HETATM   12  C   UNL     1     -12.264  14.890  71.064  1.00  0.00    -0.317 C  
BRANCH  12  13
HETATM   13  N   UNL     1     -12.086  15.987  70.107  1.00  0.00    -0.239 NA 
HETATM   14  C   UNL     1     -11.967  15.527  68.718  1.00  0.00    -0.243 C  
HETATM   15  C   UNL     1     -11.999  16.728  67.751  1.00  0.00     1.158 C  
HETATM   16  C   UNL     1     -11.011  17.850  68.130  1.00  0.00    -0.014 C  
HETATM   17  C   UNL     1     -11.172  18.150  69.630  1.00  0.00     2.395 C  
HETATM   18  C   UNL     1     -10.988  16.883  70.455  1.00  0.00     0.397 C  
BRANCH  16  19
HETATM   19  C   UNL     1      -9.576  17.547  67.784  1.00  0.00    -0.269 A  
HETATM   20  N   UNL     1      -8.838  16.734  68.554  1.00  0.00    -0.240 NA 
HETATM   21  O   UNL     1      -7.548  16.815  68.069  1.00  0.00    -0.161 OA 
HETATM   22  C   UNL     1      -7.517  17.658  67.001  1.00  0.00    -0.199 A  
HETATM   23  C   UNL     1      -8.793  18.097  66.725  1.00  0.00    -0.273 A  
HETATM   24  C   UNL     1      -8.988  18.951  65.625  1.00  0.00     0.671 A  
HETATM   25  C   UNL     1      -7.859  19.363  64.899  1.00  0.00     1.665 A  
HETATM   26  C   UNL     1      -6.587  18.918  65.252  1.00  0.00    -0.221 A  
HETATM   27  C   UNL     1      -6.375  18.029  66.300  1.00  0.00    -0.253 A  
HETATM   28  F   UNL     1      -5.531  19.368  64.560  1.00  0.00    -0.186 F  
ENDBRANCH  16  19
ENDBRANCH  12  13
ENDBRANCH  11  12
ENDBRANCH  10  11
ENDBRANCH   9  10
ENDBRANCH   4   9
BRANCH   6  29
HETATM   29  C   UNL     1      -8.135  13.020  67.894  1.00  0.00    -0.158 C  
HETATM   30  O   UNL     1      -7.564  12.117  67.285  1.00  0.00    -0.145 OA 
HETATM   31  C   UNL     1      -7.441  14.331  68.163  1.00  0.00    -0.131 C  
ENDBRANCH   6  29
ENDBRANCH   2   3
TORSDOF 8
ENDMDL
MODEL      346
REMARK 921   NORMALIZED FREE ENERGY PREDICTED BY IDOCK:   18.04 KCAL/MOL
REMARK 922        TOTAL FREE ENERGY PREDICTED BY IDOCK:   25.68 KCAL/MOL
REMARK 923 INTER-LIGAND FREE ENERGY PREDICTED BY IDOCK:   22.31 KCAL/MOL
REMARK 924 INTRA-LIGAND FREE ENERGY PREDICTED BY IDOCK:    3.36 KCAL/MOL
REMARK 927      BINDING AFFINITY PREDICTED BY RF-SCORE:    0.00 PKD
ROOT
HETATM    1  C   UNL     1     -10.593   8.702  68.434  1.00  0.00    -0.120 C  
HETATM    2  O   UNL     1      -9.618   9.474  67.748  1.00  0.00    -0.131 OA 
ENDROOT
BRANCH   2   3
HETATM    3  C   UNL     1      -9.190   9.012  66.529  1.00  0.00    -0.179 A  
HETATM    4  C   UNL     1     -10.195   8.786  65.570  1.00  0.00     1.112 A  
HETATM    5  C   UNL     1      -9.847   8.313  64.303  1.00  0.00     3.285 A  
HETATM    6  C   UNL     1      -7.508   8.308  64.920  1.00  0.00    -0.092 A  
HETATM    7  C   UNL     1      -7.851   8.785  66.192  1.00  0.00    -0.102 A  
HETATM    8  C   UNL     1      -8.508   8.087  63.974  1.00  0.00     0.124 A  
BRANCH   4   9
HETATM    9  O   UNL     1     -11.488   9.007  65.967  1.00  0.00     2.556 OA 
BRANCH   9  10
HETATM   10  C   UNL     1     -11.721  10.012  66.954  1.00  0.00     2.104 C  
BRANCH  10  11
HETATM   11  C   UNL     1     -11.659  11.428  66.371  1.00  0.00     0.080 C  
BRANCH  11  12
HETATM   12  C   UNL     1     -10.769  12.406  67.160  1.00  0.00    -0.235 C  
BRANCH  12  13
HETATM   13  N   UNL     1      -9.999  13.286  66.275  1.00  0.00    -0.286 NA 
HETATM   14  C   UNL     1      -8.629  12.813  66.040  1.00  0.00     0.658 C  
HETATM   15  C   UNL     1      -7.951  13.657  64.942  1.00  0.00     7.915 C  
HETATM   16  C   UNL     1      -8.060  15.177  65.180  1.00  0.00     5.682 C  
HETATM   17  C   UNL     1      -9.522  15.510  65.521  1.00  0.00    -0.168 C  
HETATM   18  C   UNL     1     -10.001  14.681  66.705  1.00  0.00    -0.274 C  
BRANCH  16  19
HETATM   19  C   UNL     1      -7.120  15.703  66.234  1.00  0.00     1.622 A  
HETATM   20  N   UNL     1      -6.203  14.905  66.801  1.00  0.00     0.748 NA 
HETATM   21  O   UNL     1      -5.645  15.635  67.831  1.00  0.00    -0.121 OA 
HETATM   22  C   UNL     1      -6.211  16.871  67.869  1.00  0.00    -0.134 A  
HETATM   23  C   UNL     1      -7.104  17.000  66.828  1.00  0.00    -0.273 A  
HETATM   24  C   UNL     1      -7.771  18.227  66.662  1.00  0.00    -0.261 A  
HETATM   25  C   UNL     1      -7.538  19.240  67.605  1.00  0.00    -0.275 A  
HETATM   26  C   UNL     1      -6.653  19.037  68.662  1.00  0.00    -0.265 A  
HETATM   27  C   UNL     1      -5.939  17.853  68.815  1.00  0.00    -0.192 A  
HETATM   28  F   UNL     1      -6.490  20.014  69.565  1.00  0.00    -0.330 F  
ENDBRANCH  16  19
ENDBRANCH  12  13
ENDBRANCH  11  12
ENDBRANCH  10  11
ENDBRANCH   9  10
ENDBRANCH   4   9
BRANCH   6  29
HETATM   29  C   UNL     1      -6.070   8.056  64.628  1.00  0.00    -0.049 C  
HETATM   30  O   UNL     1      -5.639   8.265  63.495  1.00  0.00    -0.060 OA 
HETATM   31  C   UNL     1      -5.148   7.609  65.736  1.00  0.00    -0.025 C  
ENDBRANCH   6  29
ENDBRANCH   2   3
TORSDOF 8
ENDMDL
MODEL      347
REMARK 921   NORMALIZED FREE ENERGY PREDICTED BY IDOCK:   21.28 KCAL/MOL
REMARK 922        TOTAL FREE ENERGY PREDICTED BY IDOCK:   30.44 KCAL/MOL
REMARK 923 INTER-LIGAND FREE ENERGY PREDICTED BY IDOCK:   -0.84 KCAL/MOL
REMARK 924 INTRA-LIGAND FREE ENERGY PREDICTED BY IDOCK:   31.28 KCAL/MOL
REMARK 927      BINDING AFFINITY PREDICTED BY RF-SCORE:    0.00 PKD
ROOT
HETATM    1  C   UNL     1      -9.180  13.295  68.950  1.00  0.00     0.271 C  
HETATM    2  O   UNL     1      -9.138  14.156  67.821  1.00  0.00    -0.177 OA 
ENDROOT
BRANCH   2   3
HETATM    3  C   UNL     1     -10.220  14.142  66.977  1.00  0.00    -0.260 A  
HETATM    4  C   UNL     1     -11.107  15.228  67.097  1.00  0.00    -0.323 A  
HETATM    5  C   UNL     1     -12.235  15.293  66.277  1.00  0.00     0.587 A  
HETATM    6  C   UNL     1     -11.602  13.220  65.201  1.00  0.00    -0.334 A  
HETATM    7  C   UNL     1     -10.466  13.152  66.019  1.00  0.00    -0.291 A  
HETATM    8  C   UNL     1     -12.477  14.300  65.324  1.00  0.00    -0.428 A  
BRANCH   4   9
HETATM    9  O   UNL     1     -10.821  16.155  68.067  1.00  0.00    -0.312 OA 
BRANCH   9  10
HETATM   10  C   UNL     1      -9.451  16.360  68.411  1.00  0.00    -0.220 C  
BRANCH  10  11
HETATM   11  C   UNL     1      -8.511  15.415  67.653  1.00  0.00    -0.173 C  
BRANCH  11  12
HETATM   12  C   UNL     1      -8.502  13.967  68.178  1.00  0.00    -0.171 C  
BRANCH  12  13
HETATM   13  N   UNL     1      -7.351  13.208  67.677  1.00  0.00    -0.140 NA 
HETATM   14  C   UNL     1      -7.654  12.429  66.471  1.00  0.00     0.468 C  
HETATM   15  C   UNL     1      -6.361  11.833  65.879  1.00  0.00     1.027 C  
HETATM   16  C   UNL     1      -5.500  11.081  66.915  1.00  0.00    -0.073 C  
HETATM   17  C   UNL     1      -5.358  11.969  68.162  1.00  0.00    -0.048 C  
HETATM   18  C   UNL     1      -6.727  12.370  68.696  1.00  0.00    -0.083 C  
BRANCH  16  19
HETATM   19  C   UNL     1      -6.024   9.715  67.273  1.00  0.00    -0.052 A  
HETATM   20  N   UNL     1      -5.685   9.126  68.430  1.00  0.00    -0.038 NA 
HETATM   21  O   UNL     1      -6.177   7.839  68.363  1.00  0.00    -0.038 OA 
HETATM   22  C   UNL     1      -6.825   7.661  67.180  1.00  0.00    -0.068 A  
HETATM   23  C   UNL     1      -6.827   8.845  66.475  1.00  0.00    -0.079 A  
HETATM   24  C   UNL     1      -7.488   8.888  65.234  1.00  0.00    -0.089 A  
HETATM   25  C   UNL     1      -8.060   7.703  64.747  1.00  0.00    -0.121 A  
HETATM   26  C   UNL     1      -7.990   6.524  65.487  1.00  0.00    -0.117 A  
HETATM   27  C   UNL     1      -7.392   6.469  66.742  1.00  0.00    -0.079 A  
HETATM   28  F   UNL     1      -8.511   5.404  64.968  1.00  0.00    -0.129 F  
ENDBRANCH  16  19
ENDBRANCH  12  13
ENDBRANCH  11  12
ENDBRANCH  10  11
ENDBRANCH   9  10
ENDBRANCH   4   9
BRANCH   6  29
HETATM   29  C   UNL     1     -11.830  12.123  64.221  1.00  0.00    -0.378 C  
HETATM   30  O   UNL     1     -12.592  11.203  64.512  1.00  0.00     0.784 OA 
HETATM   31  C   UNL     1     -11.177  12.186  62.863  1.00  0.00     0.246 C  
ENDBRANCH   6  29
ENDBRANCH   2   3
TORSDOF 8
ENDMDL
MODEL      348
REMARK 921   NORMALIZED FREE ENERGY PREDICTED BY IDOCK:   23.34 KCAL/MOL
REMARK 922        TOTAL FREE ENERGY PREDICTED BY IDOCK:   33.46 KCAL/MOL
REMARK 923 INTER-LIGAND FREE ENERGY PREDICTED BY IDOCK:   -2.37 KCAL/MOL
REMARK 924 INTRA-LIGAND FREE ENERGY PREDICTED BY IDOCK:   35.83 KCAL/MOL
REMARK 927      BINDING AFFINITY PREDICTED BY RF-SCORE:    0.00 PKD
ROOT
HETATM    1  C   UNL     1      -8.601  13.493  68.755  1.00  0.00     0.091 C  
HETATM    2  O   UNL     1      -9.135  12.552  67.836  1.00  0.00    -0.183 OA 
ENDROOT
BRANCH   2   3
HETATM    3  C   UNL     1      -9.592  13.032  66.634  1.00  0.00    -0.259 A  
HETATM    4  C   UNL     1      -9.295  14.379  66.358  1.00  0.00    -0.258 A  
HETATM    5  C   UNL     1      -9.723  14.950  65.158  1.00  0.00    -0.023 A  
HETATM    6  C   UNL     1     -10.721  12.850  64.489  1.00  0.00    -0.392 A  
HETATM    7  C   UNL     1     -10.291  12.272  65.690  1.00  0.00    -0.287 A  
HETATM    8  C   UNL     1     -10.423  14.185  64.221  1.00  0.00     0.227 A  
BRANCH   4   9
HETATM    9  O   UNL     1      -8.625  15.076  67.331  1.00  0.00    -0.169 OA 
BRANCH   9  10
HETATM   10  C   UNL     1      -7.770  14.343  68.208  1.00  0.00    -0.129 C  
BRANCH  10  11
HETATM   11  C   UNL     1      -7.934  12.827  68.050  1.00  0.00    -0.160 C  
BRANCH  11  12
HETATM   12  C   UNL     1      -9.134  12.232  68.809  1.00  0.00     0.138 C  
BRANCH  12  13
HETATM   13  N   UNL     1      -8.834  10.906  69.360  1.00  0.00     0.032 NA 
HETATM   14  C   UNL     1      -7.429  10.750  69.754  1.00  0.00    -0.018 C  
HETATM   15  C   UNL     1      -7.229   9.424  70.516  1.00  0.00    -0.126 C  
HETATM   16  C   UNL     1      -7.818   8.200  69.785  1.00  0.00    -0.105 C  
HETATM   17  C   UNL     1      -9.248   8.546  69.338  1.00  0.00    -0.153 C  
HETATM   18  C   UNL     1      -9.256   9.812  68.491  1.00  0.00    -0.134 C  
BRANCH  16  19
HETATM   19  C   UNL     1      -6.984   7.717  68.627  1.00  0.00    -0.067 A  
HETATM   20  N   UNL     1      -5.738   8.175  68.436  1.00  0.00    -0.033 NA 
HETATM   21  O   UNL     1      -5.333   7.680  67.212  1.00  0.00    -0.028 OA 
HETATM   22  C   UNL     1      -6.324   6.914  66.682  1.00  0.00    -0.046 A  
HETATM   23  C   UNL     1      -7.372   6.838  67.572  1.00  0.00    -0.096 A  
HETATM   24  C   UNL     1      -8.489   6.053  67.232  1.00  0.00    -0.104 A  
HETATM   25  C   UNL     1      -8.505   5.436  65.971  1.00  0.00    -0.123 A  
HETATM   26  C   UNL     1      -7.431   5.583  65.095  1.00  0.00    -0.074 A  
HETATM   27  C   UNL     1      -6.292   6.306  65.432  1.00  0.00    -0.038 A  
HETATM   28  F   UNL     1      -7.503   5.012  63.885  1.00  0.00    -0.054 F  
ENDBRANCH  16  19
ENDBRANCH  12  13
ENDBRANCH  11  12
ENDBRANCH  10  11
ENDBRANCH   9  10
ENDBRANCH   4   9
BRANCH   6  29
HETATM   29  C   UNL     1     -11.488  12.002  63.535  1.00  0.00    -0.446 C  
HETATM   30  O   UNL     1     -12.702  11.870  63.686  1.00  0.00    -0.575 OA 
HETATM   31  C   UNL     1     -10.781  11.369  62.362  1.00  0.00     1.219 C  
ENDBRANCH   6  29
ENDBRANCH   2   3
TORSDOF 8
ENDMDL
MODEL      349
REMARK 921   NORMALIZED FREE ENERGY PREDICTED BY IDOCK:   29.92 KCAL/MOL
REMARK 922        TOTAL FREE ENERGY PREDICTED BY IDOCK:   43.11 KCAL/MOL
REMARK 923 INTER-LIGAND FREE ENERGY PREDICTED BY IDOCK:   30.00 KCAL/MOL
REMARK 924 INTRA-LIGAND FREE ENERGY PREDICTED BY IDOCK:   13.12 KCAL/MOL
REMARK 927      BINDING AFFINITY PREDICTED BY RF-SCORE:    0.00 PKD
ROOT
HETATM    1  C   UNL     1     -11.519  11.033  69.179  1.00  0.00    -0.301 C  
HETATM    2  O   UNL     1     -11.130  12.260  68.579  1.00  0.00    -0.218 OA 
ENDROOT
BRANCH   2   3
HETATM    3  C   UNL     1     -11.932  13.352  68.799  1.00  0.00    -0.324 A  
HETATM    4  C   UNL     1     -12.810  13.259  69.895  1.00  0.00     0.430 A  
HETATM    5  C   UNL     1     -13.664  14.325  70.189  1.00  0.00     1.298 A  
HETATM    6  C   UNL     1     -12.768  15.586  68.329  1.00  0.00     1.356 A  
HETATM    7  C   UNL     1     -11.907  14.522  68.031  1.00  0.00    -0.350 A  
HETATM    8  C   UNL     1     -13.635  15.489  69.417  1.00  0.00     2.319 A  
BRANCH   4   9
HETATM    9  O   UNL     1     -12.802  12.081  70.595  1.00  0.00    -0.111 OA 
BRANCH   9  10
HETATM   10  C   UNL     1     -11.778  11.892  71.572  1.00  0.00     1.747 C  
BRANCH  10  11
HETATM   11  C   UNL     1     -10.772  13.049  71.594  1.00  0.00     6.758 C  
BRANCH  11  12
HETATM   12  C   UNL     1      -9.994  13.244  70.279  1.00  0.00     3.201 C  
BRANCH  12  13
HETATM   13  N   UNL     1      -9.472  14.608  70.147  1.00  0.00     0.645 NA 
HETATM   14  C   UNL     1     -10.179  15.401  69.134  1.00  0.00    -0.239 C  
HETATM   15  C   UNL     1      -9.729  16.874  69.195  1.00  0.00    -0.177 C  
HETATM   16  C   UNL     1      -8.197  17.051  69.176  1.00  0.00    -0.034 C  
HETATM   17  C   UNL     1      -7.586  16.086  70.205  1.00  0.00     1.168 C  
HETATM   18  C   UNL     1      -8.029  14.655  69.931  1.00  0.00     0.367 C  
BRANCH  16  19
HETATM   19  C   UNL     1      -7.574  16.867  67.817  1.00  0.00    -0.169 A  
HETATM   20  N   UNL     1      -7.222  15.649  67.378  1.00  0.00    -0.191 NA 
HETATM   21  O   UNL     1      -6.530  15.852  66.202  1.00  0.00     0.823 OA 
HETATM   22  C   UNL     1      -6.484  17.183  65.925  1.00  0.00     0.289 A  
HETATM   23  C   UNL     1      -7.198  17.875  66.879  1.00  0.00    -0.221 A  
HETATM   24  C   UNL     1      -7.311  19.271  66.753  1.00  0.00    -0.229 A  
HETATM   25  C   UNL     1      -6.637  19.897  65.694  1.00  0.00    -0.282 A  
HETATM   26  C   UNL     1      -5.895  19.148  64.783  1.00  0.00    -0.275 A  
HETATM   27  C   UNL     1      -5.815  17.761  64.852  1.00  0.00     0.585 A  
HETATM   28  F   UNL     1      -5.232  19.788  63.810  1.00  0.00    -0.177 F  
ENDBRANCH  16  19
ENDBRANCH  12  13
ENDBRANCH  11  12
ENDBRANCH  10  11
ENDBRANCH   9  10
ENDBRANCH   4   9
BRANCH   6  29
HETATM   29  C   UNL     1     -12.719  16.794  67.460  1.00  0.00     3.887 C  
HETATM   30  O   UNL     1     -12.488  17.892  67.964  1.00  0.00     2.851 OA 
HETATM   31  C   UNL     1     -12.891  16.650  65.968  1.00  0.00     5.571 C  
ENDBRANCH   6  29
ENDBRANCH   2   3
TORSDOF 8
ENDMDL
MODEL      350
REMARK 921   NORMALIZED FREE ENERGY PREDICTED BY IDOCK:   31.08 KCAL/MOL
REMARK 922        TOTAL FREE ENERGY PREDICTED BY IDOCK:   44.82 KCAL/MOL
REMARK 923 INTER-LIGAND FREE ENERGY PREDICTED BY IDOCK:   14.98 KCAL/MOL
REMARK 924 INTRA-LIGAND FREE ENERGY PREDICTED BY IDOCK:   29.84 KCAL/MOL
REMARK 927      BINDING AFFINITY PREDICTED BY RF-SCORE:    0.00 PKD
ROOT
HETATM    1  C   UNL     1      -8.602  13.490  68.760  1.00  0.00     0.091 C  
HETATM    2  O   UNL     1      -9.093  12.455  67.920  1.00  0.00    -0.176 OA 
ENDROOT
BRANCH   2   3
HETATM    3  C   UNL     1      -9.521  12.810  66.665  1.00  0.00    -0.249 A  
HETATM    4  C   UNL     1      -9.246  14.134  66.274  1.00  0.00    -0.123 A  
HETATM    5  C   UNL     1      -9.649  14.580  65.014  1.00  0.00     0.371 A  
HETATM    6  C   UNL     1     -10.577  12.402  64.513  1.00  0.00    -0.352 A  
HETATM    7  C   UNL     1     -10.172  11.949  65.776  1.00  0.00    -0.276 A  
HETATM    8  C   UNL     1     -10.301  13.714  64.131  1.00  0.00     0.160 A  
BRANCH   4   9
HETATM    9  O   UNL     1      -8.624  14.935  67.197  1.00  0.00    -0.197 OA 
BRANCH   9  10
HETATM   10  C   UNL     1      -8.511  14.449  68.535  1.00  0.00    -0.170 C  
BRANCH  10  11
HETATM   11  C   UNL     1      -9.372  13.203  68.777  1.00  0.00     0.122 C  
BRANCH  11  12
HETATM   12  C   UNL     1     -10.864  13.496  69.019  1.00  0.00    -0.192 C  
BRANCH  12  13
HETATM   13  N   UNL     1     -11.436  12.619  70.047  1.00  0.00    -0.102 NA 
HETATM   14  C   UNL     1     -10.479  12.265  71.102  1.00  0.00     6.362 C  
HETATM   15  C   UNL     1     -11.195  11.528  72.251  1.00  0.00     6.729 C  
HETATM   16  C   UNL     1     -12.071  10.351  71.775  1.00  0.00    -0.104 C  
HETATM   17  C   UNL     1     -12.939  10.837  70.603  1.00  0.00    -0.313 C  
HETATM   18  C   UNL     1     -12.071  11.425  69.498  1.00  0.00    -0.302 C  
BRANCH  16  19
HETATM   19  C   UNL     1     -11.291   9.117  71.403  1.00  0.00    -0.344 A  
HETATM   20  N   UNL     1     -10.764   8.323  72.347  1.00  0.00    -0.321 NA 
HETATM   21  O   UNL     1      -9.977   7.406  71.679  1.00  0.00    -0.177 OA 
HETATM   22  C   UNL     1     -10.047   7.637  70.340  1.00  0.00    -0.190 A  
HETATM   23  C   UNL     1     -10.929   8.667  70.098  1.00  0.00    -0.234 A  
HETATM   24  C   UNL     1     -11.180   9.039  68.764  1.00  0.00     0.277 A  
HETATM   25  C   UNL     1     -10.469   8.380  67.749  1.00  0.00    -0.284 A  
HETATM   26  C   UNL     1      -9.557   7.373  68.059  1.00  0.00    -0.141 A  
HETATM   27  C   UNL     1      -9.335   6.949  69.365  1.00  0.00    -0.146 A  
HETATM   28  F   UNL     1      -8.868   6.798  67.064  1.00  0.00    -0.111 F  
ENDBRANCH  16  19
ENDBRANCH  12  13
ENDBRANCH  11  12
ENDBRANCH  10  11
ENDBRANCH   9  10
ENDBRANCH   4   9
BRANCH   6  29
HETATM   29  C   UNL     1     -11.293  11.450  63.620  1.00  0.00    -0.206 C  
HETATM   30  O   UNL     1     -11.137  11.531  62.403  1.00  0.00     0.939 OA 
HETATM   31  C   UNL     1     -12.148  10.361  64.220  1.00  0.00     4.634 C  
ENDBRANCH   6  29
ENDBRANCH   2   3
TORSDOF 8
ENDMDL
MODEL      351
REMARK 921   NORMALIZED FREE ENERGY PREDICTED BY IDOCK:   39.06 KCAL/MOL
REMARK 922        TOTAL FREE ENERGY PREDICTED BY IDOCK:   56.53 KCAL/MOL
REMARK 923 INTER-LIGAND FREE ENERGY PREDICTED BY IDOCK:   28.38 KCAL/MOL
REMARK 924 INTRA-LIGAND FREE ENERGY PREDICTED BY IDOCK:   28.15 KCAL/MOL
REMARK 927      BINDING AFFINITY PREDICTED BY RF-SCORE:    0.00 PKD
ROOT
HETATM    1  C   UNL     1      -9.732  17.578  65.608  1.00  0.00     0.249 C  
HETATM    2  O   UNL     1      -9.755  18.255  66.856  1.00  0.00    -0.291 OA 
ENDROOT
BRANCH   2   3
HETATM    3  C   UNL     1      -9.590  17.498  67.988  1.00  0.00    -0.282 A  
HETATM    4  C   UNL     1     -10.482  16.420  68.142  1.00  0.00    -0.302 A  
HETATM    5  C   UNL     1     -10.386  15.598  69.267  1.00  0.00    -0.250 A  
HETATM    6  C   UNL     1      -8.511  16.892  70.082  1.00  0.00     2.215 A  
HETATM    7  C   UNL     1      -8.601  17.718  68.953  1.00  0.00    -0.127 A  
HETATM    8  C   UNL     1      -9.397  15.825  70.227  1.00  0.00     0.726 A  
BRANCH   4   9
HETATM    9  O   UNL     1     -11.441  16.269  67.173  1.00  0.00     0.116 OA 
BRANCH   9  10
HETATM   10  C   UNL     1     -11.049  15.682  65.932  1.00  0.00    -0.155 C  
BRANCH  10  11
HETATM   11  C   UNL     1     -12.100  14.704  65.393  1.00  0.00    -0.250 C  
BRANCH  11  12
HETATM   12  C   UNL     1     -12.645  13.712  66.438  1.00  0.00    -0.235 C  
BRANCH  12  13
HETATM   13  N   UNL     1     -11.864  13.737  67.679  1.00  0.00    -0.365 NA 
HETATM   14  C   UNL     1     -10.553  14.376  67.523  1.00  0.00    -0.265 C  
HETATM   15  C   UNL     1      -9.879  14.561  68.898  1.00  0.00    -0.191 C  
HETATM   16  C   UNL     1      -9.855  13.274  69.749  1.00  0.00     1.658 C  
HETATM   17  C   UNL     1     -11.263  12.657  69.733  1.00  0.00     0.005 C  
HETATM   18  C   UNL     1     -11.733  12.423  68.303  1.00  0.00    -0.345 C  
BRANCH  16  19
HETATM   19  C   UNL     1      -8.815  12.273  69.318  1.00  0.00     0.899 A  
HETATM   20  N   UNL     1      -8.675  11.934  68.028  1.00  0.00    -0.165 NA 
HETATM   21  O   UNL     1      -7.781  10.883  68.003  1.00  0.00    -0.097 OA 
HETATM   22  C   UNL     1      -7.372  10.605  69.270  1.00  0.00    -0.119 A  
HETATM   23  C   UNL     1      -7.939  11.506  70.144  1.00  0.00     2.117 A  
HETATM   24  C   UNL     1      -7.610  11.418  71.509  1.00  0.00     7.216 A  
HETATM   25  C   UNL     1      -6.766  10.375  71.921  1.00  0.00     1.972 A  
HETATM   26  C   UNL     1      -6.255   9.467  70.995  1.00  0.00    -0.079 A  
HETATM   27  C   UNL     1      -6.520   9.567  69.633  1.00  0.00    -0.041 A  
HETATM   28  F   UNL     1      -5.488   8.460  71.434  1.00  0.00    -0.032 F  
ENDBRANCH  16  19
ENDBRANCH  12  13
ENDBRANCH  11  12
ENDBRANCH  10  11
ENDBRANCH   9  10
ENDBRANCH   4   9
BRANCH   6  29
HETATM   29  C   UNL     1      -7.458  17.192  71.091  1.00  0.00     5.697 C  
HETATM   30  O   UNL     1      -7.441  16.565  72.149  1.00  0.00     8.042 OA 
HETATM   31  C   UNL     1      -6.391  18.211  70.778  1.00  0.00     1.059 C  
ENDBRANCH   6  29
ENDBRANCH   2   3
TORSDOF 8
ENDMDL
MODEL      352
REMARK 921   NORMALIZED FREE ENERGY PREDICTED BY IDOCK:   39.86 KCAL/MOL
REMARK 922        TOTAL FREE ENERGY PREDICTED BY IDOCK:   57.71 KCAL/MOL
REMARK 923 INTER-LIGAND FREE ENERGY PREDICTED BY IDOCK:   30.25 KCAL/MOL
REMARK 924 INTRA-LIGAND FREE ENERGY PREDICTED BY IDOCK:   27.46 KCAL/MOL
REMARK 927      BINDING AFFINITY PREDICTED BY RF-SCORE:    0.00 PKD
ROOT
HETATM    1  C   UNL     1     -11.112  17.604  66.807  1.00  0.00     0.387 C  
HETATM    2  O   UNL     1     -10.611  16.669  67.752  1.00  0.00    -0.325 OA 
ENDROOT
BRANCH   2   3
HETATM    3  C   UNL     1      -9.509  17.038  68.481  1.00  0.00    -0.269 A  
HETATM    4  C   UNL     1      -9.404  18.408  68.786  1.00  0.00    -0.279 A  
HETATM    5  C   UNL     1      -8.312  18.871  69.524  1.00  0.00     0.393 A  
HETATM    6  C   UNL     1      -7.435  16.621  69.680  1.00  0.00     0.271 A  
HETATM    7  C   UNL     1      -8.530  16.151  68.943  1.00  0.00    -0.241 A  
HETATM    8  C   UNL     1      -7.337  17.980  69.980  1.00  0.00     1.180 A  
BRANCH   4   9
HETATM    9  O   UNL     1     -10.384  19.228  68.289  1.00  0.00    -0.404 OA 
BRANCH   9  10
HETATM   10  C   UNL     1     -11.283  18.685  67.322  1.00  0.00     0.302 C  
BRANCH  10  11
HETATM   11  C   UNL     1     -12.724  19.164  67.532  1.00  0.00     5.479 C  
BRANCH  11  12
HETATM   12  C   UNL     1     -13.800  18.106  67.227  1.00  0.00    10.785 C  
BRANCH  12  13
HETATM   13  N   UNL     1     -13.440  16.787  67.758  1.00  0.00     5.369 NA 
HETATM   14  C   UNL     1     -12.372  16.842  68.764  1.00  0.00     1.857 C  
HETATM   15  C   UNL     1     -12.193  15.463  69.431  1.00  0.00    -0.250 C  
HETATM   16  C   UNL     1     -12.048  14.306  68.422  1.00  0.00    -0.297 C  
HETATM   17  C   UNL     1     -13.162  14.438  67.371  1.00  0.00     3.090 C  
HETATM   18  C   UNL     1     -13.125  15.813  66.717  1.00  0.00     3.924 C  
BRANCH  16  19
HETATM   19  C   UNL     1     -10.691  14.223  67.773  1.00  0.00    -0.251 A  
HETATM   20  N   UNL     1     -10.319  15.109  66.837  1.00  0.00    -0.267 NA 
HETATM   21  O   UNL     1      -9.120  14.648  66.330  1.00  0.00    -0.251 OA 
HETATM   22  C   UNL     1      -8.766  13.502  66.972  1.00  0.00    -0.187 A  
HETATM   23  C   UNL     1      -9.690  13.222  67.955  1.00  0.00    -0.224 A  
HETATM   24  C   UNL     1      -9.485  12.094  68.769  1.00  0.00     0.048 A  
HETATM   25  C   UNL     1      -8.379  11.273  68.497  1.00  0.00    -0.155 A  
HETATM   26  C   UNL     1      -7.501  11.586  67.462  1.00  0.00    -0.116 A  
HETATM   27  C   UNL     1      -7.650  12.726  66.680  1.00  0.00     0.518 A  
HETATM   28  F   UNL     1      -6.481  10.754  67.208  1.00  0.00    -0.061 F  
ENDBRANCH  16  19
ENDBRANCH  12  13
ENDBRANCH  11  12
ENDBRANCH  10  11
ENDBRANCH   9  10
ENDBRANCH   4   9
BRANCH   6  29
HETATM   29  C   UNL     1      -6.408  15.637  70.119  1.00  0.00    -0.056 C  
HETATM   30  O   UNL     1      -5.221  15.961  70.118  1.00  0.00    -0.128 OA 
HETATM   31  C   UNL     1      -6.838  14.280  70.619  1.00  0.00     0.410 C  
ENDBRANCH   6  29
ENDBRANCH   2   3
TORSDOF 8
ENDMDL
MODEL      353
REMARK 921   NORMALIZED FREE ENERGY PREDICTED BY IDOCK:   41.25 KCAL/MOL
REMARK 922        TOTAL FREE ENERGY PREDICTED BY IDOCK:   59.75 KCAL/MOL
REMARK 923 INTER-LIGAND FREE ENERGY PREDICTED BY IDOCK:   19.10 KCAL/MOL
REMARK 924 INTRA-LIGAND FREE ENERGY PREDICTED BY IDOCK:   40.64 KCAL/MOL
REMARK 927      BINDING AFFINITY PREDICTED BY RF-SCORE:    0.00 PKD
ROOT
HETATM    1  C   UNL     1      -7.936  13.543  71.180  1.00  0.00     6.483 C  
HETATM    2  O   UNL     1      -8.088  14.530  70.169  1.00  0.00     0.487 OA 
ENDROOT
BRANCH   2   3
HETATM    3  C   UNL     1      -9.320  14.639  69.574  1.00  0.00     0.204 A  
HETATM    4  C   UNL     1     -10.127  15.701  70.023  1.00  0.00    -0.210 A  
HETATM    5  C   UNL     1     -11.397  15.885  69.472  1.00  0.00    -0.335 A  
HETATM    6  C   UNL     1     -11.067  13.981  68.016  1.00  0.00    -0.282 A  
HETATM    7  C   UNL     1      -9.790  13.794  68.563  1.00  0.00    -0.204 A  
HETATM    8  C   UNL     1     -11.861  15.036  68.463  1.00  0.00    -0.319 A  
BRANCH   4   9
HETATM    9  O   UNL     1      -9.618  16.482  71.029  1.00  0.00     2.656 OA 
BRANCH   9  10
HETATM   10  C   UNL     1      -8.219  16.393  71.300  1.00  0.00     6.351 C  
BRANCH  10  11
HETATM   11  C   UNL     1      -7.506  15.408  70.366  1.00  0.00     0.691 C  
BRANCH  11  12
HETATM   12  C   UNL     1      -7.657  13.928  70.762  1.00  0.00     2.690 C  
BRANCH  12  13
HETATM   13  N   UNL     1      -6.846  13.047  69.915  1.00  0.00     0.234 NA 
HETATM   14  C   UNL     1      -7.539  12.624  68.692  1.00  0.00    -0.083 C  
HETATM   15  C   UNL     1      -6.566  11.884  67.753  1.00  0.00    -0.084 C  
HETATM   16  C   UNL     1      -5.775  10.758  68.450  1.00  0.00    -0.043 C  
HETATM   17  C   UNL     1      -5.199  11.312  69.764  1.00  0.00    -0.051 C  
HETATM   18  C   UNL     1      -6.306  11.896  70.632  1.00  0.00     0.560 C  
BRANCH  16  19
HETATM   19  C   UNL     1      -6.574   9.504  68.690  1.00  0.00    -0.052 A  
HETATM   20  N   UNL     1      -6.193   8.608  69.613  1.00  0.00    -0.035 NA 
HETATM   21  O   UNL     1      -7.022   7.516  69.452  1.00  0.00    -0.054 OA 
HETATM   22  C   UNL     1      -7.909   7.764  68.451  1.00  0.00    -0.121 A  
HETATM   23  C   UNL     1      -7.722   9.044  67.977  1.00  0.00    -0.097 A  
HETATM   24  C   UNL     1      -8.571   9.516  66.960  1.00  0.00    -0.131 A  
HETATM   25  C   UNL     1      -9.529   8.635  66.435  1.00  0.00    -0.295 A  
HETATM   26  C   UNL     1      -9.643   7.336  66.926  1.00  0.00    -0.174 A  
HETATM   27  C   UNL     1      -8.854   6.864  67.970  1.00  0.00    -0.123 A  
HETATM   28  F   UNL     1     -10.541   6.512  66.369  1.00  0.00    -0.245 F  
ENDBRANCH  16  19
ENDBRANCH  12  13
ENDBRANCH  11  12
ENDBRANCH  10  11
ENDBRANCH   9  10
ENDBRANCH   4   9
BRANCH   6  29
HETATM   29  C   UNL     1     -11.527  13.033  66.964  1.00  0.00    -0.333 C  
HETATM   30  O   UNL     1     -10.897  12.946  65.912  1.00  0.00    -0.268 OA 
HETATM   31  C   UNL     1     -12.720  12.147  67.226  1.00  0.00     2.289 C  
ENDBRANCH   6  29
ENDBRANCH   2   3
TORSDOF 8
ENDMDL
MODEL      354
REMARK 921   NORMALIZED FREE ENERGY PREDICTED BY IDOCK:   44.18 KCAL/MOL
REMARK 922        TOTAL FREE ENERGY PREDICTED BY IDOCK:   64.05 KCAL/MOL
REMARK 923 INTER-LIGAND FREE ENERGY PREDICTED BY IDOCK:   22.09 KCAL/MOL
REMARK 924 INTRA-LIGAND FREE ENERGY PREDICTED BY IDOCK:   41.96 KCAL/MOL
REMARK 927      BINDING AFFINITY PREDICTED BY RF-SCORE:    0.00 PKD
ROOT
HETATM    1  C   UNL     1      -7.960  13.544  71.208  1.00  0.00     7.101 C  
HETATM    2  O   UNL     1      -8.100  14.602  70.272  1.00  0.00     0.533 OA 
ENDROOT
BRANCH   2   3
HETATM    3  C   UNL     1      -9.352  14.828  69.757  1.00  0.00     0.303 A  
HETATM    4  C   UNL     1     -10.301  15.348  70.656  1.00  0.00     0.105 A  
HETATM    5  C   UNL     1     -11.602  15.606  70.216  1.00  0.00    -0.370 A  
HETATM    6  C   UNL     1     -11.021  14.859  67.989  1.00  0.00    -0.282 A  
HETATM    7  C   UNL     1      -9.715  14.601  68.425  1.00  0.00    -0.217 A  
HETATM    8  C   UNL     1     -11.958  15.374  68.885  1.00  0.00    -0.298 A  
BRANCH   4   9
HETATM    9  O   UNL     1      -9.891  15.530  71.952  1.00  0.00     2.122 OA 
BRANCH   9  10
HETATM   10  C   UNL     1      -8.497  15.402  72.235  1.00  0.00     7.809 C  
BRANCH  10  11
HETATM   11  C   UNL     1      -7.679  15.051  70.987  1.00  0.00     2.096 C  
BRANCH  11  12
HETATM   12  C   UNL     1      -7.785  13.579  70.546  1.00  0.00     3.028 C  
BRANCH  12  13
HETATM   13  N   UNL     1      -6.926  13.287  69.393  1.00  0.00     0.012 NA 
HETATM   14  C   UNL     1      -7.561  13.599  68.107  1.00  0.00    -0.137 C  
HETATM   15  C   UNL     1      -6.539  13.474  66.960  1.00  0.00     0.754 C  
HETATM   16  C   UNL     1      -5.761  12.142  66.971  1.00  0.00    -0.086 C  
HETATM   17  C   UNL     1      -5.249  11.893  68.400  1.00  0.00    -0.046 C  
HETATM   18  C   UNL     1      -6.399  11.926  69.397  1.00  0.00    -0.115 C  
BRANCH  16  19
HETATM   19  C   UNL     1      -6.551  10.965  66.461  1.00  0.00    -0.127 A  
HETATM   20  N   UNL     1      -6.189   9.709  66.759  1.00  0.00    -0.064 NA 
HETATM   21  O   UNL     1      -6.998   8.887  66.001  1.00  0.00    -0.081 OA 
HETATM   22  C   UNL     1      -7.854   9.646  65.266  1.00  0.00    -0.115 A  
HETATM   23  C   UNL     1      -7.669  10.976  65.574  1.00  0.00     0.153 A  
HETATM   24  C   UNL     1      -8.490  11.932  64.949  1.00  0.00     1.166 A  
HETATM   25  C   UNL     1      -9.418  11.486  63.995  1.00  0.00    -0.120 A  
HETATM   26  C   UNL     1      -9.532  10.130  63.695  1.00  0.00    -0.267 A  
HETATM   27  C   UNL     1      -8.771   9.160  64.340  1.00  0.00    -0.184 A  
HETATM   28  F   UNL     1     -10.400   9.749  62.748  1.00  0.00     0.532 F  
ENDBRANCH  16  19
ENDBRANCH  12  13
ENDBRANCH  11  12
ENDBRANCH  10  11
ENDBRANCH   9  10
ENDBRANCH   4   9
BRANCH   6  29
HETATM   29  C   UNL     1     -11.359  14.569  66.569  1.00  0.00    -0.352 C  
HETATM   30  O   UNL     1     -10.755  15.155  65.673  1.00  0.00    -0.323 OA 
HETATM   31  C   UNL     1     -12.391  13.516  66.245  1.00  0.00    -0.440 C  
ENDBRANCH   6  29
ENDBRANCH   2   3
TORSDOF 8
ENDMDL
MODEL      355
REMARK 921   NORMALIZED FREE ENERGY PREDICTED BY IDOCK:   49.82 KCAL/MOL
REMARK 922        TOTAL FREE ENERGY PREDICTED BY IDOCK:   72.32 KCAL/MOL
REMARK 923 INTER-LIGAND FREE ENERGY PREDICTED BY IDOCK:   20.30 KCAL/MOL
REMARK 924 INTRA-LIGAND FREE ENERGY PREDICTED BY IDOCK:   52.02 KCAL/MOL
REMARK 927      BINDING AFFINITY PREDICTED BY RF-SCORE:    0.00 PKD
ROOT
HETATM    1  C   UNL     1     -10.049  17.535  64.822  1.00  0.00     2.376 C  
HETATM    2  O   UNL     1      -8.721  18.038  64.796  1.00  0.00     2.920 OA 
ENDROOT
BRANCH   2   3
HETATM    3  C   UNL     1      -7.965  17.882  65.931  1.00  0.00    -0.023 A  
HETATM    4  C   UNL     1      -7.750  19.046  66.691  1.00  0.00    -0.247 A  
HETATM    5  C   UNL     1      -6.990  18.977  67.861  1.00  0.00    -0.250 A  
HETATM    6  C   UNL     1      -6.670  16.600  67.541  1.00  0.00    -0.181 A  
HETATM    7  C   UNL     1      -7.435  16.663  66.369  1.00  0.00    -0.260 A  
HETATM    8  C   UNL     1      -6.462  17.757  68.291  1.00  0.00    -0.191 A  
BRANCH   4   9
HETATM    9  O   UNL     1      -8.278  20.212  66.199  1.00  0.00    -0.287 OA 
BRANCH   9  10
HETATM   10  C   UNL     1      -9.026  20.146  64.985  1.00  0.00     1.588 C  
BRANCH  10  11
HETATM   11  C   UNL     1     -10.499  20.523  65.186  1.00  0.00     0.636 C  
BRANCH  11  12
HETATM   12  C   UNL     1     -11.304  19.523  66.036  1.00  0.00     0.578 C  
BRANCH  12  13
HETATM   13  N   UNL     1     -10.646  18.215  66.118  1.00  0.00    -0.343 NA 
HETATM   14  C   UNL     1      -9.851  17.894  64.926  1.00  0.00     2.741 C  
HETATM   15  C   UNL     1      -9.021  16.617  65.163  1.00  0.00     1.966 C  
HETATM   16  C   UNL     1      -9.852  15.434  65.703  1.00  0.00    -0.387 C  
HETATM   17  C   UNL     1     -10.711  15.942  66.873  1.00  0.00    -0.289 C  
HETATM   18  C   UNL     1     -11.564  17.127  66.440  1.00  0.00     1.596 C  
BRANCH  16  19
HETATM   19  C   UNL     1     -10.697  14.751  64.660  1.00  0.00    -0.254 A  
HETATM   20  N   UNL     1     -10.969  15.350  63.491  1.00  0.00     1.482 NA 
HETATM   21  O   UNL     1     -11.896  14.547  62.857  1.00  0.00     0.946 OA 
HETATM   22  C   UNL     1     -12.164  13.463  63.633  1.00  0.00    -0.414 A  
HETATM   23  C   UNL     1     -11.373  13.498  64.761  1.00  0.00    -0.362 A  
HETATM   24  C   UNL     1     -11.466  12.438  65.681  1.00  0.00    -0.412 A  
HETATM   25  C   UNL     1     -12.407  11.427  65.434  1.00  0.00     1.652 A  
HETATM   26  C   UNL     1     -13.210  11.467  64.295  1.00  0.00     1.759 A  
HETATM   27  C   UNL     1     -13.097  12.473  63.342  1.00  0.00     0.220 A  
HETATM   28  F   UNL     1     -14.125  10.505  64.117  1.00  0.00     3.358 F  
ENDBRANCH  16  19
ENDBRANCH  12  13
ENDBRANCH  11  12
ENDBRANCH  10  11
ENDBRANCH   9  10
ENDBRANCH   4   9
BRANCH   6  29
HETATM   29  C   UNL     1      -6.105  15.283  67.943  1.00  0.00    -0.153 C  
HETATM   30  O   UNL     1      -5.398  15.210  68.947  1.00  0.00    -0.093 OA 
HETATM   31  C   UNL     1      -6.458  14.046  67.155  1.00  0.00     0.627 C  
ENDBRANCH   6  29
ENDBRANCH   2   3
TORSDOF 8
ENDMDL
MODEL      356
REMARK 921   NORMALIZED FREE ENERGY PREDICTED BY IDOCK:   55.55 KCAL/MOL
REMARK 922        TOTAL FREE ENERGY PREDICTED BY IDOCK:   80.73 KCAL/MOL
REMARK 923 INTER-LIGAND FREE ENERGY PREDICTED BY IDOCK:   34.06 KCAL/MOL
REMARK 924 INTRA-LIGAND FREE ENERGY PREDICTED BY IDOCK:   46.67 KCAL/MOL
REMARK 927      BINDING AFFINITY PREDICTED BY RF-SCORE:    0.00 PKD
ROOT
HETATM    1  C   UNL     1      -7.283  13.379  72.112  1.00  0.00     6.509 C  
HETATM    2  O   UNL     1      -7.455  14.534  71.304  1.00  0.00     1.605 OA 
ENDROOT
BRANCH   2   3
HETATM    3  C   UNL     1      -8.725  14.819  70.871  1.00  0.00     2.765 A  
HETATM    4  C   UNL     1      -9.631  15.245  71.860  1.00  0.00     4.017 A  
HETATM    5  C   UNL     1     -10.946  15.554  71.507  1.00  0.00    -0.151 A  
HETATM    6  C   UNL     1     -10.469  15.042  69.191  1.00  0.00    -0.247 A  
HETATM    7  C   UNL     1      -9.147  14.734  69.539  1.00  0.00     0.117 A  
HETATM    8  C   UNL     1     -11.361  15.465  70.176  1.00  0.00    -0.321 A  
BRANCH   4   9
HETATM    9  O   UNL     1      -9.163  15.288  73.148  1.00  0.00     6.851 OA 
BRANCH   9  10
HETATM   10  C   UNL     1      -7.765  15.085  73.359  1.00  0.00     7.945 C  
BRANCH  10  11
HETATM   11  C   UNL     1      -7.001  14.887  72.044  1.00  0.00     2.382 C  
BRANCH  11  12
HETATM   12  C   UNL     1      -7.284  13.549  71.336  1.00  0.00     4.199 C  
BRANCH  12  13
HETATM   13  N   UNL     1      -6.653  13.483  70.013  1.00  0.00     0.032 NA 
HETATM   14  C   UNL     1      -7.463  14.101  68.956  1.00  0.00    -0.082 C  
HETATM   15  C   UNL     1      -6.657  14.189  67.645  1.00  0.00    -0.173 C  
HETATM   16  C   UNL     1      -5.999  12.855  67.236  1.00  0.00     0.025 C  
HETATM   17  C   UNL     1      -5.281  12.273  68.465  1.00  0.00    -0.051 C  
HETATM   18  C   UNL     1      -6.245  12.134  69.636  1.00  0.00    -0.131 C  
BRANCH  16  19
HETATM   19  C   UNL     1      -6.956  11.857  66.638  1.00  0.00     0.087 A  
HETATM   20  N   UNL     1      -8.137  12.247  66.138  1.00  0.00     0.427 NA 
HETATM   21  O   UNL     1      -8.829  11.089  65.845  1.00  0.00    -0.188 OA 
HETATM   22  C   UNL     1      -8.059  10.010  66.150  1.00  0.00    -0.122 A  
HETATM   23  C   UNL     1      -6.825  10.436  66.589  1.00  0.00    -0.099 A  
HETATM   24  C   UNL     1      -5.858   9.469  66.919  1.00  0.00    -0.055 A  
HETATM   25  C   UNL     1      -6.222   8.116  66.844  1.00  0.00    -0.055 A  
HETATM   26  C   UNL     1      -7.501   7.746  66.432  1.00  0.00    -0.084 A  
HETATM   27  C   UNL     1      -8.456   8.681  66.046  1.00  0.00    -0.151 A  
HETATM   28  F   UNL     1      -7.822   6.446  66.413  1.00  0.00    -0.096 F  
ENDBRANCH  16  19
ENDBRANCH  12  13
ENDBRANCH  11  12
ENDBRANCH  10  11
ENDBRANCH   9  10
ENDBRANCH   4   9
BRANCH   6  29
HETATM   29  C   UNL     1     -10.871  14.904  67.764  1.00  0.00    -0.286 C  
HETATM   30  O   UNL     1     -11.507  13.914  67.409  1.00  0.00    -0.313 OA 
HETATM   31  C   UNL     1     -10.549  16.008  66.787  1.00  0.00    -0.297 C  
ENDBRANCH   6  29
ENDBRANCH   2   3
TORSDOF 8
ENDMDL
