MODEL        1
REMARK 921   NORMALIZED FREE ENERGY PREDICTED BY IDOCK:   -6.87 KCAL/MOL
REMARK 922        TOTAL FREE ENERGY PREDICTED BY IDOCK:  -10.63 KCAL/MOL
REMARK 923 INTER-LIGAND FREE ENERGY PREDICTED BY IDOCK:   -9.28 KCAL/MOL
REMARK 924 INTRA-LIGAND FREE ENERGY PREDICTED BY IDOCK:   -1.35 KCAL/MOL
REMARK 927      BINDING AFFINITY PREDICTED BY RF-SCORE:    0.00 PKD
ROOT
HETATM    1  C   UNL     1      -9.738  15.191  67.630  1.00  0.00    -0.211 C  
HETATM    2  C   UNL     1     -10.181  14.139  68.634  1.00  0.00    -0.238 C  
HETATM    3  C   UNL     1     -11.605  13.762  68.220  1.00  0.00    -0.338 C  
HETATM    4  C   UNL     1     -11.734  14.122  66.724  1.00  0.00    -0.432 C  
HETATM    5  O   UNL     1     -12.553  14.531  68.960  1.00  0.00    -0.568 OA 
HETATM    6  H   UNL     1     -13.438  14.297  68.702  1.00  0.00     0.000 HD 
HETATM    7  C   UNL     1     -10.389  14.768  66.315  1.00  0.00    -0.305 C  
HETATM    8  C   UNL     1     -10.281  16.588  67.910  1.00  0.00    -0.273 C  
HETATM    9  C   UNL     1     -10.613  18.467  66.266  1.00  0.00    -0.370 C  
HETATM   10  C   UNL     1     -10.521  16.061  65.503  1.00  0.00    -0.426 C  
HETATM   11  C   UNL     1     -10.502  17.157  66.537  1.00  0.00    -0.255 C  
ENDROOT
BRANCH   4  12
HETATM   12  C   UNL     1     -12.004  12.907  65.868  1.00  0.00    -0.504 C  
HETATM   13  C   UNL     1     -11.118  12.455  64.967  1.00  0.00    -0.344 C  
BRANCH  13  14
HETATM   14  C   UNL     1     -11.253  11.164  64.219  1.00  0.00     0.009 C  
HETATM   15  O   UNL     1     -12.131  11.391  63.123  1.00  0.00    -0.900 OA 
HETATM   16  C   UNL     1      -9.893  10.629  63.705  1.00  0.00    -0.394 C  
HETATM   17  H   UNL     1     -12.217  10.573  62.649  1.00  0.00     0.000 HD 
HETATM   18  C   UNL     1      -8.920  10.309  64.858  1.00  0.00    -0.231 C  
HETATM   19  C   UNL     1      -9.220  11.581  62.705  1.00  0.00    -0.193 C  
BRANCH  18  20
HETATM   20  C   UNL     1      -9.503   9.226  65.752  1.00  0.00    -0.329 C  
HETATM   21  C   UNL     1     -10.002   8.298  66.520  1.00  0.00    -0.320 C  
HETATM   22  C   UNL     1     -10.585   7.217  67.415  1.00  0.00    -0.372 C  
ENDBRANCH  18  20
ENDBRANCH  13  14
ENDBRANCH   4  12
BRANCH   9  23
HETATM   23  C   UNL     1     -10.550  19.549  67.311  1.00  0.00    -0.610 C  
BRANCH  23  24
HETATM   24  C   UNL     1      -9.258  20.367  67.232  1.00  0.00    -0.525 C  
BRANCH  24  25
HETATM   25  C   UNL     1      -8.070  19.652  67.873  1.00  0.00    -0.339 C  
HETATM   26  C   UNL     1      -7.158  19.036  66.840  1.00  0.00    -0.205 C  
HETATM   27  O   UNL     1      -7.316  19.084  65.631  1.00  0.00    -0.444 OA 
HETATM   28  O   UNL     1      -6.107  18.401  67.408  1.00  0.00    -0.166 OA 
ENDBRANCH  24  25
ENDBRANCH  23  24
ENDBRANCH   9  23
TORSDOF 6
ENDMDL
MODEL        2
REMARK 921   NORMALIZED FREE ENERGY PREDICTED BY IDOCK:   -6.72 KCAL/MOL
REMARK 922        TOTAL FREE ENERGY PREDICTED BY IDOCK:  -10.43 KCAL/MOL
REMARK 923 INTER-LIGAND FREE ENERGY PREDICTED BY IDOCK:   -9.56 KCAL/MOL
REMARK 924 INTRA-LIGAND FREE ENERGY PREDICTED BY IDOCK:   -0.87 KCAL/MOL
REMARK 927      BINDING AFFINITY PREDICTED BY RF-SCORE:    0.00 PKD
ROOT
HETATM    1  C   UNL     1     -12.286  13.431  64.892  1.00  0.00    -0.450 C  
HETATM    2  C   UNL     1     -12.111  12.511  63.695  1.00  0.00    -0.642 C  
HETATM    3  C   UNL     1     -10.821  11.737  63.968  1.00  0.00    -0.385 C  
HETATM    4  C   UNL     1     -10.607  11.769  65.496  1.00  0.00    -0.323 C  
HETATM    5  O   UNL     1      -9.715  12.383  63.337  1.00  0.00    -0.645 OA 
HETATM    6  H   UNL     1      -8.913  11.902  63.507  1.00  0.00     0.000 HD 
HETATM    7  C   UNL     1     -11.756  12.627  66.077  1.00  0.00    -0.470 C  
HETATM    8  C   UNL     1     -11.422  14.686  64.846  1.00  0.00    -0.401 C  
HETATM    9  C   UNL     1     -10.644  16.091  66.787  1.00  0.00    -0.297 C  
HETATM   10  C   UNL     1     -11.316  13.676  67.104  1.00  0.00    -0.340 C  
HETATM   11  C   UNL     1     -11.069  14.919  66.288  1.00  0.00    -0.340 C  
ENDROOT
BRANCH   4  12
HETATM   12  C   UNL     1     -10.639  10.387  66.105  1.00  0.00    -0.160 C  
HETATM   13  C   UNL     1     -10.560  10.186  67.430  1.00  0.00    -0.329 C  
BRANCH  13  14
HETATM   14  C   UNL     1     -10.761   8.861  68.099  1.00  0.00    -0.092 C  
HETATM   15  O   UNL     1     -10.714   7.858  67.091  1.00  0.00    -0.414 OA 
HETATM   16  C   UNL     1      -9.691   8.573  69.182  1.00  0.00    -0.170 C  
HETATM   17  H   UNL     1     -10.841   7.018  67.516  1.00  0.00     0.000 HD 
HETATM   18  C   UNL     1      -9.737   9.599  70.333  1.00  0.00    -0.304 C  
HETATM   19  C   UNL     1      -8.270   8.498  68.607  1.00  0.00    -0.122 C  
BRANCH  18  20
HETATM   20  C   UNL     1     -11.086   9.547  71.031  1.00  0.00    -0.433 C  
HETATM   21  C   UNL     1     -12.244   9.500  71.630  1.00  0.00    -0.477 C  
HETATM   22  C   UNL     1     -13.593   9.447  72.328  1.00  0.00    -0.532 C  
ENDBRANCH  18  20
ENDBRANCH  13  14
ENDBRANCH   4  12
BRANCH   9  23
HETATM   23  C   UNL     1     -10.445  17.333  65.960  1.00  0.00    -0.285 C  
BRANCH  23  24
HETATM   24  C   UNL     1     -10.511  18.613  66.797  1.00  0.00    -0.454 C  
BRANCH  24  25
HETATM   25  C   UNL     1      -9.391  19.596  66.459  1.00  0.00    -0.464 C  
HETATM   26  C   UNL     1      -8.514  19.884  67.653  1.00  0.00    -0.326 C  
HETATM   27  O   UNL     1      -8.649  19.408  68.768  1.00  0.00    -0.362 OA 
HETATM   28  O   UNL     1      -7.524  20.757  67.353  1.00  0.00    -0.344 OA 
ENDBRANCH  24  25
ENDBRANCH  23  24
ENDBRANCH   9  23
TORSDOF 6
ENDMDL
MODEL        3
REMARK 921   NORMALIZED FREE ENERGY PREDICTED BY IDOCK:   -6.53 KCAL/MOL
REMARK 922        TOTAL FREE ENERGY PREDICTED BY IDOCK:  -10.17 KCAL/MOL
REMARK 923 INTER-LIGAND FREE ENERGY PREDICTED BY IDOCK:   -9.28 KCAL/MOL
REMARK 924 INTRA-LIGAND FREE ENERGY PREDICTED BY IDOCK:   -0.89 KCAL/MOL
REMARK 927      BINDING AFFINITY PREDICTED BY RF-SCORE:    0.00 PKD
ROOT
HETATM    1  C   UNL     1     -12.223  13.118  64.741  1.00  0.00    -0.477 C  
HETATM    2  C   UNL     1     -11.988  12.174  63.573  1.00  0.00    -0.619 C  
HETATM    3  C   UNL     1     -10.673  11.461  63.890  1.00  0.00    -0.397 C  
HETATM    4  C   UNL     1     -10.491  11.543  65.421  1.00  0.00    -0.333 C  
HETATM    5  O   UNL     1      -9.582  12.134  63.261  1.00  0.00    -0.635 OA 
HETATM    6  H   UNL     1      -8.765  11.691  63.459  1.00  0.00     0.000 HD 
HETATM    7  C   UNL     1     -11.684  12.368  65.957  1.00  0.00    -0.469 C  
HETATM    8  C   UNL     1     -11.409  14.406  64.676  1.00  0.00    -0.373 C  
HETATM    9  C   UNL     1     -10.726  15.892  66.591  1.00  0.00    -0.270 C  
HETATM   10  C   UNL     1     -11.305  13.461  66.962  1.00  0.00    -0.346 C  
HETATM   11  C   UNL     1     -11.094  14.691  66.117  1.00  0.00    -0.334 C  
ENDROOT
BRANCH   4  12
HETATM   12  C   UNL     1     -10.477  10.177  66.066  1.00  0.00    -0.165 C  
HETATM   13  C   UNL     1     -10.458  10.015  67.398  1.00  0.00    -0.316 C  
BRANCH  13  14
HETATM   14  C   UNL     1     -10.621   8.699  68.094  1.00  0.00    -0.133 C  
HETATM   15  O   UNL     1     -10.537   7.676  67.108  1.00  0.00    -0.315 OA 
HETATM   16  C   UNL     1      -9.549   8.467  69.188  1.00  0.00    -0.167 C  
HETATM   17  H   UNL     1     -10.640   6.842  67.550  1.00  0.00     0.000 HD 
HETATM   18  C   UNL     1      -9.633   9.515  70.317  1.00  0.00    -0.314 C  
HETATM   19  C   UNL     1      -8.122   8.425  68.622  1.00  0.00    -0.122 C  
BRANCH  18  20
HETATM   20  C   UNL     1     -10.984   9.434  71.010  1.00  0.00    -0.409 C  
HETATM   21  C   UNL     1     -12.143   9.366  71.603  1.00  0.00    -0.462 C  
HETATM   22  C   UNL     1     -13.494   9.286  72.294  1.00  0.00    -0.548 C  
ENDBRANCH  18  20
ENDBRANCH  13  14
ENDBRANCH   4  12
BRANCH   9  23
HETATM   23  C   UNL     1     -10.561  17.118  65.734  1.00  0.00    -0.201 C  
BRANCH  23  24
HETATM   24  C   UNL     1      -9.730  18.207  66.420  1.00  0.00    -0.329 C  
BRANCH  24  25
HETATM   25  C   UNL     1     -10.497  18.920  67.531  1.00  0.00    -0.522 C  
HETATM   26  C   UNL     1      -9.602  19.284  68.691  1.00  0.00    -0.418 C  
HETATM   27  O   UNL     1      -8.406  19.055  68.767  1.00  0.00    -0.355 OA 
HETATM   28  O   UNL     1     -10.283  19.913  69.677  1.00  0.00    -0.249 OA 
ENDBRANCH  24  25
ENDBRANCH  23  24
ENDBRANCH   9  23
TORSDOF 6
ENDMDL
MODEL        4
REMARK 921   NORMALIZED FREE ENERGY PREDICTED BY IDOCK:   -6.46 KCAL/MOL
REMARK 922        TOTAL FREE ENERGY PREDICTED BY IDOCK:  -10.07 KCAL/MOL
REMARK 923 INTER-LIGAND FREE ENERGY PREDICTED BY IDOCK:   -9.00 KCAL/MOL
REMARK 924 INTRA-LIGAND FREE ENERGY PREDICTED BY IDOCK:   -1.06 KCAL/MOL
REMARK 927      BINDING AFFINITY PREDICTED BY RF-SCORE:    0.00 PKD
ROOT
HETATM    1  C   UNL     1     -12.222  13.771  64.782  1.00  0.00    -0.438 C  
HETATM    2  C   UNL     1     -11.965  12.844  63.605  1.00  0.00    -0.613 C  
HETATM    3  C   UNL     1     -10.762  11.995  64.017  1.00  0.00    -0.375 C  
HETATM    4  C   UNL     1     -10.723  12.013  65.560  1.00  0.00    -0.318 C  
HETATM    5  O   UNL     1      -9.555  12.576  63.521  1.00  0.00    -0.660 OA 
HETATM    6  H   UNL     1      -8.808  12.048  63.778  1.00  0.00     0.000 HD 
HETATM    7  C   UNL     1     -11.879  12.936  66.013  1.00  0.00    -0.485 C  
HETATM    8  C   UNL     1     -11.287  14.974  64.845  1.00  0.00    -0.419 C  
HETATM    9  C   UNL     1     -10.656  16.328  66.873  1.00  0.00    -0.270 C  
HETATM   10  C   UNL     1     -11.498  13.956  67.092  1.00  0.00    -0.370 C  
HETATM   11  C   UNL     1     -11.088  15.184  66.319  1.00  0.00    -0.309 C  
ENDROOT
BRANCH   4  12
HETATM   12  C   UNL     1     -10.904  10.634  66.150  1.00  0.00    -0.069 C  
HETATM   13  C   UNL     1     -10.088  10.149  67.099  1.00  0.00    -0.260 C  
BRANCH  13  14
HETATM   14  C   UNL     1     -10.319   8.869  67.842  1.00  0.00    -0.230 C  
HETATM   15  O   UNL     1     -10.251   7.805  66.900  1.00  0.00    -0.260 OA 
HETATM   16  C   UNL     1      -9.284   8.642  68.972  1.00  0.00    -0.145 C  
HETATM   17  H   UNL     1     -10.397   6.994  67.371  1.00  0.00     0.000 HD 
HETATM   18  C   UNL     1      -9.356   9.737  70.056  1.00  0.00    -0.274 C  
HETATM   19  C   UNL     1      -7.847   8.522  68.445  1.00  0.00    -0.106 C  
BRANCH  18  20
HETATM   20  C   UNL     1     -10.725   9.736  70.715  1.00  0.00    -0.393 C  
HETATM   21  C   UNL     1     -11.900   9.737  71.281  1.00  0.00    -0.481 C  
HETATM   22  C   UNL     1     -13.269   9.737  71.941  1.00  0.00    -0.545 C  
ENDBRANCH  18  20
ENDBRANCH  13  14
ENDBRANCH   4  12
BRANCH   9  23
HETATM   23  C   UNL     1     -10.291  17.557  66.084  1.00  0.00    -0.330 C  
BRANCH  23  24
HETATM   24  C   UNL     1      -9.116  18.323  66.699  1.00  0.00    -0.294 C  
BRANCH  24  25
HETATM   25  C   UNL     1      -7.928  17.419  67.021  1.00  0.00    -0.241 C  
HETATM   26  C   UNL     1      -6.769  17.655  66.084  1.00  0.00    -0.285 C  
HETATM   27  O   UNL     1      -6.745  18.463  65.170  1.00  0.00    -0.504 OA 
HETATM   28  O   UNL     1      -5.717  16.851  66.369  1.00  0.00    -0.330 OA 
ENDBRANCH  24  25
ENDBRANCH  23  24
ENDBRANCH   9  23
TORSDOF 6
ENDMDL
MODEL        5
REMARK 921   NORMALIZED FREE ENERGY PREDICTED BY IDOCK:   -6.45 KCAL/MOL
REMARK 922        TOTAL FREE ENERGY PREDICTED BY IDOCK:  -10.07 KCAL/MOL
REMARK 923 INTER-LIGAND FREE ENERGY PREDICTED BY IDOCK:   -9.07 KCAL/MOL
REMARK 924 INTRA-LIGAND FREE ENERGY PREDICTED BY IDOCK:   -0.99 KCAL/MOL
REMARK 927      BINDING AFFINITY PREDICTED BY RF-SCORE:    0.00 PKD
ROOT
HETATM    1  C   UNL     1     -10.283  12.889  65.309  1.00  0.00    -0.294 C  
HETATM    2  C   UNL     1     -11.085  13.309  64.088  1.00  0.00    -0.393 C  
HETATM    3  C   UNL     1     -11.860  14.553  64.524  1.00  0.00    -0.446 C  
HETATM    4  C   UNL     1     -11.084  15.156  65.714  1.00  0.00    -0.330 C  
HETATM    5  O   UNL     1     -13.168  14.189  64.968  1.00  0.00    -0.691 OA 
HETATM    6  H   UNL     1     -13.649  14.962  65.239  1.00  0.00     0.000 HD 
HETATM    7  C   UNL     1      -9.898  14.202  65.987  1.00  0.00    -0.329 C  
HETATM    8  C   UNL     1     -11.090  12.125  66.353  1.00  0.00    -0.358 C  
HETATM    9  C   UNL     1     -10.611  11.917  68.817  1.00  0.00    -0.234 C  
HETATM   10  C   UNL     1      -9.692  13.841  67.463  1.00  0.00    -0.230 C  
HETATM   11  C   UNL     1     -10.492  12.578  67.655  1.00  0.00    -0.228 C  
ENDROOT
BRANCH   4  12
HETATM   12  C   UNL     1     -10.569  16.544  65.413  1.00  0.00    -0.293 C  
HETATM   13  C   UNL     1     -10.654  17.548  66.300  1.00  0.00    -0.198 C  
BRANCH  13  14
HETATM   14  C   UNL     1     -10.009  18.888  66.128  1.00  0.00    -0.356 C  
HETATM   15  O   UNL     1     -11.030  19.816  65.777  1.00  0.00    -0.375 OA 
HETATM   16  C   UNL     1      -9.278  19.366  67.407  1.00  0.00    -0.371 C  
HETATM   17  H   UNL     1     -10.621  20.666  65.668  1.00  0.00     0.000 HD 
HETATM   18  C   UNL     1      -8.119  18.427  67.800  1.00  0.00    -0.264 C  
HETATM   19  C   UNL     1     -10.227  19.550  68.600  1.00  0.00    -0.481 C  
BRANCH  18  20
HETATM   20  C   UNL     1      -7.077  18.386  66.694  1.00  0.00    -0.237 C  
HETATM   21  C   UNL     1      -6.184  18.351  65.745  1.00  0.00    -0.281 C  
HETATM   22  C   UNL     1      -5.143  18.310  64.638  1.00  0.00    -0.075 C  
ENDBRANCH  18  20
ENDBRANCH  13  14
ENDBRANCH   4  12
BRANCH   9  23
HETATM   23  C   UNL     1     -11.381  10.634  68.978  1.00  0.00    -0.340 C  
BRANCH  23  24
HETATM   24  C   UNL     1     -11.431  10.157  70.432  1.00  0.00    -0.400 C  
BRANCH  24  25
HETATM   25  C   UNL     1     -12.842  10.199  71.017  1.00  0.00    -0.474 C  
HETATM   26  C   UNL     1     -13.038   9.160  72.093  1.00  0.00    -0.446 C  
HETATM   27  O   UNL     1     -12.197   8.365  72.479  1.00  0.00    -0.386 OA 
HETATM   28  O   UNL     1     -14.290   9.197  72.608  1.00  0.00    -0.561 OA 
ENDBRANCH  24  25
ENDBRANCH  23  24
ENDBRANCH   9  23
TORSDOF 6
ENDMDL
MODEL        6
REMARK 921   NORMALIZED FREE ENERGY PREDICTED BY IDOCK:   -6.45 KCAL/MOL
REMARK 922        TOTAL FREE ENERGY PREDICTED BY IDOCK:  -10.06 KCAL/MOL
REMARK 923 INTER-LIGAND FREE ENERGY PREDICTED BY IDOCK:   -8.68 KCAL/MOL
REMARK 924 INTRA-LIGAND FREE ENERGY PREDICTED BY IDOCK:   -1.38 KCAL/MOL
REMARK 927      BINDING AFFINITY PREDICTED BY RF-SCORE:    0.00 PKD
ROOT
HETATM    1  C   UNL     1     -11.111  14.829  66.060  1.00  0.00    -0.330 C  
HETATM    2  C   UNL     1     -11.851  14.158  64.914  1.00  0.00    -0.407 C  
HETATM    3  C   UNL     1     -11.104  12.847  64.666  1.00  0.00    -0.324 C  
HETATM    4  C   UNL     1     -10.368  12.508  65.981  1.00  0.00    -0.277 C  
HETATM    5  O   UNL     1     -10.136  13.019  63.631  1.00  0.00    -0.699 OA 
HETATM    6  H   UNL     1      -9.671  12.204  63.477  1.00  0.00     0.000 HD 
HETATM    7  C   UNL     1     -10.655  13.677  66.952  1.00  0.00    -0.271 C  
HETATM    8  C   UNL     1      -9.828  15.539  65.643  1.00  0.00    -0.377 C  
HETATM    9  C   UNL     1      -7.826  16.069  67.078  1.00  0.00    -0.263 C  
HETATM   10  C   UNL     1      -9.423  14.210  67.692  1.00  0.00    -0.213 C  
HETATM   11  C   UNL     1      -8.915  15.327  66.817  1.00  0.00    -0.291 C  
ENDROOT
BRANCH   4  12
HETATM   12  C   UNL     1     -10.848  11.208  66.583  1.00  0.00    -0.308 C  
HETATM   13  C   UNL     1     -10.042  10.144  66.725  1.00  0.00    -0.277 C  
BRANCH  13  14
HETATM   14  C   UNL     1     -10.408   8.897  67.469  1.00  0.00    -0.263 C  
HETATM   15  O   UNL     1     -10.505   7.842  66.520  1.00  0.00    -0.492 OA 
HETATM   16  C   UNL     1      -9.374   8.531  68.563  1.00  0.00    -0.139 C  
HETATM   17  H   UNL     1     -10.737   7.051  66.992  1.00  0.00     0.000 HD 
HETATM   18  C   UNL     1      -9.272   9.617  69.654  1.00  0.00    -0.225 C  
HETATM   19  C   UNL     1      -7.981   8.237  67.988  1.00  0.00    -0.123 C  
BRANCH  18  20
HETATM   20  C   UNL     1     -10.608   9.782  70.359  1.00  0.00    -0.365 C  
HETATM   21  C   UNL     1     -11.755   9.924  70.962  1.00  0.00    -0.466 C  
HETATM   22  C   UNL     1     -13.092  10.090  71.666  1.00  0.00    -0.547 C  
ENDBRANCH  18  20
ENDBRANCH  13  14
ENDBRANCH   4  12
BRANCH   9  23
HETATM   23  C   UNL     1      -7.359  17.207  66.211  1.00  0.00    -0.326 C  
BRANCH  23  24
HETATM   24  C   UNL     1      -7.562  18.572  66.875  1.00  0.00    -0.235 C  
BRANCH  24  25
HETATM   25  C   UNL     1      -8.782  19.315  66.332  1.00  0.00    -0.362 C  
HETATM   26  C   UNL     1      -9.946  19.265  67.291  1.00  0.00    -0.363 C  
HETATM   27  O   UNL     1      -9.951  18.710  68.377  1.00  0.00    -0.349 OA 
HETATM   28  O   UNL     1     -11.027  19.920  66.807  1.00  0.00    -0.382 OA 
ENDBRANCH  24  25
ENDBRANCH  23  24
ENDBRANCH   9  23
TORSDOF 6
ENDMDL
MODEL        7
REMARK 921   NORMALIZED FREE ENERGY PREDICTED BY IDOCK:   -6.34 KCAL/MOL
REMARK 922        TOTAL FREE ENERGY PREDICTED BY IDOCK:   -9.92 KCAL/MOL
REMARK 923 INTER-LIGAND FREE ENERGY PREDICTED BY IDOCK:   -8.54 KCAL/MOL
REMARK 924 INTRA-LIGAND FREE ENERGY PREDICTED BY IDOCK:   -1.38 KCAL/MOL
REMARK 927      BINDING AFFINITY PREDICTED BY RF-SCORE:    0.00 PKD
ROOT
HETATM    1  C   UNL     1      -8.980  10.212  69.680  1.00  0.00    -0.190 C  
HETATM    2  C   UNL     1      -7.985   9.438  68.830  1.00  0.00    -0.092 C  
HETATM    3  C   UNL     1      -8.705   9.179  67.505  1.00  0.00    -0.119 C  
HETATM    4  C   UNL     1      -9.800  10.261  67.385  1.00  0.00    -0.214 C  
HETATM    5  O   UNL     1      -9.329   7.895  67.526  1.00  0.00    -0.140 OA 
HETATM    6  H   UNL     1      -9.777   7.735  66.703  1.00  0.00     0.000 HD 
HETATM    7  C   UNL     1      -9.733  11.093  68.687  1.00  0.00    -0.202 C  
HETATM    8  C   UNL     1     -10.050   9.344  70.333  1.00  0.00    -0.310 C  
HETATM    9  C   UNL     1     -12.343  10.048  71.104  1.00  0.00    -0.477 C  
HETATM   10  C   UNL     1     -11.091  11.361  69.345  1.00  0.00    -0.301 C  
HETATM   11  C   UNL     1     -11.268  10.223  70.318  1.00  0.00    -0.395 C  
ENDROOT
BRANCH   4  12
HETATM   12  C   UNL     1      -9.583  11.158  66.189  1.00  0.00    -0.239 C  
HETATM   13  C   UNL     1     -10.481  11.256  65.195  1.00  0.00    -0.351 C  
BRANCH  13  14
HETATM   14  C   UNL     1     -10.405  12.252  64.079  1.00  0.00    -0.397 C  
HETATM   15  O   UNL     1      -9.977  11.560  62.912  1.00  0.00    -0.564 OA 
HETATM   16  C   UNL     1     -11.761  12.951  63.812  1.00  0.00    -0.557 C  
HETATM   17  H   UNL     1      -9.930  12.191  62.205  1.00  0.00     0.000 HD 
HETATM   18  C   UNL     1     -12.244  13.768  65.028  1.00  0.00    -0.448 C  
HETATM   19  C   UNL     1     -12.858  11.970  63.374  1.00  0.00    -0.427 C  
BRANCH  18  20
HETATM   20  C   UNL     1     -11.247  14.867  65.354  1.00  0.00    -0.359 C  
HETATM   21  C   UNL     1     -10.390  15.809  65.634  1.00  0.00    -0.411 C  
HETATM   22  C   UNL     1      -9.391  16.908  65.959  1.00  0.00    -0.214 C  
ENDBRANCH  18  20
ENDBRANCH  13  14
ENDBRANCH   4  12
BRANCH   9  23
HETATM   23  C   UNL     1     -12.480   8.928  72.099  1.00  0.00    -0.459 C  
BRANCH  23  24
HETATM   24  C   UNL     1     -12.912   7.611  71.447  1.00  0.00    -0.350 C  
BRANCH  24  25
HETATM   25  C   UNL     1     -11.934   6.471  71.722  1.00  0.00    -0.394 C  
HETATM   26  C   UNL     1     -11.262   5.986  70.461  1.00  0.00    -0.292 C  
HETATM   27  O   UNL     1     -11.448   6.429  69.339  1.00  0.00    -0.401 OA 
HETATM   28  O   UNL     1     -10.398   4.973  70.706  1.00  0.00    -0.235 OA 
ENDBRANCH  24  25
ENDBRANCH  23  24
ENDBRANCH   9  23
TORSDOF 6
ENDMDL
MODEL        8
REMARK 921   NORMALIZED FREE ENERGY PREDICTED BY IDOCK:   -6.29 KCAL/MOL
REMARK 922        TOTAL FREE ENERGY PREDICTED BY IDOCK:   -9.84 KCAL/MOL
REMARK 923 INTER-LIGAND FREE ENERGY PREDICTED BY IDOCK:   -8.83 KCAL/MOL
REMARK 924 INTRA-LIGAND FREE ENERGY PREDICTED BY IDOCK:   -1.01 KCAL/MOL
REMARK 927      BINDING AFFINITY PREDICTED BY RF-SCORE:    0.00 PKD
ROOT
HETATM    1  C   UNL     1     -13.939  14.071  71.769  1.00  0.00    -0.470 C  
HETATM    2  C   UNL     1     -13.943  15.273  72.700  1.00  0.00    -0.555 C  
HETATM    3  C   UNL     1     -12.490  15.749  72.748  1.00  0.00    -0.456 C  
HETATM    4  C   UNL     1     -11.819  15.234  71.456  1.00  0.00    -0.441 C  
HETATM    5  O   UNL     1     -11.820  15.176  73.871  1.00  0.00    -0.427 OA 
HETATM    6  H   UNL     1     -10.917  15.472  73.900  1.00  0.00     0.000 HD 
HETATM    7  C   UNL     1     -12.892  14.406  70.710  1.00  0.00    -0.417 C  
HETATM    8  C   UNL     1     -13.448  12.782  72.418  1.00  0.00    -0.512 C  
HETATM    9  C   UNL     1     -12.446  10.771  71.279  1.00  0.00    -0.504 C  
HETATM   10  C   UNL     1     -12.406  13.049  70.189  1.00  0.00    -0.270 C  
HETATM   11  C   UNL     1     -12.723  12.084  71.302  1.00  0.00    -0.382 C  
ENDROOT
BRANCH   4  12
HETATM   12  C   UNL     1     -11.337  16.363  70.576  1.00  0.00    -0.211 C  
HETATM   13  C   UNL     1     -10.601  16.149  69.475  1.00  0.00    -0.306 C  
BRANCH  13  14
HETATM   14  C   UNL     1     -10.244  17.205  68.475  1.00  0.00    -0.346 C  
HETATM   15  O   UNL     1     -10.167  18.446  69.167  1.00  0.00    -0.458 OA 
HETATM   16  C   UNL     1      -8.902  16.916  67.757  1.00  0.00    -0.217 C  
HETATM   17  H   UNL     1      -9.941  19.115  68.532  1.00  0.00     0.000 HD 
HETATM   18  C   UNL     1      -8.949  15.609  66.939  1.00  0.00    -0.267 C  
HETATM   19  C   UNL     1      -7.708  16.885  68.721  1.00  0.00    -0.247 C  
BRANCH  18  20
HETATM   20  C   UNL     1     -10.009  15.704  65.855  1.00  0.00    -0.379 C  
HETATM   21  C   UNL     1     -10.920  15.787  64.925  1.00  0.00    -0.443 C  
HETATM   22  C   UNL     1     -11.980  15.883  63.841  1.00  0.00     0.435 C  
ENDBRANCH  18  20
ENDBRANCH  13  14
ENDBRANCH   4  12
BRANCH   9  23
HETATM   23  C   UNL     1     -12.810   9.817  72.385  1.00  0.00    -0.268 C  
BRANCH  23  24
HETATM   24  C   UNL     1     -11.872   8.608  72.450  1.00  0.00    -0.402 C  
BRANCH  24  25
HETATM   25  C   UNL     1     -10.470   8.922  71.933  1.00  0.00    -0.415 C  
HETATM   26  C   UNL     1      -9.397   8.339  72.821  1.00  0.00    -0.268 C  
HETATM   27  O   UNL     1      -9.588   7.688  73.835  1.00  0.00    -0.274 OA 
HETATM   28  O   UNL     1      -8.155   8.621  72.363  1.00  0.00    -0.328 OA 
ENDBRANCH  24  25
ENDBRANCH  23  24
ENDBRANCH   9  23
TORSDOF 6
ENDMDL
MODEL        9
REMARK 921   NORMALIZED FREE ENERGY PREDICTED BY IDOCK:   -6.27 KCAL/MOL
REMARK 922        TOTAL FREE ENERGY PREDICTED BY IDOCK:   -9.82 KCAL/MOL
REMARK 923 INTER-LIGAND FREE ENERGY PREDICTED BY IDOCK:   -8.62 KCAL/MOL
REMARK 924 INTRA-LIGAND FREE ENERGY PREDICTED BY IDOCK:   -1.20 KCAL/MOL
REMARK 927      BINDING AFFINITY PREDICTED BY RF-SCORE:    0.00 PKD
ROOT
HETATM    1  C   UNL     1      -9.948  12.128  65.585  1.00  0.00    -0.271 C  
HETATM    2  C   UNL     1     -10.659  12.968  64.535  1.00  0.00    -0.413 C  
HETATM    3  C   UNL     1     -12.039  13.263  65.126  1.00  0.00    -0.413 C  
HETATM    4  C   UNL     1     -11.898  13.124  66.657  1.00  0.00    -0.449 C  
HETATM    5  O   UNL     1     -12.989  12.303  64.663  1.00  0.00    -0.741 OA 
HETATM    6  H   UNL     1     -13.846  12.487  65.030  1.00  0.00     0.000 HD 
HETATM    7  C   UNL     1     -10.439  12.681  66.920  1.00  0.00    -0.246 C  
HETATM    8  C   UNL     1     -10.355  10.659  65.589  1.00  0.00    -0.285 C  
HETATM    9  C   UNL     1     -10.210   9.028  67.503  1.00  0.00    -0.302 C  
HETATM   10  C   UNL     1     -10.292  11.520  67.909  1.00  0.00    -0.203 C  
HETATM   11  C   UNL     1     -10.298  10.286  67.043  1.00  0.00    -0.299 C  
ENDROOT
BRANCH   4  12
HETATM   12  C   UNL     1     -12.179  14.423  67.375  1.00  0.00    -0.230 C  
HETATM   13  C   UNL     1     -12.372  14.480  68.702  1.00  0.00    -0.040 C  
BRANCH  13  14
HETATM   14  C   UNL     1     -12.480  15.750  69.489  1.00  0.00     0.074 C  
HETATM   15  O   UNL     1     -13.601  15.625  70.356  1.00  0.00    -0.805 OA 
HETATM   16  C   UNL     1     -11.203  16.048  70.314  1.00  0.00    -0.397 C  
HETATM   17  H   UNL     1     -13.669  16.430  70.855  1.00  0.00     0.000 HD 
HETATM   18  C   UNL     1      -9.965  16.253  69.416  1.00  0.00    -0.232 C  
HETATM   19  C   UNL     1     -10.911  14.971  71.367  1.00  0.00    -0.028 C  
BRANCH  18  20
HETATM   20  C   UNL     1     -10.174  17.443  68.494  1.00  0.00    -0.369 C  
HETATM   21  C   UNL     1     -10.354  18.464  67.704  1.00  0.00    -0.427 C  
HETATM   22  C   UNL     1     -10.563  19.655  66.783  1.00  0.00    -0.602 C  
ENDBRANCH  18  20
ENDBRANCH  13  14
ENDBRANCH   4  12
BRANCH   9  23
HETATM   23  C   UNL     1     -10.175   7.811  66.617  1.00  0.00    -0.288 C  
BRANCH  23  24
HETATM   24  C   UNL     1     -11.132   6.713  67.090  1.00  0.00    -0.427 C  
BRANCH  24  25
HETATM   25  C   UNL     1     -10.471   5.731  68.054  1.00  0.00    -0.286 C  
HETATM   26  C   UNL     1     -10.946   5.926  69.473  1.00  0.00    -0.368 C  
HETATM   27  O   UNL     1     -11.760   6.756  69.844  1.00  0.00    -0.306 OA 
HETATM   28  O   UNL     1     -10.356   5.057  70.328  1.00  0.00    -0.266 OA 
ENDBRANCH  24  25
ENDBRANCH  23  24
ENDBRANCH   9  23
TORSDOF 6
ENDMDL
MODEL       10
REMARK 921   NORMALIZED FREE ENERGY PREDICTED BY IDOCK:   -6.26 KCAL/MOL
REMARK 922        TOTAL FREE ENERGY PREDICTED BY IDOCK:   -9.80 KCAL/MOL
REMARK 923 INTER-LIGAND FREE ENERGY PREDICTED BY IDOCK:   -8.90 KCAL/MOL
REMARK 924 INTRA-LIGAND FREE ENERGY PREDICTED BY IDOCK:   -0.90 KCAL/MOL
REMARK 927      BINDING AFFINITY PREDICTED BY RF-SCORE:    0.00 PKD
ROOT
HETATM    1  C   UNL     1     -12.482  13.552  65.978  1.00  0.00    -0.456 C  
HETATM    2  C   UNL     1     -12.012  14.300  64.740  1.00  0.00    -0.449 C  
HETATM    3  C   UNL     1     -10.536  13.931  64.584  1.00  0.00    -0.412 C  
HETATM    4  C   UNL     1     -10.342  12.587  65.318  1.00  0.00    -0.310 C  
HETATM    5  O   UNL     1      -9.712  14.917  65.206  1.00  0.00    -0.426 OA 
HETATM    6  H   UNL     1      -8.795  14.687  65.108  1.00  0.00     0.000 HD 
HETATM    7  C   UNL     1     -11.710  12.235  65.948  1.00  0.00    -0.451 C  
HETATM    8  C   UNL     1     -12.088  14.213  67.294  1.00  0.00    -0.407 C  
HETATM    9  C   UNL     1     -11.820  13.118  69.546  1.00  0.00    -0.383 C  
HETATM   10  C   UNL     1     -11.643  11.781  67.410  1.00  0.00    -0.352 C  
HETATM   11  C   UNL     1     -11.829  13.047  68.205  1.00  0.00    -0.381 C  
ENDROOT
BRANCH   4  12
HETATM   12  C   UNL     1      -9.907  11.485  64.382  1.00  0.00    -0.277 C  
HETATM   13  C   UNL     1      -9.436  10.310  64.828  1.00  0.00    -0.341 C  
BRANCH  13  14
HETATM   14  C   UNL     1      -9.156   9.123  63.959  1.00  0.00     0.140 C  
HETATM   15  O   UNL     1      -9.351   9.523  62.608  1.00  0.00    -0.510 OA 
HETATM   16  C   UNL     1      -7.720   8.573  64.146  1.00  0.00    -0.135 C  
HETATM   17  H   UNL     1      -9.173   8.771  62.057  1.00  0.00     0.000 HD 
HETATM   18  C   UNL     1      -7.473   8.068  65.583  1.00  0.00    -0.081 C  
HETATM   19  C   UNL     1      -6.639   9.592  63.759  1.00  0.00    -0.112 C  
BRANCH  18  20
HETATM   20  C   UNL     1      -8.421   6.925  65.909  1.00  0.00    -0.147 C  
HETATM   21  C   UNL     1      -9.235   5.946  66.190  1.00  0.00    -0.164 C  
HETATM   22  C   UNL     1     -10.183   4.804  66.517  1.00  0.00    -0.294 C  
ENDBRANCH  18  20
ENDBRANCH  13  14
ENDBRANCH   4  12
BRANCH   9  23
HETATM   23  C   UNL     1     -12.050  14.388  70.321  1.00  0.00    -0.396 C  
BRANCH  23  24
HETATM   24  C   UNL     1     -13.127  14.232  71.399  1.00  0.00    -0.421 C  
BRANCH  24  25
HETATM   25  C   UNL     1     -13.413  15.537  72.138  1.00  0.00    -0.587 C  
HETATM   26  C   UNL     1     -12.805  15.549  73.519  1.00  0.00    -0.560 C  
HETATM   27  O   UNL     1     -12.155  14.646  74.019  1.00  0.00    -0.432 OA 
HETATM   28  O   UNL     1     -13.062  16.706  74.174  1.00  0.00    -0.555 OA 
ENDBRANCH  24  25
ENDBRANCH  23  24
ENDBRANCH   9  23
TORSDOF 6
ENDMDL
MODEL       11
REMARK 921   NORMALIZED FREE ENERGY PREDICTED BY IDOCK:   -6.23 KCAL/MOL
REMARK 922        TOTAL FREE ENERGY PREDICTED BY IDOCK:   -9.76 KCAL/MOL
REMARK 923 INTER-LIGAND FREE ENERGY PREDICTED BY IDOCK:   -8.65 KCAL/MOL
REMARK 924 INTRA-LIGAND FREE ENERGY PREDICTED BY IDOCK:   -1.11 KCAL/MOL
REMARK 927      BINDING AFFINITY PREDICTED BY RF-SCORE:    0.00 PKD
ROOT
HETATM    1  C   UNL     1     -13.230  14.209  70.480  1.00  0.00    -0.016 C  
HETATM    2  C   UNL     1     -13.082  15.581  71.117  1.00  0.00    -0.573 C  
HETATM    3  C   UNL     1     -11.580  15.757  71.346  1.00  0.00    -0.445 C  
HETATM    4  C   UNL     1     -10.873  14.816  70.349  1.00  0.00    -0.030 C  
HETATM    5  O   UNL     1     -11.234  15.362  72.674  1.00  0.00    -0.324 OA 
HETATM    6  H   UNL     1     -10.300  15.471  72.816  1.00  0.00     0.000 HD 
HETATM    7  C   UNL     1     -11.993  14.057  69.599  1.00  0.00    -0.393 C  
HETATM    8  C   UNL     1     -13.159  13.051  71.469  1.00  0.00    -0.400 C  
HETATM    9  C   UNL     1     -12.510  10.663  70.997  1.00  0.00    -0.515 C  
HETATM   10  C   UNL     1     -11.773  12.545  69.481  1.00  0.00    -0.375 C  
HETATM   11  C   UNL     1     -12.467  11.969  70.689  1.00  0.00    -0.335 C  
ENDROOT
BRANCH   4  12
HETATM   12  C   UNL     1     -10.014  15.572  69.362  1.00  0.00    -0.277 C  
HETATM   13  C   UNL     1      -9.332  14.955  68.385  1.00  0.00    -0.197 C  
BRANCH  13  14
HETATM   14  C   UNL     1      -8.611  15.660  67.279  1.00  0.00    -0.192 C  
HETATM   15  O   UNL     1      -7.411  14.940  67.018  1.00  0.00    -0.270 OA 
HETATM   16  C   UNL     1      -9.458  15.762  65.986  1.00  0.00    -0.392 C  
HETATM   17  H   UNL     1      -6.954  15.387  66.316  1.00  0.00     0.000 HD 
HETATM   18  C   UNL     1     -10.744  16.587  66.196  1.00  0.00    -0.155 C  
HETATM   19  C   UNL     1      -9.810  14.389  65.397  1.00  0.00    -0.265 C  
BRANCH  18  20
HETATM   20  C   UNL     1     -10.397  18.010  66.601  1.00  0.00    -0.375 C  
HETATM   21  C   UNL     1     -10.097  19.231  66.947  1.00  0.00    -0.467 C  
HETATM   22  C   UNL     1      -9.748  20.654  67.350  1.00  0.00    -0.552 C  
ENDBRANCH  18  20
ENDBRANCH  13  14
ENDBRANCH   4  12
BRANCH   9  23
HETATM   23  C   UNL     1     -13.245  10.105  72.186  1.00  0.00    -0.463 C  
BRANCH  23  24
HETATM   24  C   UNL     1     -12.853   8.658  72.494  1.00  0.00    -0.352 C  
BRANCH  24  25
HETATM   25  C   UNL     1     -11.384   8.369  72.191  1.00  0.00    -0.437 C  
HETATM   26  C   UNL     1     -11.223   7.256  71.184  1.00  0.00    -0.259 C  
HETATM   27  O   UNL     1     -12.132   6.638  70.654  1.00  0.00    -0.394 OA 
HETATM   28  O   UNL     1      -9.921   6.999  70.919  1.00  0.00    -0.192 OA 
ENDBRANCH  24  25
ENDBRANCH  23  24
ENDBRANCH   9  23
TORSDOF 6
ENDMDL
MODEL       12
REMARK 921   NORMALIZED FREE ENERGY PREDICTED BY IDOCK:   -6.21 KCAL/MOL
REMARK 922        TOTAL FREE ENERGY PREDICTED BY IDOCK:   -9.73 KCAL/MOL
REMARK 923 INTER-LIGAND FREE ENERGY PREDICTED BY IDOCK:   -8.33 KCAL/MOL
REMARK 924 INTRA-LIGAND FREE ENERGY PREDICTED BY IDOCK:   -1.40 KCAL/MOL
REMARK 927      BINDING AFFINITY PREDICTED BY RF-SCORE:    0.00 PKD
ROOT
HETATM    1  C   UNL     1     -10.249  10.511  67.402  1.00  0.00    -0.253 C  
HETATM    2  C   UNL     1      -8.950   9.801  67.751  1.00  0.00    -0.132 C  
HETATM    3  C   UNL     1      -8.683  10.151  69.216  1.00  0.00    -0.179 C  
HETATM    4  C   UNL     1     -10.047  10.527  69.832  1.00  0.00    -0.048 C  
HETATM    5  O   UNL     1      -7.814  11.282  69.302  1.00  0.00    -0.328 OA 
HETATM    6  H   UNL     1      -7.648  11.499  70.212  1.00  0.00     0.000 HD 
HETATM    7  C   UNL     1     -11.079  10.449  68.682  1.00  0.00    -0.313 C  
HETATM    8  C   UNL     1     -10.086  11.998  67.106  1.00  0.00    -0.217 C  
HETATM    9  C   UNL     1     -11.831  13.804  67.298  1.00  0.00    -0.436 C  
HETATM   10  C   UNL     1     -12.032  11.646  68.595  1.00  0.00    -0.311 C  
HETATM   11  C   UNL     1     -11.350  12.601  67.650  1.00  0.00    -0.362 C  
ENDROOT
BRANCH   4  12
HETATM   12  C   UNL     1     -10.446   9.588  70.946  1.00  0.00    -0.382 C  
HETATM   13  C   UNL     1     -11.702   9.527  71.416  1.00  0.00    -0.465 C  
BRANCH  13  14
HETATM   14  C   UNL     1     -12.194   8.502  72.390  1.00  0.00    -0.366 C  
HETATM   15  O   UNL     1     -13.051   9.162  73.315  1.00  0.00    -0.610 OA 
HETATM   16  C   UNL     1     -12.954   7.342  71.700  1.00  0.00    -0.409 C  
HETATM   17  H   UNL     1     -13.363   8.511  73.932  1.00  0.00     0.000 HD 
HETATM   18  C   UNL     1     -12.053   6.552  70.728  1.00  0.00    -0.286 C  
HETATM   19  C   UNL     1     -14.220   7.813  70.971  1.00  0.00    -0.144 C  
BRANCH  18  20
HETATM   20  C   UNL     1     -10.893   5.923  71.481  1.00  0.00    -0.325 C  
HETATM   21  C   UNL     1      -9.897   5.383  72.128  1.00  0.00    -0.209 C  
HETATM   22  C   UNL     1      -8.737   4.754  72.881  1.00  0.00    -0.114 C  
ENDBRANCH  18  20
ENDBRANCH  13  14
ENDBRANCH   4  12
BRANCH   9  23
HETATM   23  C   UNL     1     -11.154  14.725  66.319  1.00  0.00    -0.341 C  
BRANCH  23  24
HETATM   24  C   UNL     1     -11.777  14.659  64.922  1.00  0.00    -0.403 C  
BRANCH  24  25
HETATM   25  C   UNL     1     -11.170  13.555  64.059  1.00  0.00    -0.259 C  
HETATM   26  C   UNL     1     -12.079  12.355  63.953  1.00  0.00    -0.499 C  
HETATM   27  O   UNL     1     -13.175  12.244  64.478  1.00  0.00    -0.799 OA 
HETATM   28  O   UNL     1     -11.538  11.376  63.191  1.00  0.00    -0.137 OA 
ENDBRANCH  24  25
ENDBRANCH  23  24
ENDBRANCH   9  23
TORSDOF 6
ENDMDL
MODEL       13
REMARK 921   NORMALIZED FREE ENERGY PREDICTED BY IDOCK:   -6.19 KCAL/MOL
REMARK 922        TOTAL FREE ENERGY PREDICTED BY IDOCK:   -9.71 KCAL/MOL
REMARK 923 INTER-LIGAND FREE ENERGY PREDICTED BY IDOCK:   -8.57 KCAL/MOL
REMARK 924 INTRA-LIGAND FREE ENERGY PREDICTED BY IDOCK:   -1.14 KCAL/MOL
REMARK 927      BINDING AFFINITY PREDICTED BY RF-SCORE:    0.00 PKD
ROOT
HETATM    1  C   UNL     1     -13.377  14.350  70.628  1.00  0.00    -0.107 C  
HETATM    2  C   UNL     1     -13.369  15.683  71.359  1.00  0.00    -0.512 C  
HETATM    3  C   UNL     1     -11.906  15.928  71.732  1.00  0.00    -0.497 C  
HETATM    4  C   UNL     1     -11.059  15.096  70.746  1.00  0.00    -0.293 C  
HETATM    5  O   UNL     1     -11.652  15.466  73.059  1.00  0.00    -0.446 OA 
HETATM    6  H   UNL     1     -10.743  15.618  73.291  1.00  0.00     0.000 HD 
HETATM    7  C   UNL     1     -12.061  14.327  69.854  1.00  0.00    -0.404 C  
HETATM    8  C   UNL     1     -13.318  13.135  71.547  1.00  0.00    -0.305 C  
HETATM    9  C   UNL     1     -12.485  10.824  70.991  1.00  0.00    -0.522 C  
HETATM   10  C   UNL     1     -11.738  12.841  69.664  1.00  0.00    -0.372 C  
HETATM   11  C   UNL     1     -12.497  12.148  70.767  1.00  0.00    -0.362 C  
ENDROOT
BRANCH   4  12
HETATM   12  C   UNL     1     -10.167  15.964  69.889  1.00  0.00    -0.233 C  
HETATM   13  C   UNL     1      -8.911  15.611  69.577  1.00  0.00    -0.213 C  
BRANCH  13  14
HETATM   14  C   UNL     1      -8.045  16.339  68.595  1.00  0.00    -0.213 C  
HETATM   15  O   UNL     1      -6.746  16.450  69.165  1.00  0.00    -0.178 OA 
HETATM   16  C   UNL     1      -7.962  15.618  67.226  1.00  0.00    -0.227 C  
HETATM   17  H   UNL     1      -6.198  16.911  68.542  1.00  0.00     0.000 HD 
HETATM   18  C   UNL     1      -9.337  15.523  66.534  1.00  0.00    -0.311 C  
HETATM   19  C   UNL     1      -7.332  14.222  67.328  1.00  0.00    -0.052 C  
BRANCH  18  20
HETATM   20  C   UNL     1      -9.885  16.914  66.259  1.00  0.00    -0.320 C  
HETATM   21  C   UNL     1     -10.356  18.106  66.023  1.00  0.00    -0.360 C  
HETATM   22  C   UNL     1     -10.906  19.497  65.748  1.00  0.00    -0.403 C  
ENDBRANCH  18  20
ENDBRANCH  13  14
ENDBRANCH   4  12
BRANCH   9  23
HETATM   23  C   UNL     1     -13.283  10.148  72.073  1.00  0.00    -0.534 C  
BRANCH  23  24
HETATM   24  C   UNL     1     -12.937   8.663  72.218  1.00  0.00    -0.430 C  
BRANCH  24  25
HETATM   25  C   UNL     1     -11.437   8.397  72.122  1.00  0.00    -0.442 C  
HETATM   26  C   UNL     1     -11.124   7.264  71.175  1.00  0.00    -0.253 C  
HETATM   27  O   UNL     1     -11.943   6.617  70.543  1.00  0.00    -0.400 OA 
HETATM   28  O   UNL     1      -9.793   7.026  71.093  1.00  0.00    -0.177 OA 
ENDBRANCH  24  25
ENDBRANCH  23  24
ENDBRANCH   9  23
TORSDOF 6
ENDMDL
MODEL       14
REMARK 921   NORMALIZED FREE ENERGY PREDICTED BY IDOCK:   -6.17 KCAL/MOL
REMARK 922        TOTAL FREE ENERGY PREDICTED BY IDOCK:   -9.68 KCAL/MOL
REMARK 923 INTER-LIGAND FREE ENERGY PREDICTED BY IDOCK:   -8.66 KCAL/MOL
REMARK 924 INTRA-LIGAND FREE ENERGY PREDICTED BY IDOCK:   -1.02 KCAL/MOL
REMARK 927      BINDING AFFINITY PREDICTED BY RF-SCORE:    0.00 PKD
ROOT
HETATM    1  C   UNL     1     -11.808  12.798  64.805  1.00  0.00    -0.423 C  
HETATM    2  C   UNL     1     -11.359  11.669  63.891  1.00  0.00    -0.457 C  
HETATM    3  C   UNL     1     -10.275  10.926  64.673  1.00  0.00    -0.345 C  
HETATM    4  C   UNL     1     -10.524  11.234  66.165  1.00  0.00    -0.305 C  
HETATM    5  O   UNL     1      -8.983  11.417  64.312  1.00  0.00    -0.395 OA 
HETATM    6  H   UNL     1      -8.310  10.955  64.798  1.00  0.00     0.000 HD 
HETATM    7  C   UNL     1     -11.720  12.213  66.212  1.00  0.00    -0.389 C  
HETATM    8  C   UNL     1     -10.871  14.001  64.816  1.00  0.00    -0.430 C  
HETATM    9  C   UNL     1     -10.595  15.719  66.637  1.00  0.00    -0.307 C  
HETATM   10  C   UNL     1     -11.522  13.422  67.133  1.00  0.00    -0.373 C  
HETATM   11  C   UNL     1     -10.945  14.487  66.236  1.00  0.00    -0.323 C  
ENDROOT
BRANCH   4  12
HETATM   12  C   UNL     1     -10.845   9.989  66.957  1.00  0.00    -0.196 C  
HETATM   13  C   UNL     1     -10.411   8.774  66.588  1.00  0.00    -0.298 C  
BRANCH  13  14
HETATM   14  C   UNL     1     -10.547   7.536  67.421  1.00  0.00    -0.294 C  
HETATM   15  O   UNL     1     -11.504   6.694  66.788  1.00  0.00    -0.776 OA 
HETATM   16  C   UNL     1      -9.206   6.780  67.587  1.00  0.00    -0.118 C  
HETATM   17  H   UNL     1     -11.590   5.910  67.316  1.00  0.00     0.000 HD 
HETATM   18  C   UNL     1      -8.148   7.627  68.323  1.00  0.00    -0.124 C  
HETATM   19  C   UNL     1      -8.636   6.280  66.252  1.00  0.00    -0.138 C  
BRANCH  18  20
HETATM   20  C   UNL     1      -8.629   7.969  69.724  1.00  0.00    -0.131 C  
HETATM   21  C   UNL     1      -9.044   8.263  70.925  1.00  0.00    -0.176 C  
HETATM   22  C   UNL     1      -9.526   8.604  72.325  1.00  0.00    -0.336 C  
ENDBRANCH  18  20
ENDBRANCH  13  14
ENDBRANCH   4  12
BRANCH   9  23
HETATM   23  C   UNL     1     -10.060  16.782  65.715  1.00  0.00    -0.276 C  
BRANCH  23  24
HETATM   24  C   UNL     1     -10.510  18.190  66.117  1.00  0.00    -0.377 C  
BRANCH  24  25
HETATM   25  C   UNL     1     -10.626  18.361  67.630  1.00  0.00    -0.437 C  
HETATM   26  C   UNL     1      -9.986  19.643  68.104  1.00  0.00    -0.437 C  
HETATM   27  O   UNL     1      -9.435  20.469  67.395  1.00  0.00    -0.409 OA 
HETATM   28  O   UNL     1     -10.087  19.792  69.446  1.00  0.00    -0.387 OA 
ENDBRANCH  24  25
ENDBRANCH  23  24
ENDBRANCH   9  23
TORSDOF 6
ENDMDL
MODEL       15
REMARK 921   NORMALIZED FREE ENERGY PREDICTED BY IDOCK:   -6.15 KCAL/MOL
REMARK 922        TOTAL FREE ENERGY PREDICTED BY IDOCK:   -9.66 KCAL/MOL
REMARK 923 INTER-LIGAND FREE ENERGY PREDICTED BY IDOCK:   -8.80 KCAL/MOL
REMARK 924 INTRA-LIGAND FREE ENERGY PREDICTED BY IDOCK:   -0.86 KCAL/MOL
REMARK 927      BINDING AFFINITY PREDICTED BY RF-SCORE:    0.00 PKD
ROOT
HETATM    1  C   UNL     1     -11.197  12.602  69.146  1.00  0.00    -0.300 C  
HETATM    2  C   UNL     1     -11.973  12.349  70.428  1.00  0.00    -0.342 C  
HETATM    3  C   UNL     1     -12.071  10.827  70.545  1.00  0.00    -0.366 C  
HETATM    4  C   UNL     1     -10.905  10.249  69.716  1.00  0.00    -0.332 C  
HETATM    5  O   UNL     1     -13.303  10.368  69.986  1.00  0.00    -0.445 OA 
HETATM    6  H   UNL     1     -13.363   9.422  70.058  1.00  0.00     0.000 HD 
HETATM    7  C   UNL     1     -10.186  11.460  69.075  1.00  0.00    -0.137 C  
HETATM    8  C   UNL     1     -12.031  12.472  67.876  1.00  0.00    -0.283 C  
HETATM    9  C   UNL     1     -11.219  11.948  65.549  1.00  0.00    -0.353 C  
HETATM   10  C   UNL     1      -9.869  11.301  67.584  1.00  0.00    -0.190 C  
HETATM   11  C   UNL     1     -11.064  11.894  66.882  1.00  0.00    -0.356 C  
ENDROOT
BRANCH   4  12
HETATM   12  C   UNL     1      -9.934   9.466  70.568  1.00  0.00    -0.328 C  
HETATM   13  C   UNL     1     -10.051   8.142  70.753  1.00  0.00    -0.211 C  
BRANCH  13  14
HETATM   14  C   UNL     1      -9.028   7.288  71.437  1.00  0.00    -0.138 C  
HETATM   15  O   UNL     1      -8.056   8.155  72.010  1.00  0.00    -0.115 OA 
HETATM   16  C   UNL     1      -9.644   6.386  72.535  1.00  0.00    -0.154 C  
HETATM   17  H   UNL     1      -7.408   7.614  72.444  1.00  0.00     0.000 HD 
HETATM   18  C   UNL     1     -10.664   5.382  71.960  1.00  0.00    -0.281 C  
HETATM   19  C   UNL     1     -10.291   7.191  73.672  1.00  0.00    -0.411 C  
BRANCH  18  20
HETATM   20  C   UNL     1      -9.985   4.453  70.966  1.00  0.00    -0.242 C  
HETATM   21  C   UNL     1      -9.402   3.656  70.115  1.00  0.00    -0.243 C  
HETATM   22  C   UNL     1      -8.723   2.726  69.123  1.00  0.00    -0.134 C  
ENDBRANCH  18  20
ENDBRANCH  13  14
ENDBRANCH   4  12
BRANCH   9  23
HETATM   23  C   UNL     1     -12.402  12.583  64.868  1.00  0.00    -0.539 C  
BRANCH  23  24
HETATM   24  C   UNL     1     -12.074  13.961  64.284  1.00  0.00    -0.477 C  
BRANCH  24  25
HETATM   25  C   UNL     1     -11.110  14.757  65.162  1.00  0.00    -0.389 C  
HETATM   26  C   UNL     1     -11.036  16.207  64.748  1.00  0.00    -0.333 C  
HETATM   27  O   UNL     1     -11.657  16.718  63.830  1.00  0.00    -1.122 OA 
HETATM   28  O   UNL     1     -10.179  16.911  65.524  1.00  0.00    -0.580 OA 
ENDBRANCH  24  25
ENDBRANCH  23  24
ENDBRANCH   9  23
TORSDOF 6
ENDMDL
MODEL       16
REMARK 921   NORMALIZED FREE ENERGY PREDICTED BY IDOCK:   -6.03 KCAL/MOL
REMARK 922        TOTAL FREE ENERGY PREDICTED BY IDOCK:   -9.49 KCAL/MOL
REMARK 923 INTER-LIGAND FREE ENERGY PREDICTED BY IDOCK:   -8.25 KCAL/MOL
REMARK 924 INTRA-LIGAND FREE ENERGY PREDICTED BY IDOCK:   -1.24 KCAL/MOL
REMARK 927      BINDING AFFINITY PREDICTED BY RF-SCORE:    0.00 PKD
ROOT
HETATM    1  C   UNL     1      -8.945   8.336  68.964  1.00  0.00    -0.147 C  
HETATM    2  C   UNL     1      -8.417   7.898  67.607  1.00  0.00    -0.127 C  
HETATM    3  C   UNL     1      -9.438   8.416  66.592  1.00  0.00    -0.205 C  
HETATM    4  C   UNL     1     -10.169   9.594  67.271  1.00  0.00    -0.292 C  
HETATM    5  O   UNL     1     -10.392   7.398  66.288  1.00  0.00    -0.460 OA 
HETATM    6  H   UNL     1     -11.026   7.721  65.658  1.00  0.00     0.000 HD 
HETATM    7  C   UNL     1      -9.596   9.692  68.705  1.00  0.00    -0.154 C  
HETATM    8  C   UNL     1     -10.064   7.456  69.511  1.00  0.00    -0.187 C  
HETATM    9  C   UNL     1     -11.840   8.089  71.181  1.00  0.00    -0.307 C  
HETATM   10  C   UNL     1     -10.650   9.844  69.807  1.00  0.00    -0.296 C  
HETATM   11  C   UNL     1     -10.948   8.430  70.238  1.00  0.00    -0.236 C  
ENDROOT
BRANCH   4  12
HETATM   12  C   UNL     1      -9.951  10.897  66.539  1.00  0.00    -0.255 C  
HETATM   13  C   UNL     1     -10.335  11.076  65.266  1.00  0.00    -0.338 C  
BRANCH  13  14
HETATM   14  C   UNL     1     -10.306  12.390  64.548  1.00  0.00    -0.325 C  
HETATM   15  O   UNL     1      -9.584  12.204  63.337  1.00  0.00    -0.628 OA 
HETATM   16  C   UNL     1     -11.724  12.932  64.240  1.00  0.00    -0.445 C  
HETATM   17  H   UNL     1      -9.565  13.037  62.882  1.00  0.00     0.000 HD 
HETATM   18  C   UNL     1     -12.533  13.210  65.524  1.00  0.00    -0.516 C  
HETATM   19  C   UNL     1     -12.524  12.008  63.311  1.00  0.00    -0.544 C  
BRANCH  18  20
HETATM   20  C   UNL     1     -11.837  14.268  66.365  1.00  0.00    -0.427 C  
HETATM   21  C   UNL     1     -11.242  15.176  67.087  1.00  0.00    -0.320 C  
HETATM   22  C   UNL     1     -10.547  16.234  67.929  1.00  0.00    -0.318 C  
ENDBRANCH  18  20
ENDBRANCH  13  14
ENDBRANCH   4  12
BRANCH   9  23
HETATM   23  C   UNL     1     -12.092   6.674  71.626  1.00  0.00    -0.404 C  
BRANCH  23  24
HETATM   24  C   UNL     1     -11.167   6.244  72.769  1.00  0.00    -0.272 C  
BRANCH  24  25
HETATM   25  C   UNL     1     -10.487   7.428  73.453  1.00  0.00    -0.419 C  
HETATM   26  C   UNL     1      -8.999   7.447  73.201  1.00  0.00    -0.155 C  
HETATM   27  O   UNL     1      -8.379   6.634  72.537  1.00  0.00    -0.113 OA 
HETATM   28  O   UNL     1      -8.397   8.496  73.811  1.00  0.00    -0.362 OA 
ENDBRANCH  24  25
ENDBRANCH  23  24
ENDBRANCH   9  23
TORSDOF 6
ENDMDL
MODEL       17
REMARK 921   NORMALIZED FREE ENERGY PREDICTED BY IDOCK:   -6.02 KCAL/MOL
REMARK 922        TOTAL FREE ENERGY PREDICTED BY IDOCK:   -9.48 KCAL/MOL
REMARK 923 INTER-LIGAND FREE ENERGY PREDICTED BY IDOCK:   -8.48 KCAL/MOL
REMARK 924 INTRA-LIGAND FREE ENERGY PREDICTED BY IDOCK:   -1.00 KCAL/MOL
REMARK 927      BINDING AFFINITY PREDICTED BY RF-SCORE:    0.00 PKD
ROOT
HETATM    1  C   UNL     1     -12.406  13.728  66.724  1.00  0.00    -0.365 C  
HETATM    2  C   UNL     1     -12.274  13.398  65.246  1.00  0.00    -0.478 C  
HETATM    3  C   UNL     1     -10.944  12.654  65.117  1.00  0.00    -0.291 C  
HETATM    4  C   UNL     1     -10.638  12.062  66.509  1.00  0.00    -0.269 C  
HETATM    5  O   UNL     1      -9.901  13.565  64.767  1.00  0.00    -0.607 OA 
HETATM    6  H   UNL     1      -9.075  13.103  64.687  1.00  0.00     0.000 HD 
HETATM    7  C   UNL     1     -11.777  12.536  67.442  1.00  0.00    -0.432 C  
HETATM    8  C   UNL     1     -11.589  14.936  67.169  1.00  0.00    -0.327 C  
HETATM    9  C   UNL     1     -10.741  15.451  69.485  1.00  0.00    -0.269 C  
HETATM   10  C   UNL     1     -11.309  13.088  68.794  1.00  0.00    -0.332 C  
HETATM   11  C   UNL     1     -11.156  14.570  68.561  1.00  0.00    -0.271 C  
ENDROOT
BRANCH   4  12
HETATM   12  C   UNL     1     -10.585  10.553  66.487  1.00  0.00    -0.240 C  
HETATM   13  C   UNL     1     -10.130   9.837  67.527  1.00  0.00    -0.246 C  
BRANCH  13  14
HETATM   14  C   UNL     1     -10.216   8.345  67.631  1.00  0.00    -0.236 C  
HETATM   15  O   UNL     1     -10.065   7.812  66.321  1.00  0.00    -0.470 OA 
HETATM   16  C   UNL     1      -9.138   7.751  68.571  1.00  0.00    -0.132 C  
HETATM   17  H   UNL     1     -10.119   6.866  66.387  1.00  0.00     0.000 HD 
HETATM   18  C   UNL     1      -9.293   8.250  70.023  1.00  0.00    -0.162 C  
HETATM   19  C   UNL     1      -7.709   8.017  68.079  1.00  0.00    -0.118 C  
BRANCH  18  20
HETATM   20  C   UNL     1     -10.640   7.826  70.585  1.00  0.00    -0.222 C  
HETATM   21  C   UNL     1     -11.795   7.461  71.066  1.00  0.00    -0.336 C  
HETATM   22  C   UNL     1     -13.142   7.035  71.627  1.00  0.00    -0.384 C  
ENDBRANCH  18  20
ENDBRANCH  13  14
ENDBRANCH   4  12
BRANCH   9  23
HETATM   23  C   UNL     1     -10.634  16.933  69.243  1.00  0.00    -0.325 C  
BRANCH  23  24
HETATM   24  C   UNL     1      -9.348  17.318  68.507  1.00  0.00    -0.276 C  
BRANCH  24  25
HETATM   25  C   UNL     1      -9.419  18.712  67.889  1.00  0.00    -0.331 C  
HETATM   26  C   UNL     1      -9.881  18.671  66.453  1.00  0.00    -0.367 C  
HETATM   27  O   UNL     1     -10.173  17.665  65.827  1.00  0.00    -0.560 OA 
HETATM   28  O   UNL     1      -9.940  19.907  65.905  1.00  0.00    -0.437 OA 
ENDBRANCH  24  25
ENDBRANCH  23  24
ENDBRANCH   9  23
TORSDOF 6
ENDMDL
MODEL       18
REMARK 921   NORMALIZED FREE ENERGY PREDICTED BY IDOCK:   -5.96 KCAL/MOL
REMARK 922        TOTAL FREE ENERGY PREDICTED BY IDOCK:   -9.40 KCAL/MOL
REMARK 923 INTER-LIGAND FREE ENERGY PREDICTED BY IDOCK:   -8.30 KCAL/MOL
REMARK 924 INTRA-LIGAND FREE ENERGY PREDICTED BY IDOCK:   -1.10 KCAL/MOL
REMARK 927      BINDING AFFINITY PREDICTED BY RF-SCORE:    0.00 PKD
ROOT
HETATM    1  C   UNL     1     -11.435  11.005  67.552  1.00  0.00    -0.266 C  
HETATM    2  C   UNL     1     -10.496   9.838  67.294  1.00  0.00    -0.324 C  
HETATM    3  C   UNL     1      -9.559   9.802  68.502  1.00  0.00    -0.149 C  
HETATM    4  C   UNL     1     -10.304  10.510  69.654  1.00  0.00    -0.231 C  
HETATM    5  O   UNL     1      -8.360  10.526  68.218  1.00  0.00    -0.114 OA 
HETATM    6  H   UNL     1      -7.778  10.503  68.969  1.00  0.00     0.000 HD 
HETATM    7  C   UNL     1     -11.645  11.004  69.064  1.00  0.00    -0.392 C  
HETATM    8  C   UNL     1     -10.836  12.370  67.235  1.00  0.00    -0.279 C  
HETATM    9  C   UNL     1     -11.505  14.604  68.189  1.00  0.00    -0.346 C  
HETATM   10  C   UNL     1     -12.004  12.452  69.416  1.00  0.00    -0.319 C  
HETATM   11  C   UNL     1     -11.436  13.266  68.281  1.00  0.00    -0.351 C  
ENDROOT
BRANCH   4  12
HETATM   12  C   UNL     1     -10.563   9.583  70.818  1.00  0.00    -0.387 C  
HETATM   13  C   UNL     1     -11.799   9.349  71.285  1.00  0.00    -0.435 C  
BRANCH  13  14
HETATM   14  C   UNL     1     -12.135   8.314  72.314  1.00  0.00    -0.379 C  
HETATM   15  O   UNL     1     -12.951   8.935  73.301  1.00  0.00    -0.633 OA 
HETATM   16  C   UNL     1     -12.872   7.092  71.711  1.00  0.00    -0.368 C  
HETATM   17  H   UNL     1     -13.163   8.278  73.953  1.00  0.00     0.000 HD 
HETATM   18  C   UNL     1     -12.007   6.344  70.676  1.00  0.00    -0.240 C  
HETATM   19  C   UNL     1     -14.225   7.464  71.088  1.00  0.00    -0.272 C  
BRANCH  18  20
HETATM   20  C   UNL     1     -10.746   5.808  71.333  1.00  0.00    -0.319 C  
HETATM   21  C   UNL     1      -9.664   5.349  71.898  1.00  0.00    -0.204 C  
HETATM   22  C   UNL     1      -8.403   4.813  72.557  1.00  0.00    -0.115 C  
ENDBRANCH  18  20
ENDBRANCH  13  14
ENDBRANCH   4  12
BRANCH   9  23
HETATM   23  C   UNL     1     -10.967  15.393  67.026  1.00  0.00    -0.306 C  
BRANCH  23  24
HETATM   24  C   UNL     1      -9.863  16.370  67.439  1.00  0.00    -0.244 C  
BRANCH  24  25
HETATM   25  C   UNL     1     -10.401  17.760  67.771  1.00  0.00    -0.382 C  
HETATM   26  C   UNL     1      -9.825  18.820  66.864  1.00  0.00    -0.334 C  
HETATM   27  O   UNL     1      -9.026  18.629  65.962  1.00  0.00    -0.489 OA 
HETATM   28  O   UNL     1     -10.300  20.053  67.162  1.00  0.00    -0.425 OA 
ENDBRANCH  24  25
ENDBRANCH  23  24
ENDBRANCH   9  23
TORSDOF 6
ENDMDL
MODEL       19
REMARK 921   NORMALIZED FREE ENERGY PREDICTED BY IDOCK:   -5.96 KCAL/MOL
REMARK 922        TOTAL FREE ENERGY PREDICTED BY IDOCK:   -9.40 KCAL/MOL
REMARK 923 INTER-LIGAND FREE ENERGY PREDICTED BY IDOCK:   -8.45 KCAL/MOL
REMARK 924 INTRA-LIGAND FREE ENERGY PREDICTED BY IDOCK:   -0.96 KCAL/MOL
REMARK 927      BINDING AFFINITY PREDICTED BY RF-SCORE:    0.00 PKD
ROOT
HETATM    1  C   UNL     1     -11.299  12.765  66.071  1.00  0.00    -0.363 C  
HETATM    2  C   UNL     1     -12.332  13.879  66.010  1.00  0.00    -0.511 C  
HETATM    3  C   UNL     1     -11.806  14.967  66.947  1.00  0.00    -0.187 C  
HETATM    4  C   UNL     1     -10.281  14.750  67.055  1.00  0.00    -0.253 C  
HETATM    5  O   UNL     1     -12.383  14.821  68.245  1.00  0.00    -0.594 OA 
HETATM    6  H   UNL     1     -12.055  15.497  68.827  1.00  0.00     0.000 HD 
HETATM    7  C   UNL     1      -9.962  13.487  66.221  1.00  0.00    -0.302 C  
HETATM    8  C   UNL     1     -11.412  11.877  67.305  1.00  0.00    -0.385 C  
HETATM    9  C   UNL     1      -9.600  10.490  68.373  1.00  0.00    -0.164 C  
HETATM   10  C   UNL     1      -9.042  12.477  66.916  1.00  0.00    -0.213 C  
HETATM   11  C   UNL     1      -9.983  11.532  67.617  1.00  0.00    -0.199 C  
ENDROOT
BRANCH   4  12
HETATM   12  C   UNL     1      -9.500  15.929  66.524  1.00  0.00    -0.299 C  
HETATM   13  C   UNL     1      -9.050  16.909  67.324  1.00  0.00    -0.225 C  
BRANCH  13  14
HETATM   14  C   UNL     1      -8.127  18.003  66.886  1.00  0.00    -0.236 C  
HETATM   15  O   UNL     1      -7.821  17.786  65.513  1.00  0.00    -0.451 OA 
HETATM   16  C   UNL     1      -8.742  19.412  67.074  1.00  0.00    -0.328 C  
HETATM   17  H   UNL     1      -7.236  18.480  65.236  1.00  0.00     0.000 HD 
HETATM   18  C   UNL     1      -9.038  19.725  68.555  1.00  0.00    -0.307 C  
HETATM   19  C   UNL     1     -10.010  19.623  66.234  1.00  0.00    -0.563 C  
BRANCH  18  20
HETATM   20  C   UNL     1      -7.752  19.702  69.365  1.00  0.00    -0.067 C  
HETATM   21  C   UNL     1      -6.650  19.683  70.061  1.00  0.00    -0.245 C  
HETATM   22  C   UNL     1      -5.365  19.660  70.872  1.00  0.00    -0.272 C  
ENDBRANCH  18  20
ENDBRANCH  13  14
ENDBRANCH   4  12
BRANCH   9  23
HETATM   23  C   UNL     1     -10.557   9.533  69.030  1.00  0.00    -0.238 C  
BRANCH  23  24
HETATM   24  C   UNL     1     -10.547   9.646  70.557  1.00  0.00    -0.369 C  
BRANCH  24  25
HETATM   25  C   UNL     1     -11.916  10.006  71.130  1.00  0.00    -0.484 C  
HETATM   26  C   UNL     1     -12.395   8.985  72.133  1.00  0.00    -0.372 C  
HETATM   27  O   UNL     1     -11.789   7.981  72.472  1.00  0.00    -0.367 OA 
HETATM   28  O   UNL     1     -13.610   9.303  72.637  1.00  0.00    -0.455 OA 
ENDBRANCH  24  25
ENDBRANCH  23  24
ENDBRANCH   9  23
TORSDOF 6
ENDMDL
MODEL       20
REMARK 921   NORMALIZED FREE ENERGY PREDICTED BY IDOCK:   -5.95 KCAL/MOL
REMARK 922        TOTAL FREE ENERGY PREDICTED BY IDOCK:   -9.39 KCAL/MOL
REMARK 923 INTER-LIGAND FREE ENERGY PREDICTED BY IDOCK:   -8.32 KCAL/MOL
REMARK 924 INTRA-LIGAND FREE ENERGY PREDICTED BY IDOCK:   -1.07 KCAL/MOL
REMARK 927      BINDING AFFINITY PREDICTED BY RF-SCORE:    0.00 PKD
ROOT
HETATM    1  C   UNL     1     -11.863  11.475  67.917  1.00  0.00    -0.255 C  
HETATM    2  C   UNL     1     -10.939  10.563  67.127  1.00  0.00    -0.294 C  
HETATM    3  C   UNL     1      -9.721  10.348  68.026  1.00  0.00    -0.150 C  
HETATM    4  C   UNL     1     -10.193  10.617  69.471  1.00  0.00    -0.190 C  
HETATM    5  O   UNL     1      -8.694  11.285  67.698  1.00  0.00    -0.128 OA 
HETATM    6  H   UNL     1      -7.937  11.151  68.257  1.00  0.00     0.000 HD 
HETATM    7  C   UNL     1     -11.674  11.050  69.371  1.00  0.00    -0.394 C  
HETATM    8  C   UNL     1     -11.469  12.947  67.879  1.00  0.00    -0.362 C  
HETATM    9  C   UNL     1     -12.032  14.734  69.563  1.00  0.00    -0.351 C  
HETATM   10  C   UNL     1     -12.036  12.288  70.198  1.00  0.00    -0.364 C  
HETATM   11  C   UNL     1     -11.843  13.443  69.247  1.00  0.00    -0.385 C  
ENDROOT
BRANCH   4  12
HETATM   12  C   UNL     1     -10.072   9.391  70.346  1.00  0.00    -0.310 C  
HETATM   13  C   UNL     1     -11.017   9.051  71.237  1.00  0.00    -0.384 C  
BRANCH  13  14
HETATM   14  C   UNL     1     -11.038   7.763  72.001  1.00  0.00    -0.269 C  
HETATM   15  O   UNL     1     -11.452   8.058  73.330  1.00  0.00    -0.496 OA 
HETATM   16  C   UNL     1     -11.987   6.713  71.372  1.00  0.00    -0.405 C  
HETATM   17  H   UNL     1     -11.466   7.241  73.814  1.00  0.00     0.000 HD 
HETATM   18  C   UNL     1     -11.549   6.311  69.948  1.00  0.00    -0.361 C  
HETATM   19  C   UNL     1     -13.452   7.170  71.356  1.00  0.00    -0.374 C  
BRANCH  18  20
HETATM   20  C   UNL     1     -10.166   5.681  69.982  1.00  0.00    -0.321 C  
HETATM   21  C   UNL     1      -8.979   5.141  70.009  1.00  0.00    -0.153 C  
HETATM   22  C   UNL     1      -7.596   4.511  70.041  1.00  0.00    -0.054 C  
ENDBRANCH  18  20
ENDBRANCH  13  14
ENDBRANCH   4  12
BRANCH   9  23
HETATM   23  C   UNL     1     -11.874  15.868  68.587  1.00  0.00    -0.243 C  
BRANCH  23  24
HETATM   24  C   UNL     1     -10.430  16.368  68.495  1.00  0.00    -0.291 C  
BRANCH  24  25
HETATM   25  C   UNL     1     -10.329  17.767  67.890  1.00  0.00    -0.388 C  
HETATM   26  C   UNL     1     -10.232  17.726  66.384  1.00  0.00    -0.365 C  
HETATM   27  O   UNL     1     -10.233  16.717  65.698  1.00  0.00    -0.523 OA 
HETATM   28  O   UNL     1     -10.139  18.966  65.850  1.00  0.00    -0.506 OA 
ENDBRANCH  24  25
ENDBRANCH  23  24
ENDBRANCH   9  23
TORSDOF 6
ENDMDL
MODEL       21
REMARK 921   NORMALIZED FREE ENERGY PREDICTED BY IDOCK:   -5.94 KCAL/MOL
REMARK 922        TOTAL FREE ENERGY PREDICTED BY IDOCK:   -9.37 KCAL/MOL
REMARK 923 INTER-LIGAND FREE ENERGY PREDICTED BY IDOCK:   -8.26 KCAL/MOL
REMARK 924 INTRA-LIGAND FREE ENERGY PREDICTED BY IDOCK:   -1.11 KCAL/MOL
REMARK 927      BINDING AFFINITY PREDICTED BY RF-SCORE:    0.00 PKD
ROOT
HETATM    1  C   UNL     1     -12.740  14.417  69.835  1.00  0.00    -0.107 C  
HETATM    2  C   UNL     1     -12.652  15.810  70.439  1.00  0.00    -0.279 C  
HETATM    3  C   UNL     1     -11.175  16.003  70.788  1.00  0.00    -0.352 C  
HETATM    4  C   UNL     1     -10.383  15.036  69.884  1.00  0.00    -0.141 C  
HETATM    5  O   UNL     1     -10.941  15.652  72.152  1.00  0.00    -0.086 OA 
HETATM    6  H   UNL     1     -10.023  15.772  72.369  1.00  0.00     0.000 HD 
HETATM    7  C   UNL     1     -11.433  14.246  69.067  1.00  0.00    -0.318 C  
HETATM    8  C   UNL     1     -12.747  13.291  70.863  1.00  0.00    -0.332 C  
HETATM    9  C   UNL     1     -12.051  10.894  70.524  1.00  0.00    -0.464 C  
HETATM   10  C   UNL     1     -11.197  12.733  69.016  1.00  0.00    -0.317 C  
HETATM   11  C   UNL     1     -11.988  12.190  70.178  1.00  0.00    -0.394 C  
ENDROOT
BRANCH   4  12
HETATM   12  C   UNL     1      -9.447  15.767  68.950  1.00  0.00    -0.229 C  
HETATM   13  C   UNL     1      -9.888  16.424  67.865  1.00  0.00    -0.238 C  
BRANCH  13  14
HETATM   14  C   UNL     1      -9.037  17.307  67.006  1.00  0.00    -0.236 C  
HETATM   15  O   UNL     1      -9.137  16.833  65.668  1.00  0.00    -0.489 OA 
HETATM   16  C   UNL     1      -9.466  18.794  67.073  1.00  0.00    -0.322 C  
HETATM   17  H   UNL     1      -8.598  17.394  65.123  1.00  0.00     0.000 HD 
HETATM   18  C   UNL     1      -9.319  19.378  68.494  1.00  0.00    -0.446 C  
HETATM   19  C   UNL     1     -10.894  19.024  66.560  1.00  0.00    -0.291 C  
BRANCH  18  20
HETATM   20  C   UNL     1      -7.866  19.325  68.937  1.00  0.00    -0.367 C  
HETATM   21  C   UNL     1      -6.620  19.280  69.317  1.00  0.00    -0.348 C  
HETATM   22  C   UNL     1      -5.167  19.228  69.759  1.00  0.00    -0.208 C  
ENDBRANCH  18  20
ENDBRANCH  13  14
ENDBRANCH   4  12
BRANCH   9  23
HETATM   23  C   UNL     1     -12.881  10.369  71.664  1.00  0.00    -0.579 C  
BRANCH  23  24
HETATM   24  C   UNL     1     -12.486   8.947  72.073  1.00  0.00    -0.461 C  
BRANCH  24  25
HETATM   25  C   UNL     1     -11.790   8.183  70.948  1.00  0.00    -0.232 C  
HETATM   26  C   UNL     1     -11.811   6.692  71.180  1.00  0.00    -0.360 C  
HETATM   27  O   UNL     1     -12.314   6.128  72.138  1.00  0.00    -0.299 OA 
HETATM   28  O   UNL     1     -11.191   6.017  70.184  1.00  0.00    -0.363 OA 
ENDBRANCH  24  25
ENDBRANCH  23  24
ENDBRANCH   9  23
TORSDOF 6
ENDMDL
MODEL       22
REMARK 921   NORMALIZED FREE ENERGY PREDICTED BY IDOCK:   -5.92 KCAL/MOL
REMARK 922        TOTAL FREE ENERGY PREDICTED BY IDOCK:   -9.35 KCAL/MOL
REMARK 923 INTER-LIGAND FREE ENERGY PREDICTED BY IDOCK:   -7.95 KCAL/MOL
REMARK 924 INTRA-LIGAND FREE ENERGY PREDICTED BY IDOCK:   -1.40 KCAL/MOL
REMARK 927      BINDING AFFINITY PREDICTED BY RF-SCORE:    0.00 PKD
ROOT
HETATM    1  C   UNL     1     -12.394  13.456  66.521  1.00  0.00    -0.354 C  
HETATM    2  C   UNL     1     -12.470  13.466  65.003  1.00  0.00    -0.479 C  
HETATM    3  C   UNL     1     -11.066  13.091  64.528  1.00  0.00    -0.351 C  
HETATM    4  C   UNL     1     -10.403  12.321  65.690  1.00  0.00    -0.287 C  
HETATM    5  O   UNL     1     -10.302  14.268  64.264  1.00  0.00    -0.533 OA 
HETATM    6  H   UNL     1      -9.430  14.034  63.970  1.00  0.00     0.000 HD 
HETATM    7  C   UNL     1     -11.425  12.324  66.851  1.00  0.00    -0.418 C  
HETATM    8  C   UNL     1     -11.763  14.707  67.123  1.00  0.00    -0.392 C  
HETATM    9  C   UNL     1     -10.629  14.933  69.360  1.00  0.00    -0.255 C  
HETATM   10  C   UNL     1     -10.839  12.689  68.219  1.00  0.00    -0.261 C  
HETATM   11  C   UNL     1     -11.023  14.181  68.320  1.00  0.00    -0.266 C  
ENDROOT
BRANCH   4  12
HETATM   12  C   UNL     1     -10.060  10.900  65.309  1.00  0.00    -0.340 C  
HETATM   13  C   UNL     1      -9.281  10.609  64.256  1.00  0.00    -0.265 C  
BRANCH  13  14
HETATM   14  C   UNL     1      -8.766   9.240  63.935  1.00  0.00    -0.168 C  
HETATM   15  O   UNL     1      -9.267   8.881  62.652  1.00  0.00    -0.505 OA 
HETATM   16  C   UNL     1      -7.219   9.170  63.936  1.00  0.00    -0.096 C  
HETATM   17  H   UNL     1      -8.941   8.013  62.448  1.00  0.00     0.000 HD 
HETATM   18  C   UNL     1      -6.623   9.493  65.322  1.00  0.00    -0.082 C  
HETATM   19  C   UNL     1      -6.583  10.076  62.872  1.00  0.00    -0.127 C  
BRANCH  18  20
HETATM   20  C   UNL     1      -7.104   8.481  66.349  1.00  0.00    -0.079 C  
HETATM   21  C   UNL     1      -7.516   7.614  67.232  1.00  0.00    -0.100 C  
HETATM   22  C   UNL     1      -7.997   6.603  68.260  1.00  0.00    -0.111 C  
ENDBRANCH  18  20
ENDBRANCH  13  14
ENDBRANCH   4  12
BRANCH   9  23
HETATM   23  C   UNL     1     -10.860  16.417  69.459  1.00  0.00    -0.338 C  
BRANCH  23  24
HETATM   24  C   UNL     1      -9.821  17.227  68.680  1.00  0.00    -0.313 C  
BRANCH  24  25
HETATM   25  C   UNL     1     -10.455  18.184  67.672  1.00  0.00    -0.432 C  
HETATM   26  C   UNL     1     -10.126  17.805  66.249  1.00  0.00    -0.344 C  
HETATM   27  O   UNL     1      -9.441  16.856  65.905  1.00  0.00    -0.478 OA 
HETATM   28  O   UNL     1     -10.686  18.656  65.357  1.00  0.00    -0.572 OA 
ENDBRANCH  24  25
ENDBRANCH  23  24
ENDBRANCH   9  23
TORSDOF 6
ENDMDL
MODEL       23
REMARK 921   NORMALIZED FREE ENERGY PREDICTED BY IDOCK:   -5.91 KCAL/MOL
REMARK 922        TOTAL FREE ENERGY PREDICTED BY IDOCK:   -9.33 KCAL/MOL
REMARK 923 INTER-LIGAND FREE ENERGY PREDICTED BY IDOCK:   -8.67 KCAL/MOL
REMARK 924 INTRA-LIGAND FREE ENERGY PREDICTED BY IDOCK:   -0.65 KCAL/MOL
REMARK 927      BINDING AFFINITY PREDICTED BY RF-SCORE:    0.00 PKD
ROOT
HETATM    1  C   UNL     1      -8.254  16.155  66.538  1.00  0.00    -0.343 C  
HETATM    2  C   UNL     1      -7.756  15.031  67.432  1.00  0.00    -0.227 C  
HETATM    3  C   UNL     1      -8.967  14.616  68.268  1.00  0.00    -0.184 C  
HETATM    4  C   UNL     1     -10.217  15.051  67.473  1.00  0.00    -0.234 C  
HETATM    5  O   UNL     1      -8.960  15.300  69.522  1.00  0.00    -0.323 OA 
HETATM    6  H   UNL     1      -9.713  15.042  70.041  1.00  0.00     0.000 HD 
HETATM    7  C   UNL     1      -9.696  15.776  66.210  1.00  0.00    -0.328 C  
HETATM    8  C   UNL     1      -8.347  17.509  67.232  1.00  0.00    -0.225 C  
HETATM    9  C   UNL     1      -9.814  19.460  66.608  1.00  0.00    -0.462 C  
HETATM   10  C   UNL     1     -10.395  17.105  65.901  1.00  0.00    -0.294 C  
HETATM   11  C   UNL     1      -9.553  18.143  66.599  1.00  0.00    -0.306 C  
ENDROOT
BRANCH   4  12
HETATM   12  C   UNL     1     -11.076  13.874  67.074  1.00  0.00    -0.311 C  
HETATM   13  C   UNL     1     -11.124  13.418  65.813  1.00  0.00    -0.295 C  
BRANCH  13  14
HETATM   14  C   UNL     1     -11.815  12.157  65.394  1.00  0.00    -0.295 C  
HETATM   15  O   UNL     1     -13.043  12.524  64.773  1.00  0.00    -0.853 OA 
HETATM   16  C   UNL     1     -10.963  11.308  64.418  1.00  0.00    -0.331 C  
HETATM   17  H   UNL     1     -13.480  11.725  64.507  1.00  0.00     0.000 HD 
HETATM   18  C   UNL     1      -9.645  10.831  65.061  1.00  0.00    -0.305 C  
HETATM   19  C   UNL     1     -10.667  12.036  63.100  1.00  0.00    -0.277 C  
BRANCH  18  20
HETATM   20  C   UNL     1      -9.935   9.949  66.265  1.00  0.00    -0.322 C  
HETATM   21  C   UNL     1     -10.185   9.192  67.296  1.00  0.00    -0.319 C  
HETATM   22  C   UNL     1     -10.475   8.309  68.499  1.00  0.00    -0.199 C  
ENDBRANCH  18  20
ENDBRANCH  13  14
ENDBRANCH   4  12
BRANCH   9  23
HETATM   23  C   UNL     1      -8.937  20.484  67.276  1.00  0.00    -0.431 C  
BRANCH  23  24
HETATM   24  C   UNL     1      -7.470  20.367  66.853  1.00  0.00    -0.345 C  
BRANCH  24  25
HETATM   25  C   UNL     1      -6.532  21.163  67.759  1.00  0.00    -0.370 C  
HETATM   26  C   UNL     1      -6.292  20.465  69.076  1.00  0.00    -0.282 C  
HETATM   27  O   UNL     1      -6.771  19.395  69.412  1.00  0.00    -0.313 OA 
HETATM   28  O   UNL     1      -5.463  21.173  69.879  1.00  0.00    -0.501 OA 
ENDBRANCH  24  25
ENDBRANCH  23  24
ENDBRANCH   9  23
TORSDOF 6
ENDMDL
MODEL       24
REMARK 921   NORMALIZED FREE ENERGY PREDICTED BY IDOCK:   -5.88 KCAL/MOL
REMARK 922        TOTAL FREE ENERGY PREDICTED BY IDOCK:   -9.28 KCAL/MOL
REMARK 923 INTER-LIGAND FREE ENERGY PREDICTED BY IDOCK:   -8.16 KCAL/MOL
REMARK 924 INTRA-LIGAND FREE ENERGY PREDICTED BY IDOCK:   -1.12 KCAL/MOL
REMARK 927      BINDING AFFINITY PREDICTED BY RF-SCORE:    0.00 PKD
ROOT
HETATM    1  C   UNL     1     -11.131   9.208  71.566  1.00  0.00    -0.436 C  
HETATM    2  C   UNL     1     -12.090   8.412  72.437  1.00  0.00    -0.443 C  
HETATM    3  C   UNL     1     -12.649   7.320  71.525  1.00  0.00    -0.379 C  
HETATM    4  C   UNL     1     -11.620   7.128  70.391  1.00  0.00    -0.300 C  
HETATM    5  O   UNL     1     -13.888   7.741  70.953  1.00  0.00    -0.597 OA 
HETATM    6  H   UNL     1     -14.236   7.062  70.386  1.00  0.00     0.000 HD 
HETATM    7  C   UNL     1     -10.504   8.171  70.636  1.00  0.00    -0.224 C  
HETATM    8  C   UNL     1     -11.813  10.210  70.641  1.00  0.00    -0.431 C  
HETATM    9  C   UNL     1     -10.931  11.155  68.479  1.00  0.00    -0.267 C  
HETATM   10  C   UNL     1     -10.079   8.959  69.392  1.00  0.00    -0.202 C  
HETATM   11  C   UNL     1     -10.954  10.186  69.409  1.00  0.00    -0.285 C  
ENDROOT
BRANCH   4  12
HETATM   12  C   UNL     1     -11.032   5.737  70.385  1.00  0.00    -0.333 C  
HETATM   13  C   UNL     1     -10.168   5.328  69.443  1.00  0.00    -0.321 C  
BRANCH  13  14
HETATM   14  C   UNL     1      -9.422   4.030  69.482  1.00  0.00    -0.187 C  
HETATM   15  O   UNL     1      -9.517   3.439  68.191  1.00  0.00    -0.183 OA 
HETATM   16  C   UNL     1      -7.934   4.211  69.873  1.00  0.00    -0.055 C  
HETATM   17  H   UNL     1      -9.043   2.616  68.217  1.00  0.00     0.000 HD 
HETATM   18  C   UNL     1      -7.771   4.794  71.291  1.00  0.00    -0.083 C  
HETATM   19  C   UNL     1      -7.155   5.068  68.865  1.00  0.00    -0.053 C  
BRANCH  18  20
HETATM   20  C   UNL     1      -8.378   3.854  72.320  1.00  0.00    -0.093 C  
HETATM   21  C   UNL     1      -8.899   3.048  73.203  1.00  0.00    -0.085 C  
HETATM   22  C   UNL     1      -9.506   2.109  74.232  1.00  0.00    -0.099 C  
ENDBRANCH  18  20
ENDBRANCH  13  14
ENDBRANCH   4  12
BRANCH   9  23
HETATM   23  C   UNL     1     -11.783  12.394  68.537  1.00  0.00    -0.373 C  
BRANCH  23  24
HETATM   24  C   UNL     1     -11.701  13.225  67.254  1.00  0.00    -0.424 C  
BRANCH  24  25
HETATM   25  C   UNL     1     -11.815  12.373  65.992  1.00  0.00    -0.459 C  
HETATM   26  C   UNL     1     -12.707  13.013  64.957  1.00  0.00    -0.410 C  
HETATM   27  O   UNL     1     -13.283  14.082  65.075  1.00  0.00    -0.720 OA 
HETATM   28  O   UNL     1     -12.810  12.254  63.840  1.00  0.00    -0.720 OA 
ENDBRANCH  24  25
ENDBRANCH  23  24
ENDBRANCH   9  23
TORSDOF 6
ENDMDL
MODEL       25
REMARK 921   NORMALIZED FREE ENERGY PREDICTED BY IDOCK:   -5.87 KCAL/MOL
REMARK 922        TOTAL FREE ENERGY PREDICTED BY IDOCK:   -9.28 KCAL/MOL
REMARK 923 INTER-LIGAND FREE ENERGY PREDICTED BY IDOCK:   -8.09 KCAL/MOL
REMARK 924 INTRA-LIGAND FREE ENERGY PREDICTED BY IDOCK:   -1.19 KCAL/MOL
REMARK 927      BINDING AFFINITY PREDICTED BY RF-SCORE:    0.00 PKD
ROOT
HETATM    1  C   UNL     1      -9.738  10.825  67.425  1.00  0.00    -0.194 C  
HETATM    2  C   UNL     1      -8.311  10.313  67.539  1.00  0.00    -0.114 C  
HETATM    3  C   UNL     1      -8.037  10.218  69.040  1.00  0.00    -0.132 C  
HETATM    4  C   UNL     1      -9.413  10.095  69.728  1.00  0.00    -0.201 C  
HETATM    5  O   UNL     1      -7.398  11.409  69.501  1.00  0.00    -0.318 OA 
HETATM    6  H   UNL     1      -7.228  11.350  70.435  1.00  0.00     0.000 HD 
HETATM    7  C   UNL     1     -10.471  10.189  68.604  1.00  0.00    -0.225 C  
HETATM    8  C   UNL     1      -9.880  12.328  67.633  1.00  0.00    -0.196 C  
HETATM    9  C   UNL     1     -11.927  13.591  68.384  1.00  0.00    -0.378 C  
HETATM   10  C   UNL     1     -11.640  11.135  68.902  1.00  0.00    -0.385 C  
HETATM   11  C   UNL     1     -11.205  12.460  68.329  1.00  0.00    -0.309 C  
ENDROOT
BRANCH   4  12
HETATM   12  C   UNL     1      -9.564   8.788  70.470  1.00  0.00    -0.226 C  
HETATM   13  C   UNL     1     -10.456   8.625  71.459  1.00  0.00    -0.344 C  
BRANCH  13  14
HETATM   14  C   UNL     1     -10.772   7.312  72.108  1.00  0.00    -0.219 C  
HETATM   15  O   UNL     1     -11.081   7.569  73.473  1.00  0.00    -0.556 OA 
HETATM   16  C   UNL     1     -11.956   6.581  71.427  1.00  0.00    -0.371 C  
HETATM   17  H   UNL     1     -11.282   6.737  73.884  1.00  0.00     0.000 HD 
HETATM   18  C   UNL     1     -11.651   6.224  69.957  1.00  0.00    -0.378 C  
HETATM   19  C   UNL     1     -13.269   7.373  71.508  1.00  0.00    -0.426 C  
BRANCH  18  20
HETATM   20  C   UNL     1     -10.459   5.284  69.881  1.00  0.00    -0.351 C  
HETATM   21  C   UNL     1      -9.435   4.478  69.817  1.00  0.00    -0.247 C  
HETATM   22  C   UNL     1      -8.243   3.539  69.742  1.00  0.00    -0.071 C  
ENDBRANCH  18  20
ENDBRANCH  13  14
ENDBRANCH   4  12
BRANCH   9  23
HETATM   23  C   UNL     1     -11.493  14.894  67.768  1.00  0.00    -0.353 C  
BRANCH  23  24
HETATM   24  C   UNL     1     -11.699  16.086  68.707  1.00  0.00    -0.302 C  
BRANCH  24  25
HETATM   25  C   UNL     1     -11.109  15.848  70.096  1.00  0.00    -0.369 C  
HETATM   26  C   UNL     1     -12.183  15.699  71.147  1.00  0.00    -0.413 C  
HETATM   27  O   UNL     1     -13.385  15.752  70.949  1.00  0.00    -0.576 OA 
HETATM   28  O   UNL     1     -11.659  15.492  72.378  1.00  0.00    -0.434 OA 
ENDBRANCH  24  25
ENDBRANCH  23  24
ENDBRANCH   9  23
TORSDOF 6
ENDMDL
MODEL       26
REMARK 921   NORMALIZED FREE ENERGY PREDICTED BY IDOCK:   -5.86 KCAL/MOL
REMARK 922        TOTAL FREE ENERGY PREDICTED BY IDOCK:   -9.27 KCAL/MOL
REMARK 923 INTER-LIGAND FREE ENERGY PREDICTED BY IDOCK:   -8.14 KCAL/MOL
REMARK 924 INTRA-LIGAND FREE ENERGY PREDICTED BY IDOCK:   -1.13 KCAL/MOL
REMARK 927      BINDING AFFINITY PREDICTED BY RF-SCORE:    0.00 PKD
ROOT
HETATM    1  C   UNL     1     -10.502  10.275  65.869  1.00  0.00    -0.167 C  
HETATM    2  C   UNL     1      -9.140   9.610  65.746  1.00  0.00    -0.230 C  
HETATM    3  C   UNL     1      -8.282  10.249  66.839  1.00  0.00    -0.123 C  
HETATM    4  C   UNL     1      -9.260  10.791  67.903  1.00  0.00    -0.151 C  
HETATM    5  O   UNL     1      -7.535  11.343  66.303  1.00  0.00    -0.329 OA 
HETATM    6  H   UNL     1      -7.002  11.740  66.982  1.00  0.00     0.000 HD 
HETATM    7  C   UNL     1     -10.683  10.509  67.367  1.00  0.00    -0.334 C  
HETATM    8  C   UNL     1     -10.579  11.661  65.238  1.00  0.00    -0.333 C  
HETATM    9  C   UNL     1     -12.174  13.525  65.810  1.00  0.00    -0.505 C  
HETATM   10  C   UNL     1     -11.652  11.693  67.469  1.00  0.00    -0.345 C  
HETATM   11  C   UNL     1     -11.513  12.406  66.149  1.00  0.00    -0.430 C  
ENDROOT
BRANCH   4  12
HETATM   12  C   UNL     1      -9.072  10.119  69.243  1.00  0.00    -0.208 C  
HETATM   13  C   UNL     1      -9.912   9.176  69.695  1.00  0.00    -0.198 C  
BRANCH  13  14
HETATM   14  C   UNL     1      -9.682   8.355  70.927  1.00  0.00    -0.174 C  
HETATM   15  O   UNL     1      -9.086   9.202  71.903  1.00  0.00    -0.354 OA 
HETATM   16  C   UNL     1     -10.989   7.741  71.486  1.00  0.00    -0.267 C  
HETATM   17  H   UNL     1      -8.940   8.681  72.684  1.00  0.00     0.000 HD 
HETATM   18  C   UNL     1     -11.648   6.766  70.489  1.00  0.00    -0.426 C  
HETATM   19  C   UNL     1     -12.006   8.806  71.922  1.00  0.00    -0.435 C  
BRANCH  18  20
HETATM   20  C   UNL     1     -10.714   5.603  70.196  1.00  0.00    -0.376 C  
HETATM   21  C   UNL     1      -9.911   4.607  69.943  1.00  0.00    -0.296 C  
HETATM   22  C   UNL     1      -8.976   3.445  69.650  1.00  0.00    -0.177 C  
ENDBRANCH  18  20
ENDBRANCH  13  14
ENDBRANCH   4  12
BRANCH   9  23
HETATM   23  C   UNL     1     -12.052  14.198  64.469  1.00  0.00    -0.489 C  
BRANCH  23  24
HETATM   24  C   UNL     1     -11.255  15.503  64.537  1.00  0.00    -0.327 C  
BRANCH  24  25
HETATM   25  C   UNL     1     -10.123  15.449  65.561  1.00  0.00    -0.405 C  
HETATM   26  C   UNL     1      -9.772  16.819  66.089  1.00  0.00    -0.291 C  
HETATM   27  O   UNL     1     -10.308  17.866  65.764  1.00  0.00    -0.577 OA 
HETATM   28  O   UNL     1      -8.766  16.769  66.994  1.00  0.00    -0.190 OA 
ENDBRANCH  24  25
ENDBRANCH  23  24
ENDBRANCH   9  23
TORSDOF 6
ENDMDL
MODEL       27
REMARK 921   NORMALIZED FREE ENERGY PREDICTED BY IDOCK:   -5.86 KCAL/MOL
REMARK 922        TOTAL FREE ENERGY PREDICTED BY IDOCK:   -9.27 KCAL/MOL
REMARK 923 INTER-LIGAND FREE ENERGY PREDICTED BY IDOCK:   -7.87 KCAL/MOL
REMARK 924 INTRA-LIGAND FREE ENERGY PREDICTED BY IDOCK:   -1.40 KCAL/MOL
REMARK 927      BINDING AFFINITY PREDICTED BY RF-SCORE:    0.00 PKD
ROOT
HETATM    1  C   UNL     1     -11.353  10.294  69.013  1.00  0.00    -0.237 C  
HETATM    2  C   UNL     1     -12.282  11.490  68.875  1.00  0.00    -0.128 C  
HETATM    3  C   UNL     1     -11.367  12.716  68.923  1.00  0.00    -0.297 C  
HETATM    4  C   UNL     1      -9.965  12.231  68.498  1.00  0.00    -0.175 C  
HETATM    5  O   UNL     1     -11.293  13.224  70.256  1.00  0.00    -0.494 OA 
HETATM    6  H   UNL     1     -10.724  13.985  70.285  1.00  0.00     0.000 HD 
HETATM    7  C   UNL     1     -10.082  10.705  68.274  1.00  0.00    -0.176 C  
HETATM    8  C   UNL     1     -10.907  10.012  70.443  1.00  0.00    -0.380 C  
HETATM    9  C   UNL     1      -8.833   8.799  71.197  1.00  0.00    -0.275 C  
HETATM   10  C   UNL     1      -8.964   9.876  68.915  1.00  0.00    -0.153 C  
HETATM   11  C   UNL     1      -9.500   9.514  70.277  1.00  0.00    -0.307 C  
ENDROOT
BRANCH   4  12
HETATM   12  C   UNL     1      -9.490  12.903  67.231  1.00  0.00    -0.216 C  
HETATM   13  C   UNL     1     -10.267  13.007  66.142  1.00  0.00    -0.288 C  
BRANCH  13  14
HETATM   14  C   UNL     1      -9.919  13.810  64.926  1.00  0.00    -0.145 C  
HETATM   15  O   UNL     1      -9.999  12.944  63.800  1.00  0.00    -0.693 OA 
HETATM   16  C   UNL     1     -10.859  15.025  64.726  1.00  0.00    -0.375 C  
HETATM   17  H   UNL     1      -9.778  13.453  63.030  1.00  0.00     0.000 HD 
HETATM   18  C   UNL     1     -10.768  16.030  65.893  1.00  0.00    -0.287 C  
HETATM   19  C   UNL     1     -12.322  14.614  64.506  1.00  0.00    -0.416 C  
BRANCH  18  20
HETATM   20  C   UNL     1      -9.358  16.586  66.000  1.00  0.00    -0.302 C  
HETATM   21  C   UNL     1      -8.147  17.062  66.090  1.00  0.00    -0.292 C  
HETATM   22  C   UNL     1      -6.736  17.618  66.195  1.00  0.00    -0.321 C  
ENDBRANCH  18  20
ENDBRANCH  13  14
ENDBRANCH   4  12
BRANCH   9  23
HETATM   23  C   UNL     1      -9.403   8.413  72.535  1.00  0.00    -0.346 C  
BRANCH  23  24
HETATM   24  C   UNL     1     -10.113   7.057  72.503  1.00  0.00    -0.198 C  
BRANCH  24  25
HETATM   25  C   UNL     1     -11.634   7.188  72.554  1.00  0.00    -0.265 C  
HETATM   26  C   UNL     1     -12.274   6.860  71.227  1.00  0.00    -0.380 C  
HETATM   27  O   UNL     1     -11.683   6.526  70.214  1.00  0.00    -0.404 OA 
HETATM   28  O   UNL     1     -13.622   6.980  71.273  1.00  0.00    -0.319 OA 
ENDBRANCH  24  25
ENDBRANCH  23  24
ENDBRANCH   9  23
TORSDOF 6
ENDMDL
MODEL       28
REMARK 921   NORMALIZED FREE ENERGY PREDICTED BY IDOCK:   -5.83 KCAL/MOL
REMARK 922        TOTAL FREE ENERGY PREDICTED BY IDOCK:   -9.22 KCAL/MOL
REMARK 923 INTER-LIGAND FREE ENERGY PREDICTED BY IDOCK:   -7.72 KCAL/MOL
REMARK 924 INTRA-LIGAND FREE ENERGY PREDICTED BY IDOCK:   -1.50 KCAL/MOL
REMARK 927      BINDING AFFINITY PREDICTED BY RF-SCORE:    0.00 PKD
ROOT
HETATM    1  C   UNL     1      -8.587  15.690  68.852  1.00  0.00    -0.211 C  
HETATM    2  C   UNL     1      -9.796  15.698  69.774  1.00  0.00    -0.260 C  
HETATM    3  C   UNL     1     -11.008  15.782  68.845  1.00  0.00    -0.283 C  
HETATM    4  C   UNL     1     -10.548  15.239  67.475  1.00  0.00    -0.273 C  
HETATM    5  O   UNL     1     -11.414  17.142  68.686  1.00  0.00    -0.050 OA 
HETATM    6  H   UNL     1     -12.168  17.194  68.109  1.00  0.00     0.000 HD 
HETATM    7  C   UNL     1      -9.044  14.909  67.623  1.00  0.00    -0.183 C  
HETATM    8  C   UNL     1      -8.196  17.066  68.325  1.00  0.00    -0.227 C  
HETATM    9  C   UNL     1      -6.916  17.602  66.223  1.00  0.00    -0.326 C  
HETATM   10  C   UNL     1      -8.162  15.419  66.477  1.00  0.00    -0.101 C  
HETATM   11  C   UNL     1      -7.702  16.780  66.935  1.00  0.00    -0.254 C  
ENDROOT
BRANCH   4  12
HETATM   12  C   UNL     1     -11.310  14.000  67.069  1.00  0.00    -0.346 C  
HETATM   13  C   UNL     1     -11.157  13.427  65.865  1.00  0.00    -0.293 C  
BRANCH  13  14
HETATM   14  C   UNL     1     -11.747  12.108  65.472  1.00  0.00    -0.324 C  
HETATM   15  O   UNL     1     -12.944  12.370  64.749  1.00  0.00    -0.786 OA 
HETATM   16  C   UNL     1     -10.783  11.258  64.608  1.00  0.00    -0.371 C  
HETATM   17  H   UNL     1     -13.319  11.534  64.500  1.00  0.00     0.000 HD 
HETATM   18  C   UNL     1      -9.490  10.893  65.366  1.00  0.00    -0.254 C  
HETATM   19  C   UNL     1     -10.432  11.931  63.273  1.00  0.00    -0.427 C  
BRANCH  18  20
HETATM   20  C   UNL     1      -9.818  10.061  66.595  1.00  0.00    -0.259 C  
HETATM   21  C   UNL     1     -10.101   9.348  67.650  1.00  0.00    -0.262 C  
HETATM   22  C   UNL     1     -10.431   8.516  68.878  1.00  0.00    -0.207 C  
ENDBRANCH  18  20
ENDBRANCH  13  14
ENDBRANCH   4  12
BRANCH   9  23
HETATM   23  C   UNL     1      -6.434  18.939  66.716  1.00  0.00    -0.201 C  
BRANCH  23  24
HETATM   24  C   UNL     1      -7.376  20.083  66.330  1.00  0.00    -0.312 C  
BRANCH  24  25
HETATM   25  C   UNL     1      -8.461  20.331  67.377  1.00  0.00    -0.405 C  
HETATM   26  C   UNL     1      -9.824  19.905  66.889  1.00  0.00    -0.414 C  
HETATM   27  O   UNL     1     -10.070  19.417  65.798  1.00  0.00    -0.438 OA 
HETATM   28  O   UNL     1     -10.785  20.129  67.816  1.00  0.00    -0.254 OA 
ENDBRANCH  24  25
ENDBRANCH  23  24
ENDBRANCH   9  23
TORSDOF 6
ENDMDL
MODEL       29
REMARK 921   NORMALIZED FREE ENERGY PREDICTED BY IDOCK:   -5.82 KCAL/MOL
REMARK 922        TOTAL FREE ENERGY PREDICTED BY IDOCK:   -9.21 KCAL/MOL
REMARK 923 INTER-LIGAND FREE ENERGY PREDICTED BY IDOCK:   -8.14 KCAL/MOL
REMARK 924 INTRA-LIGAND FREE ENERGY PREDICTED BY IDOCK:   -1.06 KCAL/MOL
REMARK 927      BINDING AFFINITY PREDICTED BY RF-SCORE:    0.00 PKD
ROOT
HETATM    1  C   UNL     1      -7.682   8.688  67.760  1.00  0.00    -0.102 C  
HETATM    2  C   UNL     1      -7.511   7.789  66.546  1.00  0.00    -0.088 C  
HETATM    3  C   UNL     1      -8.824   7.909  65.770  1.00  0.00    -0.119 C  
HETATM    4  C   UNL     1      -9.455   9.255  66.186  1.00  0.00    -0.298 C  
HETATM    5  O   UNL     1      -9.712   6.853  66.136  1.00  0.00    -0.393 OA 
HETATM    6  H   UNL     1     -10.527   6.928  65.653  1.00  0.00     0.000 HD 
HETATM    7  C   UNL     1      -8.518   9.862  67.256  1.00  0.00    -0.121 C  
HETATM    8  C   UNL     1      -8.504   8.069  68.885  1.00  0.00    -0.131 C  
HETATM    9  C   UNL     1      -9.798   9.267  70.683  1.00  0.00    -0.332 C  
HETATM   10  C   UNL     1      -9.232  10.404  68.499  1.00  0.00    -0.145 C  
HETATM   11  C   UNL     1      -9.246   9.242  69.459  1.00  0.00    -0.168 C  
ENDROOT
BRANCH   4  12
HETATM   12  C   UNL     1      -9.590  10.205  65.019  1.00  0.00    -0.362 C  
HETATM   13  C   UNL     1     -10.395  11.278  65.059  1.00  0.00    -0.359 C  
BRANCH  13  14
HETATM   14  C   UNL     1     -10.438  12.345  64.009  1.00  0.00    -0.416 C  
HETATM   15  O   UNL     1     -10.037  11.755  62.778  1.00  0.00    -0.580 OA 
HETATM   16  C   UNL     1     -11.843  12.978  63.860  1.00  0.00    -0.542 C  
HETATM   17  H   UNL     1     -10.065  12.432  62.112  1.00  0.00     0.000 HD 
HETATM   18  C   UNL     1     -12.303  13.686  65.151  1.00  0.00    -0.486 C  
HETATM   19  C   UNL     1     -12.907  11.964  63.415  1.00  0.00    -0.393 C  
BRANCH  18  20
HETATM   20  C   UNL     1     -11.351  14.820  65.496  1.00  0.00    -0.343 C  
HETATM   21  C   UNL     1     -10.534  15.792  65.792  1.00  0.00    -0.384 C  
HETATM   22  C   UNL     1      -9.582  16.926  66.136  1.00  0.00    -0.280 C  
ENDBRANCH  18  20
ENDBRANCH  13  14
ENDBRANCH   4  12
BRANCH   9  23
HETATM   23  C   UNL     1      -9.764   8.109  71.643  1.00  0.00    -0.238 C  
BRANCH  23  24
HETATM   24  C   UNL     1     -10.972   8.088  72.583  1.00  0.00    -0.448 C  
BRANCH  24  25
HETATM   25  C   UNL     1     -12.252   7.634  71.885  1.00  0.00    -0.336 C  
HETATM   26  C   UNL     1     -13.272   8.744  71.798  1.00  0.00    -0.367 C  
HETATM   27  O   UNL     1     -13.127   9.879  72.220  1.00  0.00    -0.418 OA 
HETATM   28  O   UNL     1     -14.408   8.339  71.182  1.00  0.00    -0.292 OA 
ENDBRANCH  24  25
ENDBRANCH  23  24
ENDBRANCH   9  23
TORSDOF 6
ENDMDL
MODEL       30
REMARK 921   NORMALIZED FREE ENERGY PREDICTED BY IDOCK:   -5.80 KCAL/MOL
REMARK 922        TOTAL FREE ENERGY PREDICTED BY IDOCK:   -9.19 KCAL/MOL
REMARK 923 INTER-LIGAND FREE ENERGY PREDICTED BY IDOCK:   -8.02 KCAL/MOL
REMARK 924 INTRA-LIGAND FREE ENERGY PREDICTED BY IDOCK:   -1.17 KCAL/MOL
REMARK 927      BINDING AFFINITY PREDICTED BY RF-SCORE:    0.00 PKD
ROOT
HETATM    1  C   UNL     1      -8.502   8.589  68.304  1.00  0.00    -0.135 C  
HETATM    2  C   UNL     1      -7.832   7.761  67.219  1.00  0.00    -0.117 C  
HETATM    3  C   UNL     1      -8.842   7.712  66.071  1.00  0.00    -0.155 C  
HETATM    4  C   UNL     1      -9.764   8.937  66.248  1.00  0.00    -0.345 C  
HETATM    5  O   UNL     1      -9.632   6.527  66.160  1.00  0.00    -0.348 OA 
HETATM    6  H   UNL     1     -10.260   6.497  65.446  1.00  0.00     0.000 HD 
HETATM    7  C   UNL     1      -9.305   9.642  67.546  1.00  0.00    -0.149 C  
HETATM    8  C   UNL     1      -9.530   7.821  69.128  1.00  0.00    -0.151 C  
HETATM    9  C   UNL     1     -11.481   8.761  70.415  1.00  0.00    -0.163 C  
HETATM   10  C   UNL     1     -10.442  10.035  68.497  1.00  0.00    -0.229 C  
HETATM   11  C   UNL     1     -10.580   8.855  69.424  1.00  0.00    -0.226 C  
ENDROOT
BRANCH   4  12
HETATM   12  C   UNL     1      -9.670   9.894  65.082  1.00  0.00    -0.376 C  
HETATM   13  C   UNL     1     -10.356  11.047  65.045  1.00  0.00    -0.360 C  
BRANCH  13  14
HETATM   14  C   UNL     1     -10.171  12.110  64.006  1.00  0.00    -0.370 C  
HETATM   15  O   UNL     1      -9.850  11.463  62.780  1.00  0.00    -0.565 OA 
HETATM   16  C   UNL     1     -11.432  12.991  63.825  1.00  0.00    -0.486 C  
HETATM   17  H   UNL     1      -9.733  12.137  62.122  1.00  0.00     0.000 HD 
HETATM   18  C   UNL     1     -11.791  13.764  65.111  1.00  0.00    -0.365 C  
HETATM   19  C   UNL     1     -12.650  12.192  63.340  1.00  0.00    -0.584 C  
BRANCH  18  20
HETATM   20  C   UNL     1     -10.658  14.702  65.494  1.00  0.00    -0.369 C  
HETATM   21  C   UNL     1      -9.687  15.507  65.824  1.00  0.00    -0.383 C  
HETATM   22  C   UNL     1      -8.555  16.446  66.209  1.00  0.00    -0.375 C  
ENDBRANCH  18  20
ENDBRANCH  13  14
ENDBRANCH   4  12
BRANCH   9  23
HETATM   23  C   UNL     1     -11.574   7.591  71.357  1.00  0.00    -0.302 C  
BRANCH  23  24
HETATM   24  C   UNL     1     -11.268   7.977  72.807  1.00  0.00    -0.448 C  
BRANCH  24  25
HETATM   25  C   UNL     1     -10.178   7.107  73.430  1.00  0.00    -0.367 C  
HETATM   26  C   UNL     1      -8.800   7.678  73.199  1.00  0.00    -0.179 C  
HETATM   27  O   UNL     1      -8.547   8.707  72.594  1.00  0.00    -0.376 OA 
HETATM   28  O   UNL     1      -7.835   6.904  73.748  1.00  0.00    -0.097 OA 
ENDBRANCH  24  25
ENDBRANCH  23  24
ENDBRANCH   9  23
TORSDOF 6
ENDMDL
MODEL       31
REMARK 921   NORMALIZED FREE ENERGY PREDICTED BY IDOCK:   -5.77 KCAL/MOL
REMARK 922        TOTAL FREE ENERGY PREDICTED BY IDOCK:   -9.14 KCAL/MOL
REMARK 923 INTER-LIGAND FREE ENERGY PREDICTED BY IDOCK:   -8.03 KCAL/MOL
REMARK 924 INTRA-LIGAND FREE ENERGY PREDICTED BY IDOCK:   -1.11 KCAL/MOL
REMARK 927      BINDING AFFINITY PREDICTED BY RF-SCORE:    0.00 PKD
ROOT
HETATM    1  C   UNL     1     -11.735  14.120  66.282  1.00  0.00    -0.402 C  
HETATM    2  C   UNL     1     -12.835  13.483  65.448  1.00  0.00    -0.420 C  
HETATM    3  C   UNL     1     -12.230  13.305  64.054  1.00  0.00    -0.410 C  
HETATM    4  C   UNL     1     -10.699  13.276  64.243  1.00  0.00    -0.408 C  
HETATM    5  O   UNL     1     -12.569  14.417  63.225  1.00  0.00    -1.043 OA 
HETATM    6  H   UNL     1     -12.193  14.306  62.359  1.00  0.00     0.000 HD 
HETATM    7  C   UNL     1     -10.443  13.505  65.751  1.00  0.00    -0.293 C  
HETATM    8  C   UNL     1     -11.579  15.621  66.065  1.00  0.00     0.310 C  
HETATM    9  C   UNL     1      -9.526  17.027  66.456  1.00  0.00    -0.295 C  
HETATM   10  C   UNL     1      -9.354  14.537  66.066  1.00  0.00    -0.196 C  
HETATM   11  C   UNL     1     -10.099  15.840  66.199  1.00  0.00    -0.337 C  
ENDROOT
BRANCH   4  12
HETATM   12  C   UNL     1     -10.097  11.958  63.813  1.00  0.00    -0.423 C  
HETATM   13  C   UNL     1      -9.815  10.981  64.688  1.00  0.00    -0.338 C  
BRANCH  13  14
HETATM   14  C   UNL     1      -9.385   9.598  64.305  1.00  0.00    -0.114 C  
HETATM   15  O   UNL     1      -9.309   9.549  62.885  1.00  0.00    -0.510 OA 
HETATM   16  C   UNL     1      -8.019   9.207  64.922  1.00  0.00    -0.123 C  
HETATM   17  H   UNL     1      -9.036   8.672  62.642  1.00  0.00     0.000 HD 
HETATM   18  C   UNL     1      -8.061   9.186  66.463  1.00  0.00    -0.107 C  
HETATM   19  C   UNL     1      -6.872  10.109  64.444  1.00  0.00    -0.106 C  
BRANCH  18  20
HETATM   20  C   UNL     1      -9.067   8.155  66.948  1.00  0.00    -0.185 C  
HETATM   21  C   UNL     1      -9.929   7.269  67.364  1.00  0.00    -0.228 C  
HETATM   22  C   UNL     1     -10.934   6.237  67.848  1.00  0.00    -0.421 C  
ENDBRANCH  18  20
ENDBRANCH  13  14
ENDBRANCH   4  12
BRANCH   9  23
HETATM   23  C   UNL     1     -10.294  18.310  66.627  1.00  0.00    -0.400 C  
BRANCH  23  24
HETATM   24  C   UNL     1      -9.498  19.536  66.171  1.00  0.00    -0.401 C  
BRANCH  24  25
HETATM   25  C   UNL     1      -8.266  19.794  67.036  1.00  0.00    -0.340 C  
HETATM   26  C   UNL     1      -6.983  19.586  66.268  1.00  0.00    -0.232 C  
HETATM   27  O   UNL     1      -6.900  19.255  65.097  1.00  0.00    -0.439 OA 
HETATM   28  O   UNL     1      -5.892  19.812  67.037  1.00  0.00    -0.174 OA 
ENDBRANCH  24  25
ENDBRANCH  23  24
ENDBRANCH   9  23
TORSDOF 6
ENDMDL
MODEL       32
REMARK 921   NORMALIZED FREE ENERGY PREDICTED BY IDOCK:   -5.76 KCAL/MOL
REMARK 922        TOTAL FREE ENERGY PREDICTED BY IDOCK:   -9.12 KCAL/MOL
REMARK 923 INTER-LIGAND FREE ENERGY PREDICTED BY IDOCK:   -7.96 KCAL/MOL
REMARK 924 INTRA-LIGAND FREE ENERGY PREDICTED BY IDOCK:   -1.16 KCAL/MOL
REMARK 927      BINDING AFFINITY PREDICTED BY RF-SCORE:    0.00 PKD
ROOT
HETATM    1  C   UNL     1      -8.251  15.762  66.820  1.00  0.00    -0.302 C  
HETATM    2  C   UNL     1      -7.293  14.801  67.505  1.00  0.00    -0.225 C  
HETATM    3  C   UNL     1      -8.149  14.030  68.511  1.00  0.00    -0.139 C  
HETATM    4  C   UNL     1      -9.604  14.114  68.002  1.00  0.00    -0.218 C  
HETATM    5  O   UNL     1      -8.076  14.648  69.796  1.00  0.00    -0.404 OA 
HETATM    6  H   UNL     1      -8.608  14.169  70.421  1.00  0.00     0.000 HD 
HETATM    7  C   UNL     1      -9.569  14.997  66.733  1.00  0.00    -0.260 C  
HETATM    8  C   UNL     1      -8.570  17.011  67.635  1.00  0.00    -0.213 C  
HETATM    9  C   UNL     1     -10.611  18.477  67.466  1.00  0.00    -0.461 C  
HETATM   10  C   UNL     1     -10.653  16.078  66.676  1.00  0.00    -0.297 C  
HETATM   11  C   UNL     1     -10.006  17.291  67.293  1.00  0.00    -0.283 C  
ENDROOT
BRANCH   4  12
HETATM   12  C   UNL     1     -10.169  12.753  67.668  1.00  0.00    -0.219 C  
HETATM   13  C   UNL     1     -10.445  11.841  68.613  1.00  0.00    -0.242 C  
BRANCH  13  14
HETATM   14  C   UNL     1     -11.165  10.552  68.362  1.00  0.00    -0.279 C  
HETATM   15  O   UNL     1     -11.442  10.478  66.968  1.00  0.00    -0.250 OA 
HETATM   16  C   UNL     1     -10.344   9.316  68.804  1.00  0.00    -0.231 C  
HETATM   17  H   UNL     1     -11.898   9.660  66.809  1.00  0.00     0.000 HD 
HETATM   18  C   UNL     1     -10.066   9.314  70.322  1.00  0.00    -0.262 C  
HETATM   19  C   UNL     1      -9.025   9.172  68.033  1.00  0.00    -0.129 C  
BRANCH  18  20
HETATM   20  C   UNL     1     -11.373   9.267  71.096  1.00  0.00    -0.412 C  
HETATM   21  C   UNL     1     -12.495   9.227  71.759  1.00  0.00    -0.458 C  
HETATM   22  C   UNL     1     -13.803   9.181  72.533  1.00  0.00    -0.485 C  
ENDBRANCH  18  20
ENDBRANCH  13  14
ENDBRANCH   4  12
BRANCH   9  23
HETATM   23  C   UNL     1      -9.933  19.689  68.047  1.00  0.00    -0.541 C  
BRANCH  23  24
HETATM   24  C   UNL     1      -9.186  20.508  66.991  1.00  0.00    -0.446 C  
BRANCH  24  25
HETATM   25  C   UNL     1      -7.697  20.649  67.301  1.00  0.00    -0.359 C  
HETATM   26  C   UNL     1      -6.839  19.923  66.293  1.00  0.00    -0.227 C  
HETATM   27  O   UNL     1      -7.248  19.291  65.333  1.00  0.00    -0.448 OA 
HETATM   28  O   UNL     1      -5.520  20.046  66.571  1.00  0.00    -0.171 OA 
ENDBRANCH  24  25
ENDBRANCH  23  24
ENDBRANCH   9  23
TORSDOF 6
ENDMDL
MODEL       33
REMARK 921   NORMALIZED FREE ENERGY PREDICTED BY IDOCK:   -5.73 KCAL/MOL
REMARK 922        TOTAL FREE ENERGY PREDICTED BY IDOCK:   -9.09 KCAL/MOL
REMARK 923 INTER-LIGAND FREE ENERGY PREDICTED BY IDOCK:   -7.97 KCAL/MOL
REMARK 924 INTRA-LIGAND FREE ENERGY PREDICTED BY IDOCK:   -1.13 KCAL/MOL
REMARK 927      BINDING AFFINITY PREDICTED BY RF-SCORE:    0.00 PKD
ROOT
HETATM    1  C   UNL     1      -8.215  10.485  67.960  1.00  0.00    -0.112 C  
HETATM    2  C   UNL     1      -6.927   9.940  68.556  1.00  0.00    -0.067 C  
HETATM    3  C   UNL     1      -7.182   9.864  70.062  1.00  0.00    -0.146 C  
HETATM    4  C   UNL     1      -8.713   9.788  70.243  1.00  0.00    -0.172 C  
HETATM    5  O   UNL     1      -6.703  11.047  70.704  1.00  0.00    -0.486 OA 
HETATM    6  H   UNL     1      -6.862  11.000  71.639  1.00  0.00     0.000 HD 
HETATM    7  C   UNL     1      -9.323   9.888  68.825  1.00  0.00    -0.157 C  
HETATM    8  C   UNL     1      -8.375  11.995  68.095  1.00  0.00    -0.165 C  
HETATM    9  C   UNL     1     -10.517  13.321  68.096  1.00  0.00    -0.251 C  
HETATM   10  C   UNL     1     -10.495  10.868  68.700  1.00  0.00    -0.216 C  
HETATM   11  C   UNL     1      -9.853  12.171  68.298  1.00  0.00    -0.212 C  
ENDROOT
BRANCH   4  12
HETATM   12  C   UNL     1      -9.145   8.498  70.899  1.00  0.00    -0.208 C  
HETATM   13  C   UNL     1     -10.169   8.443  71.766  1.00  0.00    -0.323 C  
BRANCH  13  14
HETATM   14  C   UNL     1     -10.751   7.175  72.310  1.00  0.00    -0.221 C  
HETATM   15  O   UNL     1     -11.198   7.441  73.634  1.00  0.00    -0.588 OA 
HETATM   16  C   UNL     1     -11.926   6.644  71.452  1.00  0.00    -0.405 C  
HETATM   17  H   UNL     1     -11.568   6.637  73.979  1.00  0.00     0.000 HD 
HETATM   18  C   UNL     1     -11.484   6.283  70.019  1.00  0.00    -0.460 C  
HETATM   19  C   UNL     1     -13.112   7.618  71.401  1.00  0.00    -0.339 C  
BRANCH  18  20
HETATM   20  C   UNL     1     -10.438   5.180  70.053  1.00  0.00    -0.305 C  
HETATM   21  C   UNL     1      -9.541   4.234  70.084  1.00  0.00    -0.269 C  
HETATM   22  C   UNL     1      -8.495   3.132  70.120  1.00  0.00    -0.093 C  
ENDBRANCH  18  20
ENDBRANCH  13  14
ENDBRANCH   4  12
BRANCH   9  23
HETATM   23  C   UNL     1      -9.862  14.602  67.654  1.00  0.00    -0.218 C  
BRANCH  23  24
HETATM   24  C   UNL     1      -9.831  14.751  66.130  1.00  0.00    -0.335 C  
BRANCH  24  25
HETATM   25  C   UNL     1     -11.152  14.355  65.473  1.00  0.00    -0.326 C  
HETATM   26  C   UNL     1     -11.651  15.417  64.524  1.00  0.00    -0.296 C  
HETATM   27  O   UNL     1     -11.094  16.475  64.283  1.00  0.00    -0.915 OA 
HETATM   28  O   UNL     1     -12.823  15.067  63.945  1.00  0.00    -0.679 OA 
ENDBRANCH  24  25
ENDBRANCH  23  24
ENDBRANCH   9  23
TORSDOF 6
ENDMDL
MODEL       34
REMARK 921   NORMALIZED FREE ENERGY PREDICTED BY IDOCK:   -5.73 KCAL/MOL
REMARK 922        TOTAL FREE ENERGY PREDICTED BY IDOCK:   -9.08 KCAL/MOL
REMARK 923 INTER-LIGAND FREE ENERGY PREDICTED BY IDOCK:   -7.70 KCAL/MOL
REMARK 924 INTRA-LIGAND FREE ENERGY PREDICTED BY IDOCK:   -1.38 KCAL/MOL
REMARK 927      BINDING AFFINITY PREDICTED BY RF-SCORE:    0.00 PKD
ROOT
HETATM    1  C   UNL     1      -9.655  17.641  68.785  1.00  0.00    -0.280 C  
HETATM    2  C   UNL     1     -10.757  17.475  67.750  1.00  0.00    -0.333 C  
HETATM    3  C   UNL     1     -10.094  16.765  66.568  1.00  0.00    -0.315 C  
HETATM    4  C   UNL     1      -8.861  16.030  67.137  1.00  0.00    -0.224 C  
HETATM    5  O   UNL     1      -9.653  17.721  65.603  1.00  0.00    -0.484 OA 
HETATM    6  H   UNL     1      -9.241  17.280  64.869  1.00  0.00     0.000 HD 
HETATM    7  C   UNL     1      -8.798  16.387  68.640  1.00  0.00    -0.234 C  
HETATM    8  C   UNL     1      -8.709  18.803  68.508  1.00  0.00    -0.380 C  
HETATM    9  C   UNL     1      -6.333  19.075  69.300  1.00  0.00    -0.314 C  
HETATM   10  C   UNL     1      -7.409  16.795  69.143  1.00  0.00    -0.213 C  
HETATM   11  C   UNL     1      -7.381  18.294  68.993  1.00  0.00    -0.216 C  
ENDROOT
BRANCH   4  12
HETATM   12  C   UNL     1      -8.963  14.532  66.966  1.00  0.00    -0.258 C  
HETATM   13  C   UNL     1      -9.353  13.723  67.963  1.00  0.00    -0.199 C  
BRANCH  13  14
HETATM   14  C   UNL     1      -9.641  12.262  67.806  1.00  0.00    -0.200 C  
HETATM   15  O   UNL     1      -9.237  11.611  69.005  1.00  0.00    -0.393 OA 
HETATM   16  C   UNL     1     -11.138  11.977  67.528  1.00  0.00    -0.331 C  
HETATM   17  H   UNL     1      -9.420  10.685  68.905  1.00  0.00     0.000 HD 
HETATM   18  C   UNL     1     -11.616  12.610  66.205  1.00  0.00    -0.440 C  
HETATM   19  C   UNL     1     -12.051  12.423  68.679  1.00  0.00    -0.139 C  
BRANCH  18  20
HETATM   20  C   UNL     1     -10.839  12.031  65.034  1.00  0.00    -0.351 C  
HETATM   21  C   UNL     1     -10.173  11.532  64.030  1.00  0.00    -0.394 C  
HETATM   22  C   UNL     1      -9.397  10.952  62.859  1.00  0.00    -0.367 C  
ENDBRANCH  18  20
ENDBRANCH  13  14
ENDBRANCH   4  12
BRANCH   9  23
HETATM   23  C   UNL     1      -6.341  20.576  69.181  1.00  0.00    -0.255 C  
BRANCH  23  24
HETATM   24  C   UNL     1      -5.549  21.074  67.969  1.00  0.00    -0.373 C  
BRANCH  24  25
HETATM   25  C   UNL     1      -6.406  21.176  66.708  1.00  0.00    -0.385 C  
HETATM   26  C   UNL     1      -6.120  20.055  65.739  1.00  0.00    -0.189 C  
HETATM   27  O   UNL     1      -5.312  19.157  65.907  1.00  0.00    -0.143 OA 
HETATM   28  O   UNL     1      -6.878  20.149  64.621  1.00  0.00    -0.288 OA 
ENDBRANCH  24  25
ENDBRANCH  23  24
ENDBRANCH   9  23
TORSDOF 6
ENDMDL
MODEL       35
REMARK 921   NORMALIZED FREE ENERGY PREDICTED BY IDOCK:   -5.72 KCAL/MOL
REMARK 922        TOTAL FREE ENERGY PREDICTED BY IDOCK:   -9.08 KCAL/MOL
REMARK 923 INTER-LIGAND FREE ENERGY PREDICTED BY IDOCK:   -7.96 KCAL/MOL
REMARK 924 INTRA-LIGAND FREE ENERGY PREDICTED BY IDOCK:   -1.12 KCAL/MOL
REMARK 927      BINDING AFFINITY PREDICTED BY RF-SCORE:    0.00 PKD
ROOT
HETATM    1  C   UNL     1     -12.275  14.456  69.166  1.00  0.00    -0.255 C  
HETATM    2  C   UNL     1     -12.199  15.744  69.971  1.00  0.00    -0.309 C  
HETATM    3  C   UNL     1     -10.741  15.851  70.419  1.00  0.00    -0.253 C  
HETATM    4  C   UNL     1      -9.914  15.008  69.425  1.00  0.00    -0.190 C  
HETATM    5  O   UNL     1     -10.586  15.301  71.728  1.00  0.00    -0.263 OA 
HETATM    6  H   UNL     1      -9.679  15.367  72.006  1.00  0.00     0.000 HD 
HETATM    7  C   UNL     1     -10.930  14.369  68.449  1.00  0.00    -0.261 C  
HETATM    8  C   UNL     1     -12.354  13.193  70.017  1.00  0.00    -0.241 C  
HETATM    9  C   UNL     1     -11.676  10.856  69.367  1.00  0.00    -0.397 C  
HETATM   10  C   UNL     1     -10.714  12.874  68.190  1.00  0.00    -0.258 C  
HETATM   11  C   UNL     1     -11.575  12.186  69.218  1.00  0.00    -0.377 C  
ENDROOT
BRANCH   4  12
HETATM   12  C   UNL     1      -8.919  15.846  68.658  1.00  0.00    -0.203 C  
HETATM   13  C   UNL     1      -9.277  16.595  67.603  1.00  0.00    -0.208 C  
BRANCH  13  14
HETATM   14  C   UNL     1      -8.377  17.576  66.916  1.00  0.00    -0.232 C  
HETATM   15  O   UNL     1      -8.161  17.107  65.590  1.00  0.00    -0.429 OA 
HETATM   16  C   UNL     1      -8.972  19.006  66.881  1.00  0.00    -0.318 C  
HETATM   17  H   UNL     1      -7.591  17.729  65.155  1.00  0.00     0.000 HD 
HETATM   18  C   UNL     1      -9.171  19.589  68.295  1.00  0.00    -0.412 C  
HETATM   19  C   UNL     1     -10.289  19.082  66.095  1.00  0.00    -0.537 C  
BRANCH  18  20
HETATM   20  C   UNL     1      -7.837  19.692  69.014  1.00  0.00    -0.266 C  
HETATM   21  C   UNL     1      -6.691  19.779  69.631  1.00  0.00    -0.351 C  
HETATM   22  C   UNL     1      -5.355  19.882  70.349  1.00  0.00    -0.265 C  
ENDBRANCH  18  20
ENDBRANCH  13  14
ENDBRANCH   4  12
BRANCH   9  23
HETATM   23  C   UNL     1     -12.574  10.189  70.374  1.00  0.00    -0.215 C  
BRANCH  23  24
HETATM   24  C   UNL     1     -11.840   9.826  71.668  1.00  0.00    -0.429 C  
BRANCH  24  25
HETATM   25  C   UNL     1     -12.087   8.382  72.099  1.00  0.00    -0.435 C  
HETATM   26  C   UNL     1     -10.825   7.715  72.588  1.00  0.00    -0.340 C  
HETATM   27  O   UNL     1      -9.722   8.233  72.648  1.00  0.00    -0.264 OA 
HETATM   28  O   UNL     1     -11.045   6.434  72.967  1.00  0.00    -0.250 OA 
ENDBRANCH  24  25
ENDBRANCH  23  24
ENDBRANCH   9  23
TORSDOF 6
ENDMDL
MODEL       36
REMARK 921   NORMALIZED FREE ENERGY PREDICTED BY IDOCK:   -5.70 KCAL/MOL
REMARK 922        TOTAL FREE ENERGY PREDICTED BY IDOCK:   -9.05 KCAL/MOL
REMARK 923 INTER-LIGAND FREE ENERGY PREDICTED BY IDOCK:   -8.40 KCAL/MOL
REMARK 924 INTRA-LIGAND FREE ENERGY PREDICTED BY IDOCK:   -0.65 KCAL/MOL
REMARK 927      BINDING AFFINITY PREDICTED BY RF-SCORE:    0.00 PKD
ROOT
HETATM    1  C   UNL     1     -12.188  10.820  71.315  1.00  0.00    -0.426 C  
HETATM    2  C   UNL     1     -13.422  10.331  72.055  1.00  0.00    -0.385 C  
HETATM    3  C   UNL     1     -13.456   8.819  71.825  1.00  0.00    -0.393 C  
HETATM    4  C   UNL     1     -12.009   8.395  71.495  1.00  0.00    -0.344 C  
HETATM    5  O   UNL     1     -14.291   8.509  70.708  1.00  0.00    -0.544 OA 
HETATM    6  H   UNL     1     -14.311   7.570  70.565  1.00  0.00     0.000 HD 
HETATM    7  C   UNL     1     -11.170   9.694  71.477  1.00  0.00    -0.377 C  
HETATM    8  C   UNL     1     -12.381  10.967  69.810  1.00  0.00    -0.331 C  
HETATM    9  C   UNL     1     -10.610  10.905  68.019  1.00  0.00    -0.239 C  
HETATM   10  C   UNL     1     -10.230   9.832  70.274  1.00  0.00    -0.346 C  
HETATM   11  C   UNL     1     -11.042  10.580  69.248  1.00  0.00    -0.298 C  
ENDROOT
BRANCH   4  12
HETATM   12  C   UNL     1     -11.451   7.435  72.519  1.00  0.00    -0.346 C  
HETATM   13  C   UNL     1     -10.408   6.632  72.254  1.00  0.00    -0.219 C  
BRANCH  13  14
HETATM   14  C   UNL     1      -9.704   5.792  73.275  1.00  0.00    -0.152 C  
HETATM   15  O   UNL     1     -10.107   6.249  74.561  1.00  0.00    -0.313 OA 
HETATM   16  C   UNL     1     -10.021   4.284  73.126  1.00  0.00    -0.191 C  
HETATM   17  H   UNL     1      -9.660   5.717  75.208  1.00  0.00     0.000 HD 
HETATM   18  C   UNL     1      -9.549   3.720  71.770  1.00  0.00    -0.226 C  
HETATM   19  C   UNL     1     -11.509   3.967  73.333  1.00  0.00    -0.185 C  
BRANCH  18  20
HETATM   20  C   UNL     1      -8.042   3.862  71.637  1.00  0.00    -0.073 C  
HETATM   21  C   UNL     1      -6.749   3.985  71.523  1.00  0.00    -0.026 C  
HETATM   22  C   UNL     1      -5.241   4.127  71.391  1.00  0.00     0.000 C  
ENDBRANCH  18  20
ENDBRANCH  13  14
ENDBRANCH   4  12
BRANCH   9  23
HETATM   23  C   UNL     1     -11.423  11.690  67.024  1.00  0.00    -0.336 C  
BRANCH  23  24
HETATM   24  C   UNL     1     -10.668  11.942  65.716  1.00  0.00    -0.327 C  
BRANCH  24  25
HETATM   25  C   UNL     1     -10.969  13.314  65.117  1.00  0.00    -0.314 C  
HETATM   26  C   UNL     1     -12.358  13.381  64.531  1.00  0.00    -0.360 C  
HETATM   27  O   UNL     1     -13.172  12.472  64.519  1.00  0.00    -0.832 OA 
HETATM   28  O   UNL     1     -12.623  14.597  63.997  1.00  0.00    -0.819 OA 
ENDBRANCH  24  25
ENDBRANCH  23  24
ENDBRANCH   9  23
TORSDOF 6
ENDMDL
MODEL       37
REMARK 921   NORMALIZED FREE ENERGY PREDICTED BY IDOCK:   -5.68 KCAL/MOL
REMARK 922        TOTAL FREE ENERGY PREDICTED BY IDOCK:   -9.02 KCAL/MOL
REMARK 923 INTER-LIGAND FREE ENERGY PREDICTED BY IDOCK:   -7.70 KCAL/MOL
REMARK 924 INTRA-LIGAND FREE ENERGY PREDICTED BY IDOCK:   -1.32 KCAL/MOL
REMARK 927      BINDING AFFINITY PREDICTED BY RF-SCORE:    0.00 PKD
ROOT
HETATM    1  C   UNL     1     -10.247  12.888  65.793  1.00  0.00    -0.298 C  
HETATM    2  C   UNL     1     -10.811  13.173  64.410  1.00  0.00    -0.417 C  
HETATM    3  C   UNL     1     -11.638  14.450  64.569  1.00  0.00    -0.384 C  
HETATM    4  C   UNL     1     -11.082  15.179  65.811  1.00  0.00    -0.330 C  
HETATM    5  O   UNL     1     -13.009  14.124  64.804  1.00  0.00    -0.674 OA 
HETATM    6  H   UNL     1     -13.522  14.917  64.904  1.00  0.00     0.000 HD 
HETATM    7  C   UNL     1      -9.975  14.267  66.390  1.00  0.00    -0.302 C  
HETATM    8  C   UNL     1     -11.237  12.230  66.747  1.00  0.00    -0.371 C  
HETATM    9  C   UNL     1     -11.212  12.281  69.265  1.00  0.00    -0.275 C  
HETATM   10  C   UNL     1     -10.043  14.062  67.907  1.00  0.00    -0.237 C  
HETATM   11  C   UNL     1     -10.879  12.820  68.081  1.00  0.00    -0.249 C  
ENDROOT
BRANCH   4  12
HETATM   12  C   UNL     1     -10.506  16.532  65.466  1.00  0.00    -0.320 C  
HETATM   13  C   UNL     1     -10.728  17.618  66.223  1.00  0.00    -0.096 C  
BRANCH  13  14
HETATM   14  C   UNL     1     -10.046  18.938  66.031  1.00  0.00    -0.329 C  
HETATM   15  O   UNL     1     -11.031  19.875  65.611  1.00  0.00    -0.349 OA 
HETATM   16  C   UNL     1      -9.353  19.443  67.321  1.00  0.00    -0.386 C  
HETATM   17  H   UNL     1     -10.599  20.712  65.489  1.00  0.00     0.000 HD 
HETATM   18  C   UNL     1      -8.232  18.492  67.789  1.00  0.00    -0.265 C  
HETATM   19  C   UNL     1     -10.342  19.688  68.470  1.00  0.00    -0.459 C  
BRANCH  18  20
HETATM   20  C   UNL     1      -7.150  18.391  66.727  1.00  0.00    -0.228 C  
HETATM   21  C   UNL     1      -6.222  18.306  65.815  1.00  0.00    -0.288 C  
HETATM   22  C   UNL     1      -5.140  18.206  64.752  1.00  0.00    -0.048 C  
ENDBRANCH  18  20
ENDBRANCH  13  14
ENDBRANCH   4  12
BRANCH   9  23
HETATM   23  C   UNL     1     -12.013  11.015  69.416  1.00  0.00    -0.408 C  
BRANCH  23  24
HETATM   24  C   UNL     1     -11.142   9.758  69.348  1.00  0.00    -0.205 C  
BRANCH  24  25
HETATM   25  C   UNL     1      -9.916   9.841  70.255  1.00  0.00    -0.309 C  
HETATM   26  C   UNL     1      -8.633   9.928  69.464  1.00  0.00    -0.185 C  
HETATM   27  O   UNL     1      -8.546   9.935  68.247  1.00  0.00    -0.113 OA 
HETATM   28  O   UNL     1      -7.547   9.998  70.269  1.00  0.00    -0.170 OA 
ENDBRANCH  24  25
ENDBRANCH  23  24
ENDBRANCH   9  23
TORSDOF 6
ENDMDL
MODEL       38
REMARK 921   NORMALIZED FREE ENERGY PREDICTED BY IDOCK:   -5.64 KCAL/MOL
REMARK 922        TOTAL FREE ENERGY PREDICTED BY IDOCK:   -8.96 KCAL/MOL
REMARK 923 INTER-LIGAND FREE ENERGY PREDICTED BY IDOCK:   -8.16 KCAL/MOL
REMARK 924 INTRA-LIGAND FREE ENERGY PREDICTED BY IDOCK:   -0.80 KCAL/MOL
REMARK 927      BINDING AFFINITY PREDICTED BY RF-SCORE:    0.00 PKD
ROOT
HETATM    1  C   UNL     1     -12.024  13.789  67.401  1.00  0.00    -0.423 C  
HETATM    2  C   UNL     1     -11.964  14.844  68.495  1.00  0.00    -0.275 C  
HETATM    3  C   UNL     1     -10.570  15.462  68.381  1.00  0.00    -0.247 C  
HETATM    4  C   UNL     1     -10.096  15.206  66.934  1.00  0.00    -0.256 C  
HETATM    5  O   UNL     1      -9.669  14.816  69.280  1.00  0.00    -0.334 OA 
HETATM    6  H   UNL     1      -8.803  15.200  69.209  1.00  0.00     0.000 HD 
HETATM    7  C   UNL     1     -11.210  14.379  66.252  1.00  0.00    -0.338 C  
HETATM    8  C   UNL     1     -11.322  12.483  67.756  1.00  0.00    -0.351 C  
HETATM    9  C   UNL     1     -10.372  10.769  66.174  1.00  0.00    -0.300 C  
HETATM   10  C   UNL     1     -10.712  13.167  65.456  1.00  0.00    -0.297 C  
HETATM   11  C   UNL     1     -10.748  12.029  66.444  1.00  0.00    -0.294 C  
ENDROOT
BRANCH   4  12
HETATM   12  C   UNL     1      -9.870  16.492  66.174  1.00  0.00    -0.355 C  
HETATM   13  C   UNL     1     -10.389  17.663  66.576  1.00  0.00    -0.337 C  
BRANCH  13  14
HETATM   14  C   UNL     1     -10.058  18.990  65.967  1.00  0.00    -0.347 C  
HETATM   15  O   UNL     1     -11.275  19.571  65.512  1.00  0.00    -0.286 OA 
HETATM   16  C   UNL     1      -9.358  19.945  66.966  1.00  0.00    -0.486 C  
HETATM   17  H   UNL     1     -11.065  20.413  65.126  1.00  0.00     0.000 HD 
HETATM   18  C   UNL     1      -8.001  19.391  67.447  1.00  0.00    -0.299 C  
HETATM   19  C   UNL     1     -10.239  20.289  68.175  1.00  0.00    -0.399 C  
BRANCH  18  20
HETATM   20  C   UNL     1      -7.054  19.223  66.270  1.00  0.00    -0.257 C  
HETATM   21  C   UNL     1      -6.241  19.081  65.260  1.00  0.00    -0.317 C  
HETATM   22  C   UNL     1      -5.293  18.915  64.084  1.00  0.00    -0.267 C  
ENDBRANCH  18  20
ENDBRANCH  13  14
ENDBRANCH   4  12
BRANCH   9  23
HETATM   23  C   UNL     1     -10.456   9.638  67.163  1.00  0.00    -0.317 C  
BRANCH  23  24
HETATM   24  C   UNL     1     -10.089   8.286  66.543  1.00  0.00    -0.303 C  
BRANCH  24  25
HETATM   25  C   UNL     1     -10.865   7.125  67.162  1.00  0.00    -0.403 C  
HETATM   26  C   UNL     1     -10.421   6.839  68.576  1.00  0.00    -0.204 C  
HETATM   27  O   UNL     1      -9.553   7.441  69.186  1.00  0.00    -0.156 OA 
HETATM   28  O   UNL     1     -11.108   5.808  69.121  1.00  0.00    -0.316 OA 
ENDBRANCH  24  25
ENDBRANCH  23  24
ENDBRANCH   9  23
TORSDOF 6
ENDMDL
MODEL       39
REMARK 921   NORMALIZED FREE ENERGY PREDICTED BY IDOCK:   -5.63 KCAL/MOL
REMARK 922        TOTAL FREE ENERGY PREDICTED BY IDOCK:   -8.96 KCAL/MOL
REMARK 923 INTER-LIGAND FREE ENERGY PREDICTED BY IDOCK:   -7.83 KCAL/MOL
REMARK 924 INTRA-LIGAND FREE ENERGY PREDICTED BY IDOCK:   -1.13 KCAL/MOL
REMARK 927      BINDING AFFINITY PREDICTED BY RF-SCORE:    0.00 PKD
ROOT
HETATM    1  C   UNL     1      -8.248   8.458  67.581  1.00  0.00    -0.126 C  
HETATM    2  C   UNL     1      -7.357   8.232  66.370  1.00  0.00    -0.080 C  
HETATM    3  C   UNL     1      -8.307   8.200  65.173  1.00  0.00    -0.143 C  
HETATM    4  C   UNL     1      -9.576   8.967  65.601  1.00  0.00    -0.175 C  
HETATM    5  O   UNL     1      -8.667   6.853  64.865  1.00  0.00    -0.354 OA 
HETATM    6  H   UNL     1      -9.258   6.833  64.121  1.00  0.00     0.000 HD 
HETATM    7  C   UNL     1      -9.359   9.376  67.077  1.00  0.00    -0.185 C  
HETATM    8  C   UNL     1      -8.962   7.203  68.072  1.00  0.00    -0.127 C  
HETATM    9  C   UNL     1     -11.099   7.069  69.399  1.00  0.00    -0.194 C  
HETATM   10  C   UNL     1     -10.551   9.100  68.000  1.00  0.00    -0.253 C  
HETATM   11  C   UNL     1     -10.288   7.723  68.552  1.00  0.00    -0.226 C  
ENDROOT
BRANCH   4  12
HETATM   12  C   UNL     1      -9.811  10.197  64.755  1.00  0.00    -0.382 C  
HETATM   13  C   UNL     1     -10.102  11.391  65.294  1.00  0.00    -0.315 C  
BRANCH  13  14
HETATM   14  C   UNL     1     -10.171  12.674  64.523  1.00  0.00    -0.305 C  
HETATM   15  O   UNL     1      -9.540  12.456  63.267  1.00  0.00    -0.620 OA 
HETATM   16  C   UNL     1     -11.626  13.160  64.307  1.00  0.00    -0.440 C  
HETATM   17  H   UNL     1      -9.585  13.269  62.778  1.00  0.00     0.000 HD 
HETATM   18  C   UNL     1     -12.340  13.470  65.639  1.00  0.00    -0.522 C  
HETATM   19  C   UNL     1     -12.466  12.174  63.483  1.00  0.00    -0.666 C  
BRANCH  18  20
HETATM   20  C   UNL     1     -11.616  14.583  66.378  1.00  0.00    -0.370 C  
HETATM   21  C   UNL     1     -10.993  15.536  67.013  1.00  0.00    -0.283 C  
HETATM   22  C   UNL     1     -10.267  16.649  67.752  1.00  0.00    -0.292 C  
ENDBRANCH  18  20
ENDBRANCH  13  14
ENDBRANCH   4  12
BRANCH   9  23
HETATM   23  C   UNL     1     -10.796   5.711  69.971  1.00  0.00    -0.366 C  
BRANCH  23  24
HETATM   24  C   UNL     1     -10.602   5.743  71.490  1.00  0.00    -0.304 C  
BRANCH  24  25
HETATM   25  C   UNL     1      -9.457   6.659  71.917  1.00  0.00    -0.150 C  
HETATM   26  C   UNL     1      -9.945   7.825  72.743  1.00  0.00    -0.260 C  
HETATM   27  O   UNL     1     -11.105   8.042  73.053  1.00  0.00    -0.382 OA 
HETATM   28  O   UNL     1      -8.930   8.638  73.118  1.00  0.00    -0.310 OA 
ENDBRANCH  24  25
ENDBRANCH  23  24
ENDBRANCH   9  23
TORSDOF 6
ENDMDL
MODEL       40
REMARK 921   NORMALIZED FREE ENERGY PREDICTED BY IDOCK:   -5.62 KCAL/MOL
REMARK 922        TOTAL FREE ENERGY PREDICTED BY IDOCK:   -8.94 KCAL/MOL
REMARK 923 INTER-LIGAND FREE ENERGY PREDICTED BY IDOCK:   -8.04 KCAL/MOL
REMARK 924 INTRA-LIGAND FREE ENERGY PREDICTED BY IDOCK:   -0.90 KCAL/MOL
REMARK 927      BINDING AFFINITY PREDICTED BY RF-SCORE:    0.00 PKD
ROOT
HETATM    1  C   UNL     1     -12.637  13.741  69.625  1.00  0.00    -0.020 C  
HETATM    2  C   UNL     1     -12.430  15.166  70.112  1.00  0.00    -0.361 C  
HETATM    3  C   UNL     1     -11.066  15.584  69.562  1.00  0.00    -0.286 C  
HETATM    4  C   UNL     1     -10.793  14.683  68.339  1.00  0.00    -0.250 C  
HETATM    5  O   UNL     1     -10.049  15.353  70.538  1.00  0.00    -0.404 OA 
HETATM    6  H   UNL     1      -9.201  15.612  70.196  1.00  0.00     0.000 HD 
HETATM    7  C   UNL     1     -11.989  13.707  68.244  1.00  0.00    -0.385 C  
HETATM    8  C   UNL     1     -11.891  12.689  70.440  1.00  0.00    -0.238 C  
HETATM    9  C   UNL     1     -11.163  10.396  69.693  1.00  0.00    -0.333 C  
HETATM   10  C   UNL     1     -11.602  12.240  68.022  1.00  0.00    -0.408 C  
HETATM   11  C   UNL     1     -11.502  11.665  69.412  1.00  0.00    -0.372 C  
ENDROOT
BRANCH   4  12
HETATM   12  C   UNL     1     -10.675  15.479  67.061  1.00  0.00    -0.321 C  
HETATM   13  C   UNL     1     -10.495  16.810  67.060  1.00  0.00    -0.285 C  
BRANCH  13  14
HETATM   14  C   UNL     1     -10.198  17.624  65.839  1.00  0.00    -0.232 C  
HETATM   15  O   UNL     1     -11.277  17.445  64.928  1.00  0.00    -0.744 OA 
HETATM   16  C   UNL     1     -10.018  19.129  66.156  1.00  0.00    -0.441 C  
HETATM   17  H   UNL     1     -11.088  17.962  64.154  1.00  0.00     0.000 HD 
HETATM   18  C   UNL     1      -8.821  19.387  67.094  1.00  0.00    -0.339 C  
HETATM   19  C   UNL     1     -11.285  19.768  66.741  1.00  0.00     0.076 C  
BRANCH  18  20
HETATM   20  C   UNL     1      -7.529  18.924  66.439  1.00  0.00    -0.274 C  
HETATM   21  C   UNL     1      -6.422  18.528  65.876  1.00  0.00    -0.287 C  
HETATM   22  C   UNL     1      -5.130  18.067  65.221  1.00  0.00    -0.154 C  
ENDBRANCH  18  20
ENDBRANCH  13  14
ENDBRANCH   4  12
BRANCH   9  23
HETATM   23  C   UNL     1     -11.110   9.831  71.087  1.00  0.00    -0.414 C  
BRANCH  23  24
HETATM   24  C   UNL     1     -12.134   8.714  71.308  1.00  0.00    -0.333 C  
BRANCH  24  25
HETATM   25  C   UNL     1     -11.569   7.550  72.118  1.00  0.00    -0.340 C  
HETATM   26  C   UNL     1     -11.210   6.374  71.242  1.00  0.00    -0.292 C  
HETATM   27  O   UNL     1     -11.339   6.323  70.030  1.00  0.00    -0.380 OA 
HETATM   28  O   UNL     1     -10.712   5.341  71.962  1.00  0.00    -0.222 OA 
ENDBRANCH  24  25
ENDBRANCH  23  24
ENDBRANCH   9  23
TORSDOF 6
ENDMDL
MODEL       41
REMARK 921   NORMALIZED FREE ENERGY PREDICTED BY IDOCK:   -5.61 KCAL/MOL
REMARK 922        TOTAL FREE ENERGY PREDICTED BY IDOCK:   -8.93 KCAL/MOL
REMARK 923 INTER-LIGAND FREE ENERGY PREDICTED BY IDOCK:   -8.05 KCAL/MOL
REMARK 924 INTRA-LIGAND FREE ENERGY PREDICTED BY IDOCK:   -0.88 KCAL/MOL
REMARK 927      BINDING AFFINITY PREDICTED BY RF-SCORE:    0.00 PKD
ROOT
HETATM    1  C   UNL     1     -10.268  14.173  67.362  1.00  0.00    -0.244 C  
HETATM    2  C   UNL     1      -9.124  13.970  68.343  1.00  0.00    -0.191 C  
HETATM    3  C   UNL     1      -7.891  14.546  67.645  1.00  0.00    -0.180 C  
HETATM    4  C   UNL     1      -8.411  15.558  66.602  1.00  0.00    -0.314 C  
HETATM    5  O   UNL     1      -7.180  13.511  66.965  1.00  0.00    -0.342 OA 
HETATM    6  H   UNL     1      -6.414  13.869  66.531  1.00  0.00     0.000 HD 
HETATM    7  C   UNL     1      -9.955  15.498  66.672  1.00  0.00    -0.272 C  
HETATM    8  C   UNL     1     -10.316  13.143  66.239  1.00  0.00    -0.291 C  
HETATM    9  C   UNL     1     -11.362  13.398  63.961  1.00  0.00    -0.356 C  
HETATM   10  C   UNL     1     -10.655  15.413  65.311  1.00  0.00    -0.450 C  
HETATM   11  C   UNL     1     -10.810  13.935  65.061  1.00  0.00    -0.389 C  
ENDROOT
BRANCH   4  12
HETATM   12  C   UNL     1      -7.936  16.964  66.886  1.00  0.00    -0.248 C  
HETATM   13  C   UNL     1      -8.101  17.966  66.009  1.00  0.00    -0.130 C  
BRANCH  13  14
HETATM   14  C   UNL     1      -7.812  19.406  66.304  1.00  0.00    -0.308 C  
HETATM   15  O   UNL     1      -7.738  20.094  65.060  1.00  0.00    -0.338 OA 
HETATM   16  C   UNL     1      -8.891  20.057  67.205  1.00  0.00    -0.429 C  
HETATM   17  H   UNL     1      -7.555  21.007  65.248  1.00  0.00     0.000 HD 
HETATM   18  C   UNL     1      -8.973  19.387  68.592  1.00  0.00    -0.419 C  
HETATM   19  C   UNL     1     -10.280  20.073  66.551  1.00  0.00    -0.598 C  
BRANCH  18  20
HETATM   20  C   UNL     1      -7.650  19.533  69.325  1.00  0.00    -0.237 C  
HETATM   21  C   UNL     1      -6.516  19.658  69.956  1.00  0.00    -0.288 C  
HETATM   22  C   UNL     1      -5.193  19.804  70.691  1.00  0.00    -0.249 C  
ENDBRANCH  18  20
ENDBRANCH  13  14
ENDBRANCH   4  12
BRANCH   9  23
HETATM   23  C   UNL     1     -11.545  11.919  63.750  1.00  0.00    -0.555 C  
BRANCH  23  24
HETATM   24  C   UNL     1     -10.276  11.239  63.228  1.00  0.00    -0.417 C  
BRANCH  24  25
HETATM   25  C   UNL     1      -9.654  10.289  64.250  1.00  0.00    -0.375 C  
HETATM   26  C   UNL     1      -8.873   9.180  63.588  1.00  0.00    -0.056 C  
HETATM   27  O   UNL     1      -8.731   9.028  62.386  1.00  0.00    -0.221 OA 
HETATM   28  O   UNL     1      -8.325   8.338  64.495  1.00  0.00    -0.154 OA 
ENDBRANCH  24  25
ENDBRANCH  23  24
ENDBRANCH   9  23
TORSDOF 6
ENDMDL
MODEL       42
REMARK 921   NORMALIZED FREE ENERGY PREDICTED BY IDOCK:   -5.58 KCAL/MOL
REMARK 922        TOTAL FREE ENERGY PREDICTED BY IDOCK:   -8.89 KCAL/MOL
REMARK 923 INTER-LIGAND FREE ENERGY PREDICTED BY IDOCK:   -7.73 KCAL/MOL
REMARK 924 INTRA-LIGAND FREE ENERGY PREDICTED BY IDOCK:   -1.15 KCAL/MOL
REMARK 927      BINDING AFFINITY PREDICTED BY RF-SCORE:    0.00 PKD
ROOT
HETATM    1  C   UNL     1     -11.703  14.217  66.432  1.00  0.00    -0.404 C  
HETATM    2  C   UNL     1     -11.938  13.112  65.414  1.00  0.00    -0.448 C  
HETATM    3  C   UNL     1     -10.543  12.619  65.028  1.00  0.00    -0.303 C  
HETATM    4  C   UNL     1      -9.608  12.992  66.198  1.00  0.00    -0.209 C  
HETATM    5  O   UNL     1     -10.092  13.287  63.849  1.00  0.00    -0.754 OA 
HETATM    6  H   UNL     1      -9.225  12.980  63.610  1.00  0.00     0.000 HD 
HETATM    7  C   UNL     1     -10.478  13.760  67.220  1.00  0.00    -0.264 C  
HETATM    8  C   UNL     1     -11.305  15.555  65.819  1.00  0.00    -0.039 C  
HETATM    9  C   UNL     1     -10.021  17.426  66.913  1.00  0.00    -0.300 C  
HETATM   10  C   UNL     1      -9.847  15.050  67.755  1.00  0.00    -0.220 C  
HETATM   11  C   UNL     1     -10.345  16.126  66.825  1.00  0.00    -0.291 C  
ENDROOT
BRANCH   4  12
HETATM   12  C   UNL     1      -9.001  11.772  66.852  1.00  0.00    -0.195 C  
HETATM   13  C   UNL     1      -9.309  11.404  68.106  1.00  0.00    -0.181 C  
BRANCH  13  14
HETATM   14  C   UNL     1      -8.879  10.118  68.741  1.00  0.00    -0.146 C  
HETATM   15  O   UNL     1      -8.219  10.440  69.960  1.00  0.00    -0.358 OA 
HETATM   16  C   UNL     1     -10.067   9.164  69.019  1.00  0.00    -0.199 C  
HETATM   17  H   UNL     1      -7.946   9.625  70.363  1.00  0.00     0.000 HD 
HETATM   18  C   UNL     1     -10.783   8.734  67.722  1.00  0.00    -0.193 C  
HETATM   19  C   UNL     1     -11.085   9.755  70.005  1.00  0.00    -0.311 C  
BRANCH  18  20
HETATM   20  C   UNL     1      -9.823   7.980  66.816  1.00  0.00    -0.327 C  
HETATM   21  C   UNL     1      -9.000   7.331  66.041  1.00  0.00    -0.149 C  
HETATM   22  C   UNL     1      -8.040   6.576  65.136  1.00  0.00    -0.133 C  
ENDBRANCH  18  20
ENDBRANCH  13  14
ENDBRANCH   4  12
BRANCH   9  23
HETATM   23  C   UNL     1     -10.563  18.491  65.998  1.00  0.00    -0.368 C  
BRANCH  23  24
HETATM   24  C   UNL     1     -10.204  19.905  66.464  1.00  0.00    -0.611 C  
BRANCH  24  25
HETATM   25  C   UNL     1      -9.355  19.908  67.733  1.00  0.00    -0.454 C  
HETATM   26  C   UNL     1      -7.886  20.074  67.429  1.00  0.00    -0.295 C  
HETATM   27  O   UNL     1      -7.398  20.195  66.317  1.00  0.00    -0.271 OA 
HETATM   28  O   UNL     1      -7.133  20.073  68.554  1.00  0.00    -0.308 OA 
ENDBRANCH  24  25
ENDBRANCH  23  24
ENDBRANCH   9  23
TORSDOF 6
ENDMDL
MODEL       43
REMARK 921   NORMALIZED FREE ENERGY PREDICTED BY IDOCK:   -5.58 KCAL/MOL
REMARK 922        TOTAL FREE ENERGY PREDICTED BY IDOCK:   -8.88 KCAL/MOL
REMARK 923 INTER-LIGAND FREE ENERGY PREDICTED BY IDOCK:   -7.93 KCAL/MOL
REMARK 924 INTRA-LIGAND FREE ENERGY PREDICTED BY IDOCK:   -0.95 KCAL/MOL
REMARK 927      BINDING AFFINITY PREDICTED BY RF-SCORE:    0.00 PKD
ROOT
HETATM    1  C   UNL     1      -8.334  11.348  66.636  1.00  0.00    -0.172 C  
HETATM    2  C   UNL     1      -7.933  11.979  67.959  1.00  0.00    -0.149 C  
HETATM    3  C   UNL     1      -9.034  11.583  68.944  1.00  0.00     0.039 C  
HETATM    4  C   UNL     1      -9.691  10.308  68.374  1.00  0.00    -0.165 C  
HETATM    5  O   UNL     1     -10.021  12.612  69.021  1.00  0.00    -0.421 OA 
HETATM    6  H   UNL     1     -10.705  12.365  69.633  1.00  0.00     0.000 HD 
HETATM    7  C   UNL     1      -8.993  10.026  67.023  1.00  0.00    -0.152 C  
HETATM    8  C   UNL     1      -9.409  12.120  65.878  1.00  0.00    -0.135 C  
HETATM    9  C   UNL     1     -11.024  11.226  64.164  1.00  0.00    -0.376 C  
HETATM   10  C   UNL     1      -9.944   9.703  65.866  1.00  0.00    -0.351 C  
HETATM   11  C   UNL     1     -10.215  11.037  65.219  1.00  0.00    -0.344 C  
ENDROOT
BRANCH   4  12
HETATM   12  C   UNL     1      -9.527   9.122  69.295  1.00  0.00    -0.158 C  
HETATM   13  C   UNL     1      -9.814   9.188  70.605  1.00  0.00    -0.308 C  
BRANCH  13  14
HETATM   14  C   UNL     1      -9.839   8.008  71.527  1.00  0.00    -0.170 C  
HETATM   15  O   UNL     1      -9.367   8.444  72.797  1.00  0.00    -0.265 OA 
HETATM   16  C   UNL     1     -11.254   7.395  71.671  1.00  0.00    -0.276 C  
HETATM   17  H   UNL     1      -9.383   7.696  73.382  1.00  0.00     0.000 HD 
HETATM   18  C   UNL     1     -11.791   6.850  70.332  1.00  0.00    -0.351 C  
HETATM   19  C   UNL     1     -12.267   8.376  72.279  1.00  0.00    -0.449 C  
BRANCH  18  20
HETATM   20  C   UNL     1     -10.888   5.742  69.815  1.00  0.00    -0.419 C  
HETATM   21  C   UNL     1     -10.115   4.791  69.370  1.00  0.00    -0.241 C  
HETATM   22  C   UNL     1      -9.212   3.683  68.852  1.00  0.00    -0.223 C  
ENDBRANCH  18  20
ENDBRANCH  13  14
ENDBRANCH   4  12
BRANCH   9  23
HETATM   23  C   UNL     1     -11.248  12.562  63.507  1.00  0.00    -0.525 C  
BRANCH  23  24
HETATM   24  C   UNL     1     -12.285  13.413  64.245  1.00  0.00    -0.450 C  
BRANCH  24  25
HETATM   25  C   UNL     1     -12.230  14.886  63.844  1.00  0.00     0.016 C  
HETATM   26  C   UNL     1     -11.236  15.660  64.675  1.00  0.00    -0.369 C  
HETATM   27  O   UNL     1     -10.541  15.201  65.566  1.00  0.00    -0.314 OA 
HETATM   28  O   UNL     1     -11.190  16.966  64.320  1.00  0.00    -1.204 OA 
ENDBRANCH  24  25
ENDBRANCH  23  24
ENDBRANCH   9  23
TORSDOF 6
ENDMDL
MODEL       44
REMARK 921   NORMALIZED FREE ENERGY PREDICTED BY IDOCK:   -5.55 KCAL/MOL
REMARK 922        TOTAL FREE ENERGY PREDICTED BY IDOCK:   -8.85 KCAL/MOL
REMARK 923 INTER-LIGAND FREE ENERGY PREDICTED BY IDOCK:   -7.31 KCAL/MOL
REMARK 924 INTRA-LIGAND FREE ENERGY PREDICTED BY IDOCK:   -1.54 KCAL/MOL
REMARK 927      BINDING AFFINITY PREDICTED BY RF-SCORE:    0.00 PKD
ROOT
HETATM    1  C   UNL     1      -9.938  12.144  65.764  1.00  0.00    -0.271 C  
HETATM    2  C   UNL     1     -10.560  13.015  64.684  1.00  0.00    -0.397 C  
HETATM    3  C   UNL     1     -11.991  13.277  65.155  1.00  0.00    -0.381 C  
HETATM    4  C   UNL     1     -11.990  13.083  66.687  1.00  0.00    -0.453 C  
HETATM    5  O   UNL     1     -12.884  12.326  64.573  1.00  0.00    -0.654 OA 
HETATM    6  H   UNL     1     -13.773  12.489  64.866  1.00  0.00     0.000 HD 
HETATM    7  C   UNL     1     -10.556  12.643  67.067  1.00  0.00    -0.255 C  
HETATM    8  C   UNL     1     -10.327  10.672  65.678  1.00  0.00    -0.285 C  
HETATM    9  C   UNL     1     -10.337   8.973  67.538  1.00  0.00    -0.328 C  
HETATM   10  C   UNL     1     -10.486  11.448  68.024  1.00  0.00    -0.215 C  
HETATM   11  C   UNL     1     -10.398  10.247  67.117  1.00  0.00    -0.292 C  
ENDROOT
BRANCH   4  12
HETATM   12  C   UNL     1     -12.351  14.352  67.422  1.00  0.00    -0.067 C  
HETATM   13  C   UNL     1     -12.338  14.432  68.762  1.00  0.00    -0.080 C  
BRANCH  13  14
HETATM   14  C   UNL     1     -12.515  15.701  69.537  1.00  0.00     0.003 C  
HETATM   15  O   UNL     1     -13.648  15.536  70.382  1.00  0.00    -0.806 OA 
HETATM   16  C   UNL     1     -11.269  16.058  70.386  1.00  0.00    -0.401 C  
HETATM   17  H   UNL     1     -13.759  16.341  70.873  1.00  0.00     0.000 HD 
HETATM   18  C   UNL     1     -10.022  16.308  69.513  1.00  0.00    -0.190 C  
HETATM   19  C   UNL     1     -10.955  15.000  71.453  1.00  0.00    -0.028 C  
BRANCH  18  20
HETATM   20  C   UNL     1     -10.260  17.482  68.578  1.00  0.00    -0.378 C  
HETATM   21  C   UNL     1     -10.466  18.490  67.777  1.00  0.00    -0.443 C  
HETATM   22  C   UNL     1     -10.705  19.665  66.843  1.00  0.00    -0.570 C  
ENDBRANCH  18  20
ENDBRANCH  13  14
ENDBRANCH   4  12
BRANCH   9  23
HETATM   23  C   UNL     1     -10.207   7.790  66.616  1.00  0.00    -0.288 C  
BRANCH  23  24
HETATM   24  C   UNL     1      -8.772   7.261  66.537  1.00  0.00    -0.141 C  
BRANCH  24  25
HETATM   25  C   UNL     1      -8.128   7.508  65.175  1.00  0.00    -0.130 C  
HETATM   26  C   UNL     1      -7.170   8.674  65.207  1.00  0.00    -0.083 C  
HETATM   27  O   UNL     1      -6.913   9.359  66.184  1.00  0.00    -0.087 OA 
HETATM   28  O   UNL     1      -6.602   8.894  63.998  1.00  0.00    -0.082 OA 
ENDBRANCH  24  25
ENDBRANCH  23  24
ENDBRANCH   9  23
TORSDOF 6
ENDMDL
MODEL       45
REMARK 921   NORMALIZED FREE ENERGY PREDICTED BY IDOCK:   -5.54 KCAL/MOL
REMARK 922        TOTAL FREE ENERGY PREDICTED BY IDOCK:   -8.83 KCAL/MOL
REMARK 923 INTER-LIGAND FREE ENERGY PREDICTED BY IDOCK:   -7.93 KCAL/MOL
REMARK 924 INTRA-LIGAND FREE ENERGY PREDICTED BY IDOCK:   -0.90 KCAL/MOL
REMARK 927      BINDING AFFINITY PREDICTED BY RF-SCORE:    0.00 PKD
ROOT
HETATM    1  C   UNL     1     -10.579  13.033  66.476  1.00  0.00    -0.292 C  
HETATM    2  C   UNL     1     -11.058  14.316  65.815  1.00  0.00    -0.310 C  
HETATM    3  C   UNL     1     -10.535  15.445  66.705  1.00  0.00    -0.299 C  
HETATM    4  C   UNL     1      -9.326  14.871  67.474  1.00  0.00    -0.193 C  
HETATM    5  O   UNL     1     -11.535  15.834  67.647  1.00  0.00    -0.254 OA 
HETATM    6  H   UNL     1     -11.210  16.535  68.200  1.00  0.00     0.000 HD 
HETATM    7  C   UNL     1      -9.213  13.386  67.059  1.00  0.00    -0.242 C  
HETATM    8  C   UNL     1     -11.419  12.596  67.671  1.00  0.00    -0.390 C  
HETATM    9  C   UNL     1     -10.709  11.142  69.601  1.00  0.00    -0.144 C  
HETATM   10  C   UNL     1      -9.013  12.409  68.223  1.00  0.00    -0.178 C  
HETATM   11  C   UNL     1     -10.409  11.987  68.602  1.00  0.00    -0.211 C  
ENDROOT
BRANCH   4  12
HETATM   12  C   UNL     1      -8.044  15.598  67.143  1.00  0.00    -0.247 C  
HETATM   13  C   UNL     1      -7.763  16.815  67.635  1.00  0.00    -0.183 C  
BRANCH  13  14
HETATM   14  C   UNL     1      -6.443  17.506  67.486  1.00  0.00    -0.147 C  
HETATM   15  O   UNL     1      -5.670  16.761  66.551  1.00  0.00    -0.328 OA 
HETATM   16  C   UNL     1      -6.588  18.970  67.004  1.00  0.00    -0.200 C  
HETATM   17  H   UNL     1      -4.833  17.199  66.457  1.00  0.00     0.000 HD 
HETATM   18  C   UNL     1      -7.368  19.840  68.011  1.00  0.00    -0.324 C  
HETATM   19  C   UNL     1      -7.233  19.077  65.615  1.00  0.00    -0.207 C  
BRANCH  18  20
HETATM   20  C   UNL     1      -6.634  19.892  69.341  1.00  0.00    -0.375 C  
HETATM   21  C   UNL     1      -6.003  19.935  70.481  1.00  0.00    -0.344 C  
HETATM   22  C   UNL     1      -5.268  19.986  71.811  1.00  0.00    -0.425 C  
ENDBRANCH  18  20
ENDBRANCH  13  14
ENDBRANCH   4  12
BRANCH   9  23
HETATM   23  C   UNL     1     -12.109  10.701  69.937  1.00  0.00    -0.372 C  
BRANCH  23  24
HETATM   24  C   UNL     1     -12.669  11.415  71.171  1.00  0.00    -0.479 C  
BRANCH  24  25
HETATM   25  C   UNL     1     -12.502  12.931  71.101  1.00  0.00    -0.344 C  
HETATM   26  C   UNL     1     -13.494  13.650  71.982  1.00  0.00    -0.484 C  
HETATM   27  O   UNL     1     -14.341  13.119  72.681  1.00  0.00    -0.636 OA 
HETATM   28  O   UNL     1     -13.347  14.994  71.916  1.00  0.00    -0.327 OA 
ENDBRANCH  24  25
ENDBRANCH  23  24
ENDBRANCH   9  23
TORSDOF 6
ENDMDL
MODEL       46
REMARK 921   NORMALIZED FREE ENERGY PREDICTED BY IDOCK:   -5.52 KCAL/MOL
REMARK 922        TOTAL FREE ENERGY PREDICTED BY IDOCK:   -8.81 KCAL/MOL
REMARK 923 INTER-LIGAND FREE ENERGY PREDICTED BY IDOCK:   -7.91 KCAL/MOL
REMARK 924 INTRA-LIGAND FREE ENERGY PREDICTED BY IDOCK:   -0.89 KCAL/MOL
REMARK 927      BINDING AFFINITY PREDICTED BY RF-SCORE:    0.00 PKD
ROOT
HETATM    1  C   UNL     1     -10.629  12.813  67.868  1.00  0.00    -0.232 C  
HETATM    2  C   UNL     1     -10.822  12.725  66.363  1.00  0.00    -0.294 C  
HETATM    3  C   UNL     1     -11.475  14.049  65.963  1.00  0.00    -0.338 C  
HETATM    4  C   UNL     1     -11.116  15.064  67.068  1.00  0.00    -0.334 C  
HETATM    5  O   UNL     1     -12.895  13.904  65.918  1.00  0.00    -0.472 OA 
HETATM    6  H   UNL     1     -13.301  14.727  65.670  1.00  0.00     0.000 HD 
HETATM    7  C   UNL     1     -10.307  14.282  68.130  1.00  0.00    -0.233 C  
HETATM    8  C   UNL     1     -11.891  12.533  68.676  1.00  0.00    -0.340 C  
HETATM    9  C   UNL     1     -12.427  13.310  71.011  1.00  0.00    -0.422 C  
HETATM   10  C   UNL     1     -10.743  14.532  69.578  1.00  0.00    -0.168 C  
HETATM   11  C   UNL     1     -11.763  13.457  69.854  1.00  0.00    -0.337 C  
ENDROOT
BRANCH   4  12
HETATM   12  C   UNL     1     -10.292  16.214  66.538  1.00  0.00    -0.311 C  
HETATM   13  C   UNL     1      -9.493  16.947  67.329  1.00  0.00    -0.242 C  
BRANCH  13  14
HETATM   14  C   UNL     1      -8.526  17.979  66.835  1.00  0.00    -0.249 C  
HETATM   15  O   UNL     1      -8.283  17.716  65.458  1.00  0.00    -0.293 OA 
HETATM   16  C   UNL     1      -9.055  19.424  67.012  1.00  0.00    -0.362 C  
HETATM   17  H   UNL     1      -7.670  18.371  65.144  1.00  0.00     0.000 HD 
HETATM   18  C   UNL     1      -9.280  19.783  68.496  1.00  0.00    -0.334 C  
HETATM   19  C   UNL     1     -10.338  19.689  66.212  1.00  0.00    -0.619 C  
BRANCH  18  20
HETATM   20  C   UNL     1      -7.969  19.704  69.260  1.00  0.00    -0.069 C  
HETATM   21  C   UNL     1      -6.845  19.637  69.918  1.00  0.00    -0.186 C  
HETATM   22  C   UNL     1      -5.534  19.558  70.684  1.00  0.00    -0.266 C  
ENDBRANCH  18  20
ENDBRANCH  13  14
ENDBRANCH   4  12
BRANCH   9  23
HETATM   23  C   UNL     1     -13.411  12.203  71.280  1.00  0.00     0.116 C  
BRANCH  23  24
HETATM   24  C   UNL     1     -12.729  10.905  71.724  1.00  0.00    -0.435 C  
BRANCH  24  25
HETATM   25  C   UNL     1     -13.449   9.659  71.213  1.00  0.00    -0.359 C  
HETATM   26  C   UNL     1     -12.875   8.394  71.804  1.00  0.00    -0.345 C  
HETATM   27  O   UNL     1     -11.951   8.334  72.598  1.00  0.00    -0.399 OA 
HETATM   28  O   UNL     1     -13.512   7.289  71.349  1.00  0.00    -0.388 OA 
ENDBRANCH  24  25
ENDBRANCH  23  24
ENDBRANCH   9  23
TORSDOF 6
ENDMDL
MODEL       47
REMARK 921   NORMALIZED FREE ENERGY PREDICTED BY IDOCK:   -5.52 KCAL/MOL
REMARK 922        TOTAL FREE ENERGY PREDICTED BY IDOCK:   -8.80 KCAL/MOL
REMARK 923 INTER-LIGAND FREE ENERGY PREDICTED BY IDOCK:   -7.51 KCAL/MOL
REMARK 924 INTRA-LIGAND FREE ENERGY PREDICTED BY IDOCK:   -1.29 KCAL/MOL
REMARK 927      BINDING AFFINITY PREDICTED BY RF-SCORE:    0.00 PKD
ROOT
HETATM    1  C   UNL     1     -10.172  10.353  69.939  1.00  0.00    -0.190 C  
HETATM    2  C   UNL     1      -9.611  10.837  68.611  1.00  0.00    -0.187 C  
HETATM    3  C   UNL     1     -10.818  11.365  67.834  1.00  0.00    -0.225 C  
HETATM    4  C   UNL     1     -11.891  11.722  68.884  1.00  0.00    -0.381 C  
HETATM    5  O   UNL     1     -11.335  10.347  66.976  1.00  0.00    -0.222 OA 
HETATM    6  H   UNL     1     -12.085  10.675  66.494  1.00  0.00     0.000 HD 
HETATM    7  C   UNL     1     -11.302  11.328  70.258  1.00  0.00    -0.179 C  
HETATM    8  C   UNL     1     -10.836   8.983  69.872  1.00  0.00    -0.228 C  
HETATM    9  C   UNL     1     -12.602   8.054  71.409  1.00  0.00    -0.307 C  
HETATM   10  C   UNL     1     -12.258  10.544  71.164  1.00  0.00    -0.496 C  
HETATM   11  C   UNL     1     -11.970   9.098  70.851  1.00  0.00    -0.299 C  
ENDROOT
BRANCH   4  12
HETATM   12  C   UNL     1     -12.231  13.194  68.872  1.00  0.00    -0.097 C  
HETATM   13  C   UNL     1     -12.623  13.847  69.977  1.00  0.00    -0.226 C  
BRANCH  13  14
HETATM   14  C   UNL     1     -12.803  15.332  70.065  1.00  0.00    -0.088 C  
HETATM   15  O   UNL     1     -14.023  15.578  70.755  1.00  0.00    -0.874 OA 
HETATM   16  C   UNL     1     -11.631  16.031  70.797  1.00  0.00    -0.431 C  
HETATM   17  H   UNL     1     -14.137  16.519  70.811  1.00  0.00     0.000 HD 
HETATM   18  C   UNL     1     -10.290  15.847  70.058  1.00  0.00    -0.242 C  
HETATM   19  C   UNL     1     -11.488  15.576  72.257  1.00  0.00    -0.496 C  
BRANCH  18  20
HETATM   20  C   UNL     1     -10.365  16.464  68.671  1.00  0.00    -0.273 C  
HETATM   21  C   UNL     1     -10.429  16.995  67.482  1.00  0.00    -0.334 C  
HETATM   22  C   UNL     1     -10.503  17.614  66.096  1.00  0.00    -0.295 C  
ENDBRANCH  18  20
ENDBRANCH  13  14
ENDBRANCH   4  12
BRANCH   9  23
HETATM   23  C   UNL     1     -12.270   6.616  71.114  1.00  0.00    -0.357 C  
BRANCH  23  24
HETATM   24  C   UNL     1     -11.635   5.901  72.310  1.00  0.00    -0.338 C  
BRANCH  24  25
HETATM   25  C   UNL     1     -10.718   6.813  73.121  1.00  0.00    -0.326 C  
HETATM   26  C   UNL     1      -9.298   6.786  72.609  1.00  0.00    -0.139 C  
HETATM   27  O   UNL     1      -8.895   6.129  71.663  1.00  0.00    -0.138 OA 
HETATM   28  O   UNL     1      -8.485   7.592  73.331  1.00  0.00    -0.137 OA 
ENDBRANCH  24  25
ENDBRANCH  23  24
ENDBRANCH   9  23
TORSDOF 6
ENDMDL
MODEL       48
REMARK 921   NORMALIZED FREE ENERGY PREDICTED BY IDOCK:   -5.50 KCAL/MOL
REMARK 922        TOTAL FREE ENERGY PREDICTED BY IDOCK:   -8.77 KCAL/MOL
REMARK 923 INTER-LIGAND FREE ENERGY PREDICTED BY IDOCK:   -7.74 KCAL/MOL
REMARK 924 INTRA-LIGAND FREE ENERGY PREDICTED BY IDOCK:   -1.04 KCAL/MOL
REMARK 927      BINDING AFFINITY PREDICTED BY RF-SCORE:    0.00 PKD
ROOT
HETATM    1  C   UNL     1      -8.978  10.802  64.774  1.00  0.00    -0.194 C  
HETATM    2  C   UNL     1      -9.256  11.359  63.387  1.00  0.00    -0.149 C  
HETATM    3  C   UNL     1     -10.630  12.022  63.489  1.00  0.00    -0.465 C  
HETATM    4  C   UNL     1     -10.845  12.356  64.981  1.00  0.00    -0.331 C  
HETATM    5  O   UNL     1     -11.649  11.113  63.071  1.00  0.00    -0.796 OA 
HETATM    6  H   UNL     1     -12.503  11.525  63.135  1.00  0.00     0.000 HD 
HETATM    7  C   UNL     1      -9.605  11.813  65.730  1.00  0.00    -0.253 C  
HETATM    8  C   UNL     1      -9.686   9.484  65.070  1.00  0.00    -0.138 C  
HETATM    9  C   UNL     1     -10.299   8.540  67.323  1.00  0.00    -0.372 C  
HETATM   10  C   UNL     1      -9.922  11.017  67.000  1.00  0.00    -0.223 C  
HETATM   11  C   UNL     1     -10.015   9.587  66.532  1.00  0.00    -0.329 C  
ENDROOT
BRANCH   4  12
HETATM   12  C   UNL     1     -10.981  13.841  65.218  1.00  0.00    -0.322 C  
HETATM   13  C   UNL     1      -9.919  14.632  65.435  1.00  0.00    -0.365 C  
BRANCH  13  14
HETATM   14  C   UNL     1      -9.974  16.127  65.501  1.00  0.00    -0.216 C  
HETATM   15  O   UNL     1     -11.155  16.545  64.825  1.00  0.00    -0.624 OA 
HETATM   16  C   UNL     1      -9.982  16.659  66.955  1.00  0.00    -0.271 C  
HETATM   17  H   UNL     1     -11.190  17.493  64.867  1.00  0.00     0.000 HD 
HETATM   18  C   UNL     1      -8.694  16.286  67.718  1.00  0.00    -0.182 C  
HETATM   19  C   UNL     1     -11.211  16.196  67.750  1.00  0.00    -0.199 C  
BRANCH  18  20
HETATM   20  C   UNL     1      -7.483  16.902  67.037  1.00  0.00    -0.231 C  
HETATM   21  C   UNL     1      -6.444  17.429  66.452  1.00  0.00    -0.283 C  
HETATM   22  C   UNL     1      -5.233  18.045  65.771  1.00  0.00    -0.234 C  
ENDBRANCH  18  20
ENDBRANCH  13  14
ENDBRANCH   4  12
BRANCH   9  23
HETATM   23  C   UNL     1     -10.346   7.114  66.843  1.00  0.00    -0.349 C  
BRANCH  23  24
HETATM   24  C   UNL     1     -11.233   6.227  67.722  1.00  0.00    -0.218 C  
BRANCH  24  25
HETATM   25  C   UNL     1     -11.498   6.838  69.096  1.00  0.00    -0.122 C  
HETATM   26  C   UNL     1     -10.965   5.972  70.212  1.00  0.00    -0.342 C  
HETATM   27  O   UNL     1     -10.385   4.908  70.072  1.00  0.00    -0.268 OA 
HETATM   28  O   UNL     1     -11.204   6.513  71.429  1.00  0.00    -0.259 OA 
ENDBRANCH  24  25
ENDBRANCH  23  24
ENDBRANCH   9  23
TORSDOF 6
ENDMDL
MODEL       49
REMARK 921   NORMALIZED FREE ENERGY PREDICTED BY IDOCK:   -5.48 KCAL/MOL
REMARK 922        TOTAL FREE ENERGY PREDICTED BY IDOCK:   -8.75 KCAL/MOL
REMARK 923 INTER-LIGAND FREE ENERGY PREDICTED BY IDOCK:   -7.79 KCAL/MOL
REMARK 924 INTRA-LIGAND FREE ENERGY PREDICTED BY IDOCK:   -0.96 KCAL/MOL
REMARK 927      BINDING AFFINITY PREDICTED BY RF-SCORE:    0.00 PKD
ROOT
HETATM    1  C   UNL     1     -11.194  12.435  66.497  1.00  0.00    -0.368 C  
HETATM    2  C   UNL     1     -12.243  13.509  66.261  1.00  0.00    -0.468 C  
HETATM    3  C   UNL     1     -11.780  14.711  67.086  1.00  0.00    -0.373 C  
HETATM    4  C   UNL     1     -10.258  14.544  67.285  1.00  0.00    -0.255 C  
HETATM    5  O   UNL     1     -12.413  14.704  68.367  1.00  0.00    -0.594 OA 
HETATM    6  H   UNL     1     -12.124  15.451  68.879  1.00  0.00     0.000 HD 
HETATM    7  C   UNL     1      -9.879  13.200  66.619  1.00  0.00    -0.261 C  
HETATM    8  C   UNL     1     -11.347  11.694  67.821  1.00  0.00    -0.356 C  
HETATM    9  C   UNL     1      -9.561  10.483  69.121  1.00  0.00    -0.214 C  
HETATM   10  C   UNL     1      -8.973  12.300  67.466  1.00  0.00    -0.180 C  
HETATM   11  C   UNL     1      -9.928  11.420  68.232  1.00  0.00    -0.203 C  
ENDROOT
BRANCH   4  12
HETATM   12  C   UNL     1      -9.475  15.671  66.654  1.00  0.00    -0.282 C  
HETATM   13  C   UNL     1      -9.006  16.705  67.369  1.00  0.00    -0.204 C  
BRANCH  13  14
HETATM   14  C   UNL     1      -8.080  17.754  66.835  1.00  0.00    -0.228 C  
HETATM   15  O   UNL     1      -7.825  17.449  65.469  1.00  0.00    -0.326 OA 
HETATM   16  C   UNL     1      -8.665  19.183  66.957  1.00  0.00    -0.313 C  
HETATM   17  H   UNL     1      -7.238  18.114  65.131  1.00  0.00     0.000 HD 
HETATM   18  C   UNL     1      -8.906  19.590  68.426  1.00  0.00    -0.389 C  
HETATM   19  C   UNL     1      -9.957  19.366  66.148  1.00  0.00    -0.501 C  
BRANCH  18  20
HETATM   20  C   UNL     1      -7.593  19.592  69.193  1.00  0.00    -0.305 C  
HETATM   21  C   UNL     1      -6.468  19.592  69.852  1.00  0.00    -0.331 C  
HETATM   22  C   UNL     1      -5.156  19.593  70.619  1.00  0.00    -0.224 C  
ENDBRANCH  18  20
ENDBRANCH  13  14
ENDBRANCH   4  12
BRANCH   9  23
HETATM   23  C   UNL     1     -10.530   9.587  69.844  1.00  0.00    -0.269 C  
BRANCH  23  24
HETATM   24  C   UNL     1     -10.617   8.191  69.220  1.00  0.00    -0.191 C  
BRANCH  24  25
HETATM   25  C   UNL     1      -9.617   7.991  68.083  1.00  0.00    -0.165 C  
HETATM   26  C   UNL     1     -10.168   7.099  66.997  1.00  0.00    -0.269 C  
HETATM   27  O   UNL     1     -11.273   6.583  66.992  1.00  0.00    -0.397 OA 
HETATM   28  O   UNL     1      -9.279   6.920  65.991  1.00  0.00    -0.125 OA 
ENDBRANCH  24  25
ENDBRANCH  23  24
ENDBRANCH   9  23
TORSDOF 6
ENDMDL
MODEL       50
REMARK 921   NORMALIZED FREE ENERGY PREDICTED BY IDOCK:   -5.47 KCAL/MOL
REMARK 922        TOTAL FREE ENERGY PREDICTED BY IDOCK:   -8.74 KCAL/MOL
REMARK 923 INTER-LIGAND FREE ENERGY PREDICTED BY IDOCK:   -7.77 KCAL/MOL
REMARK 924 INTRA-LIGAND FREE ENERGY PREDICTED BY IDOCK:   -0.98 KCAL/MOL
REMARK 927      BINDING AFFINITY PREDICTED BY RF-SCORE:    0.00 PKD
ROOT
HETATM    1  C   UNL     1     -11.258   9.574  71.573  1.00  0.00    -0.437 C  
HETATM    2  C   UNL     1     -12.096   8.434  72.129  1.00  0.00    -0.435 C  
HETATM    3  C   UNL     1     -11.695   7.205  71.313  1.00  0.00    -0.306 C  
HETATM    4  C   UNL     1     -10.286   7.494  70.752  1.00  0.00    -0.205 C  
HETATM    5  O   UNL     1     -12.596   7.023  70.220  1.00  0.00    -0.603 OA 
HETATM    6  H   UNL     1     -12.346   6.259  69.713  1.00  0.00     0.000 HD 
HETATM    7  C   UNL     1      -9.924   8.928  71.205  1.00  0.00    -0.358 C  
HETATM    8  C   UNL     1     -11.788  10.160  70.270  1.00  0.00    -0.342 C  
HETATM    9  C   UNL     1     -10.491  11.397  68.499  1.00  0.00    -0.223 C  
HETATM   10  C   UNL     1      -9.341   9.820  70.104  1.00  0.00    -0.261 C  
HETATM   11  C   UNL     1     -10.539  10.523  69.518  1.00  0.00    -0.278 C  
ENDROOT
BRANCH   4  12
HETATM   12  C   UNL     1      -9.257   6.516  71.266  1.00  0.00    -0.155 C  
HETATM   13  C   UNL     1      -9.462   5.771  72.364  1.00  0.00    -0.155 C  
BRANCH  13  14
HETATM   14  C   UNL     1      -8.560   4.666  72.819  1.00  0.00    -0.114 C  
HETATM   15  O   UNL     1      -8.067   5.015  74.107  1.00  0.00    -0.100 OA 
HETATM   16  C   UNL     1      -9.282   3.297  72.883  1.00  0.00    -0.119 C  
HETATM   17  H   UNL     1      -7.495   4.314  74.396  1.00  0.00     0.000 HD 
HETATM   18  C   UNL     1      -9.786   2.839  71.499  1.00  0.00    -0.195 C  
HETATM   19  C   UNL     1     -10.441   3.283  73.891  1.00  0.00    -0.256 C  
BRANCH  18  20
HETATM   20  C   UNL     1      -8.617   2.669  70.543  1.00  0.00    -0.105 C  
HETATM   21  C   UNL     1      -7.613   2.523  69.724  1.00  0.00    -0.043 C  
HETATM   22  C   UNL     1      -6.443   2.353  68.769  1.00  0.00    -0.029 C  
ENDBRANCH  18  20
ENDBRANCH  13  14
ENDBRANCH   4  12
BRANCH   9  23
HETATM   23  C   UNL     1     -11.695  12.120  67.957  1.00  0.00    -0.409 C  
BRANCH  23  24
HETATM   24  C   UNL     1     -11.682  12.219  66.429  1.00  0.00    -0.431 C  
BRANCH  24  25
HETATM   25  C   UNL     1     -12.316  13.511  65.918  1.00  0.00    -0.507 C  
HETATM   26  C   UNL     1     -12.099  13.699  64.436  1.00  0.00    -0.427 C  
HETATM   27  O   UNL     1     -11.497  12.932  63.701  1.00  0.00    -0.439 OA 
HETATM   28  O   UNL     1     -12.659  14.846  63.984  1.00  0.00    -0.832 OA 
ENDBRANCH  24  25
ENDBRANCH  23  24
ENDBRANCH   9  23
TORSDOF 6
ENDMDL
MODEL       51
REMARK 921   NORMALIZED FREE ENERGY PREDICTED BY IDOCK:   -5.46 KCAL/MOL
REMARK 922        TOTAL FREE ENERGY PREDICTED BY IDOCK:   -8.73 KCAL/MOL
REMARK 923 INTER-LIGAND FREE ENERGY PREDICTED BY IDOCK:   -7.73 KCAL/MOL
REMARK 924 INTRA-LIGAND FREE ENERGY PREDICTED BY IDOCK:   -1.00 KCAL/MOL
REMARK 927      BINDING AFFINITY PREDICTED BY RF-SCORE:    0.00 PKD
ROOT
HETATM    1  C   UNL     1     -11.403  10.710  68.537  1.00  0.00    -0.348 C  
HETATM    2  C   UNL     1     -10.206  10.754  67.601  1.00  0.00    -0.221 C  
HETATM    3  C   UNL     1      -8.982  10.623  68.508  1.00  0.00    -0.156 C  
HETATM    4  C   UNL     1      -9.468   9.935  69.801  1.00  0.00    -0.254 C  
HETATM    5  O   UNL     1      -8.473  11.916  68.839  1.00  0.00    -0.357 OA 
HETATM    6  H   UNL     1      -7.712  11.834  69.403  1.00  0.00     0.000 HD 
HETATM    7  C   UNL     1     -10.993   9.738  69.641  1.00  0.00    -0.269 C  
HETATM    8  C   UNL     1     -11.685  12.027  69.251  1.00  0.00    -0.389 C  
HETATM    9  C   UNL     1     -12.900  12.365  71.432  1.00  0.00    -0.360 C  
HETATM   10  C   UNL     1     -11.823  10.152  70.862  1.00  0.00    -0.468 C  
HETATM   11  C   UNL     1     -12.184  11.592  70.600  1.00  0.00    -0.473 C  
ENDROOT
BRANCH   4  12
HETATM   12  C   UNL     1      -8.796   8.600  70.022  1.00  0.00    -0.142 C  
HETATM   13  C   UNL     1      -9.248   7.469  69.456  1.00  0.00    -0.146 C  
BRANCH  13  14
HETATM   14  C   UNL     1      -8.528   6.156  69.495  1.00  0.00    -0.120 C  
HETATM   15  O   UNL     1      -7.847   6.075  70.742  1.00  0.00    -0.099 OA 
HETATM   16  C   UNL     1      -9.485   4.948  69.336  1.00  0.00    -0.218 C  
HETATM   17  H   UNL     1      -7.391   5.242  70.767  1.00  0.00     0.000 HD 
HETATM   18  C   UNL     1     -10.207   4.954  67.973  1.00  0.00    -0.105 C  
HETATM   19  C   UNL     1     -10.515   4.853  70.471  1.00  0.00    -0.170 C  
BRANCH  18  20
HETATM   20  C   UNL     1      -9.196   4.859  66.842  1.00  0.00    -0.124 C  
HETATM   21  C   UNL     1      -8.330   4.776  65.870  1.00  0.00    -0.116 C  
HETATM   22  C   UNL     1      -7.320   4.681  64.738  1.00  0.00    -0.071 C  
ENDBRANCH  18  20
ENDBRANCH  13  14
ENDBRANCH   4  12
BRANCH   9  23
HETATM   23  C   UNL     1     -13.285  13.789  71.132  1.00  0.00    -0.277 C  
BRANCH  23  24
HETATM   24  C   UNL     1     -14.255  14.366  72.166  1.00  0.00    -0.626 C  
BRANCH  24  25
HETATM   25  C   UNL     1     -13.811  15.728  72.694  1.00  0.00    -0.597 C  
HETATM   26  C   UNL     1     -12.747  15.602  73.757  1.00  0.00    -0.609 C  
HETATM   27  O   UNL     1     -12.272  14.556  74.169  1.00  0.00    -0.388 OA 
HETATM   28  O   UNL     1     -12.356  16.810  74.227  1.00  0.00    -0.628 OA 
ENDBRANCH  24  25
ENDBRANCH  23  24
ENDBRANCH   9  23
TORSDOF 6
ENDMDL
MODEL       52
REMARK 921   NORMALIZED FREE ENERGY PREDICTED BY IDOCK:   -5.46 KCAL/MOL
REMARK 922        TOTAL FREE ENERGY PREDICTED BY IDOCK:   -8.73 KCAL/MOL
REMARK 923 INTER-LIGAND FREE ENERGY PREDICTED BY IDOCK:   -7.46 KCAL/MOL
REMARK 924 INTRA-LIGAND FREE ENERGY PREDICTED BY IDOCK:   -1.26 KCAL/MOL
REMARK 927      BINDING AFFINITY PREDICTED BY RF-SCORE:    0.00 PKD
ROOT
HETATM    1  C   UNL     1      -9.389   9.995  68.900  1.00  0.00    -0.172 C  
HETATM    2  C   UNL     1      -8.053  10.712  68.791  1.00  0.00    -0.139 C  
HETATM    3  C   UNL     1      -7.498  10.320  67.420  1.00  0.00    -0.094 C  
HETATM    4  C   UNL     1      -8.711   9.907  66.560  1.00  0.00    -0.139 C  
HETATM    5  O   UNL     1      -6.621   9.200  67.545  1.00  0.00    -0.063 OA 
HETATM    6  H   UNL     1      -6.277   8.957  66.693  1.00  0.00     0.000 HD 
HETATM    7  C   UNL     1      -9.950  10.006  67.480  1.00  0.00    -0.232 C  
HETATM    8  C   UNL     1      -9.277   8.520  69.271  1.00  0.00    -0.153 C  
HETATM    9  C   UNL     1     -10.937   6.685  68.799  1.00  0.00    -0.322 C  
HETATM   10  C   UNL     1     -10.893   8.799  67.416  1.00  0.00    -0.087 C  
HETATM   11  C   UNL     1     -10.404   7.883  68.509  1.00  0.00    -0.229 C  
ENDROOT
BRANCH   4  12
HETATM   12  C   UNL     1      -8.889  10.805  65.358  1.00  0.00    -0.202 C  
HETATM   13  C   UNL     1      -9.925  11.651  65.243  1.00  0.00    -0.292 C  
BRANCH  13  14
HETATM   14  C   UNL     1     -10.060  12.684  64.167  1.00  0.00    -0.267 C  
HETATM   15  O   UNL     1      -9.514  12.136  62.973  1.00  0.00    -0.588 OA 
HETATM   16  C   UNL     1     -11.531  13.107  63.930  1.00  0.00    -0.451 C  
HETATM   17  H   UNL     1      -9.600  12.791  62.291  1.00  0.00     0.000 HD 
HETATM   18  C   UNL     1     -12.156  13.764  65.178  1.00  0.00    -0.416 C  
HETATM   19  C   UNL     1     -12.415  11.944  63.456  1.00  0.00    -0.609 C  
BRANCH  18  20
HETATM   20  C   UNL     1     -11.395  15.027  65.545  1.00  0.00    -0.312 C  
HETATM   21  C   UNL     1     -10.741  16.110  65.860  1.00  0.00    -0.261 C  
HETATM   22  C   UNL     1      -9.979  17.373  66.227  1.00  0.00    -0.306 C  
ENDBRANCH  18  20
ENDBRANCH  13  14
ENDBRANCH   4  12
BRANCH   9  23
HETATM   23  C   UNL     1     -10.459   5.804  69.922  1.00  0.00    -0.360 C  
BRANCH  23  24
HETATM   24  C   UNL     1     -11.104   6.162  71.264  1.00  0.00    -0.351 C  
BRANCH  24  25
HETATM   25  C   UNL     1     -12.414   6.930  71.101  1.00  0.00    -0.398 C  
HETATM   26  C   UNL     1     -12.362   8.283  71.768  1.00  0.00    -0.328 C  
HETATM   27  O   UNL     1     -11.407   8.743  72.372  1.00  0.00    -0.338 OA 
HETATM   28  O   UNL     1     -13.525   8.961  71.626  1.00  0.00    -0.356 OA 
ENDBRANCH  24  25
ENDBRANCH  23  24
ENDBRANCH   9  23
TORSDOF 6
ENDMDL
MODEL       53
REMARK 921   NORMALIZED FREE ENERGY PREDICTED BY IDOCK:   -5.45 KCAL/MOL
REMARK 922        TOTAL FREE ENERGY PREDICTED BY IDOCK:   -8.70 KCAL/MOL
REMARK 923 INTER-LIGAND FREE ENERGY PREDICTED BY IDOCK:   -7.71 KCAL/MOL
REMARK 924 INTRA-LIGAND FREE ENERGY PREDICTED BY IDOCK:   -0.99 KCAL/MOL
REMARK 927      BINDING AFFINITY PREDICTED BY RF-SCORE:    0.00 PKD
ROOT
HETATM    1  C   UNL     1     -11.447  12.544  66.111  1.00  0.00    -0.426 C  
HETATM    2  C   UNL     1     -11.015  11.491  65.103  1.00  0.00    -0.298 C  
HETATM    3  C   UNL     1      -9.920  10.688  65.805  1.00  0.00    -0.257 C  
HETATM    4  C   UNL     1     -10.144  10.876  67.321  1.00  0.00    -0.225 C  
HETATM    5  O   UNL     1      -8.633  11.205  65.465  1.00  0.00    -0.310 OA 
HETATM    6  H   UNL     1      -7.953  10.705  65.902  1.00  0.00     0.000 HD 
HETATM    7  C   UNL     1     -11.338  11.848  67.465  1.00  0.00    -0.381 C  
HETATM    8  C   UNL     1     -10.508  13.742  66.203  1.00  0.00    -0.297 C  
HETATM    9  C   UNL     1     -10.201  15.309  68.151  1.00  0.00    -0.230 C  
HETATM   10  C   UNL     1     -11.123  12.979  68.477  1.00  0.00    -0.298 C  
HETATM   11  C   UNL     1     -10.559  14.112  67.658  1.00  0.00    -0.253 C  
ENDROOT
BRANCH   4  12
HETATM   12  C   UNL     1     -10.455   9.571  68.016  1.00  0.00    -0.279 C  
HETATM   13  C   UNL     1      -9.534   8.900  68.725  1.00  0.00    -0.144 C  
BRANCH  13  14
HETATM   14  C   UNL     1      -9.826   7.702  69.575  1.00  0.00    -0.178 C  
HETATM   15  O   UNL     1      -9.149   6.590  69.000  1.00  0.00    -0.132 OA 
HETATM   16  C   UNL     1      -9.376   7.892  71.045  1.00  0.00    -0.167 C  
HETATM   17  H   UNL     1      -9.333   5.831  69.540  1.00  0.00     0.000 HD 
HETATM   18  C   UNL     1     -10.124   9.050  71.737  1.00  0.00    -0.373 C  
HETATM   19  C   UNL     1      -7.861   8.097  71.181  1.00  0.00    -0.096 C  
BRANCH  18  20
HETATM   20  C   UNL     1     -11.617   8.765  71.773  1.00  0.00    -0.416 C  
HETATM   21  C   UNL     1     -12.898   8.521  71.805  1.00  0.00    -0.380 C  
HETATM   22  C   UNL     1     -14.390   8.238  71.841  1.00  0.00    -0.564 C  
ENDBRANCH  18  20
ENDBRANCH  13  14
ENDBRANCH   4  12
BRANCH   9  23
HETATM   23  C   UNL     1      -9.678  16.441  67.309  1.00  0.00    -0.239 C  
BRANCH  23  24
HETATM   24  C   UNL     1      -9.841  17.804  67.989  1.00  0.00    -0.317 C  
BRANCH  24  25
HETATM   25  C   UNL     1     -10.755  18.745  67.207  1.00  0.00    -0.490 C  
HETATM   26  C   UNL     1      -9.986  19.586  66.218  1.00  0.00    -0.450 C  
HETATM   27  O   UNL     1      -8.780  19.546  66.034  1.00  0.00    -0.387 OA 
HETATM   28  O   UNL     1     -10.796  20.423  65.528  1.00  0.00    -0.128 OA 
ENDBRANCH  24  25
ENDBRANCH  23  24
ENDBRANCH   9  23
TORSDOF 6
ENDMDL
MODEL       54
REMARK 921   NORMALIZED FREE ENERGY PREDICTED BY IDOCK:   -5.44 KCAL/MOL
REMARK 922        TOTAL FREE ENERGY PREDICTED BY IDOCK:   -8.69 KCAL/MOL
REMARK 923 INTER-LIGAND FREE ENERGY PREDICTED BY IDOCK:   -7.51 KCAL/MOL
REMARK 924 INTRA-LIGAND FREE ENERGY PREDICTED BY IDOCK:   -1.18 KCAL/MOL
REMARK 927      BINDING AFFINITY PREDICTED BY RF-SCORE:    0.00 PKD
ROOT
HETATM    1  C   UNL     1     -10.792   9.397  68.450  1.00  0.00    -0.156 C  
HETATM    2  C   UNL     1     -10.643  10.799  69.020  1.00  0.00    -0.250 C  
HETATM    3  C   UNL     1      -9.339  11.336  68.429  1.00  0.00    -0.181 C  
HETATM    4  C   UNL     1      -9.083  10.534  67.135  1.00  0.00    -0.154 C  
HETATM    5  O   UNL     1      -8.256  11.107  69.332  1.00  0.00    -0.376 OA 
HETATM    6  H   UNL     1      -7.446  11.441  68.964  1.00  0.00     0.000 HD 
HETATM    7  C   UNL     1     -10.222   9.493  67.037  1.00  0.00    -0.321 C  
HETATM    8  C   UNL     1      -9.940   8.345  69.151  1.00  0.00    -0.197 C  
HETATM    9  C   UNL     1      -9.121   6.155  68.214  1.00  0.00    -0.112 C  
HETATM   10  C   UNL     1      -9.762   8.071  66.697  1.00  0.00    -0.313 C  
HETATM   11  C   UNL     1      -9.549   7.415  68.037  1.00  0.00    -0.152 C  
ENDROOT
BRANCH   4  12
HETATM   12  C   UNL     1      -9.085  11.417  65.909  1.00  0.00    -0.209 C  
HETATM   13  C   UNL     1     -10.171  11.565  65.135  1.00  0.00    -0.322 C  
BRANCH  13  14
HETATM   14  C   UNL     1     -10.287  12.555  64.017  1.00  0.00    -0.404 C  
HETATM   15  O   UNL     1      -9.851  11.911  62.825  1.00  0.00    -0.472 OA 
HETATM   16  C   UNL     1     -11.732  13.081  63.834  1.00  0.00    -0.531 C  
HETATM   17  H   UNL     1      -9.924  12.538  62.116  1.00  0.00     0.000 HD 
HETATM   18  C   UNL     1     -12.236  13.842  65.078  1.00  0.00    -0.444 C  
HETATM   19  C   UNL     1     -12.726  11.971  63.466  1.00  0.00    -0.567 C  
BRANCH  18  20
HETATM   20  C   UNL     1     -11.361  15.058  65.341  1.00  0.00    -0.328 C  
HETATM   21  C   UNL     1     -10.612  16.100  65.567  1.00  0.00    -0.394 C  
HETATM   22  C   UNL     1      -9.737  17.315  65.831  1.00  0.00    -0.111 C  
ENDBRANCH  18  20
ENDBRANCH  13  14
ENDBRANCH   4  12
BRANCH   9  23
HETATM   23  C   UNL     1      -8.955   5.506  69.561  1.00  0.00    -0.129 C  
BRANCH  23  24
HETATM   24  C   UNL     1     -10.271   4.945  70.110  1.00  0.00    -0.310 C  
BRANCH  24  25
HETATM   25  C   UNL     1     -10.208   4.655  71.608  1.00  0.00    -0.233 C  
HETATM   26  C   UNL     1     -11.203   5.481  72.385  1.00  0.00    -0.247 C  
HETATM   27  O   UNL     1     -11.982   6.291  71.910  1.00  0.00    -0.328 OA 
HETATM   28  O   UNL     1     -11.144   5.225  73.713  1.00  0.00    -0.273 OA 
ENDBRANCH  24  25
ENDBRANCH  23  24
ENDBRANCH   9  23
TORSDOF 6
ENDMDL
MODEL       55
REMARK 921   NORMALIZED FREE ENERGY PREDICTED BY IDOCK:   -5.41 KCAL/MOL
REMARK 922        TOTAL FREE ENERGY PREDICTED BY IDOCK:   -8.66 KCAL/MOL
REMARK 923 INTER-LIGAND FREE ENERGY PREDICTED BY IDOCK:   -7.49 KCAL/MOL
REMARK 924 INTRA-LIGAND FREE ENERGY PREDICTED BY IDOCK:   -1.17 KCAL/MOL
REMARK 927      BINDING AFFINITY PREDICTED BY RF-SCORE:    0.00 PKD
ROOT
HETATM    1  C   UNL     1     -11.905  13.646  66.571  1.00  0.00    -0.441 C  
HETATM    2  C   UNL     1     -11.804  14.514  67.815  1.00  0.00    -0.390 C  
HETATM    3  C   UNL     1     -10.479  15.265  67.675  1.00  0.00    -0.263 C  
HETATM    4  C   UNL     1     -10.147  15.287  66.168  1.00  0.00    -0.315 C  
HETATM    5  O   UNL     1      -9.441  14.567  68.363  1.00  0.00    -0.197 OA 
HETATM    6  H   UNL     1      -8.618  15.034  68.276  1.00  0.00     0.000 HD 
HETATM    7  C   UNL     1     -11.265  14.482  65.465  1.00  0.00    -0.335 C  
HETATM    8  C   UNL     1     -11.075  12.369  66.633  1.00  0.00    -0.336 C  
HETATM    9  C   UNL     1     -10.179  11.022  64.702  1.00  0.00    -0.392 C  
HETATM   10  C   UNL     1     -10.769  13.463  64.433  1.00  0.00    -0.423 C  
HETATM   11  C   UNL     1     -10.615  12.183  65.214  1.00  0.00    -0.319 C  
ENDROOT
BRANCH   4  12
HETATM   12  C   UNL     1     -10.099  16.693  65.616  1.00  0.00    -0.244 C  
HETATM   13  C   UNL     1     -10.266  17.773  66.394  1.00  0.00    -0.365 C  
BRANCH  13  14
HETATM   14  C   UNL     1     -10.056  19.185  65.941  1.00  0.00    -0.267 C  
HETATM   15  O   UNL     1     -11.332  19.730  65.623  1.00  0.00    -0.069 OA 
HETATM   16  C   UNL     1      -9.361  20.058  67.015  1.00  0.00    -0.510 C  
HETATM   17  H   UNL     1     -11.199  20.625  65.335  1.00  0.00     0.000 HD 
HETATM   18  C   UNL     1      -7.946  19.547  67.354  1.00  0.00    -0.305 C  
HETATM   19  C   UNL     1     -10.190  20.190  68.300  1.00  0.00    -0.464 C  
BRANCH  18  20
HETATM   20  C   UNL     1      -7.060  19.591  66.120  1.00  0.00    -0.271 C  
HETATM   21  C   UNL     1      -6.300  19.627  65.061  1.00  0.00    -0.315 C  
HETATM   22  C   UNL     1      -5.414  19.669  63.827  1.00  0.00    -0.307 C  
ENDBRANCH  18  20
ENDBRANCH  13  14
ENDBRANCH   4  12
BRANCH   9  23
HETATM   23  C   UNL     1     -10.073   9.744  65.490  1.00  0.00    -0.242 C  
BRANCH  23  24
HETATM   24  C   UNL     1      -8.787   8.970  65.185  1.00  0.00    -0.224 C  
BRANCH  24  25
HETATM   25  C   UNL     1      -7.539   9.665  65.726  1.00  0.00    -0.103 C  
HETATM   26  C   UNL     1      -6.655  10.182  64.618  1.00  0.00    -0.125 C  
HETATM   27  O   UNL     1      -6.877  10.078  63.423  1.00  0.00    -0.126 OA 
HETATM   28  O   UNL     1      -5.548  10.794  65.099  1.00  0.00    -0.142 OA 
ENDBRANCH  24  25
ENDBRANCH  23  24
ENDBRANCH   9  23
TORSDOF 6
ENDMDL
MODEL       56
REMARK 921   NORMALIZED FREE ENERGY PREDICTED BY IDOCK:   -5.40 KCAL/MOL
REMARK 922        TOTAL FREE ENERGY PREDICTED BY IDOCK:   -8.64 KCAL/MOL
REMARK 923 INTER-LIGAND FREE ENERGY PREDICTED BY IDOCK:   -7.17 KCAL/MOL
REMARK 924 INTRA-LIGAND FREE ENERGY PREDICTED BY IDOCK:   -1.47 KCAL/MOL
REMARK 927      BINDING AFFINITY PREDICTED BY RF-SCORE:    0.00 PKD
ROOT
HETATM    1  C   UNL     1     -10.761  10.927  67.026  1.00  0.00    -0.323 C  
HETATM    2  C   UNL     1     -10.350   9.613  66.379  1.00  0.00    -0.246 C  
HETATM    3  C   UNL     1      -9.014   9.248  67.027  1.00  0.00    -0.126 C  
HETATM    4  C   UNL     1      -8.971   9.981  68.385  1.00  0.00    -0.121 C  
HETATM    5  O   UNL     1      -7.931   9.714  66.220  1.00  0.00    -0.107 OA 
HETATM    6  H   UNL     1      -7.101   9.487  66.623  1.00  0.00     0.000 HD 
HETATM    7  C   UNL     1     -10.270  10.818  68.467  1.00  0.00    -0.192 C  
HETATM    8  C   UNL     1     -10.053  12.151  66.456  1.00  0.00    -0.229 C  
HETATM    9  C   UNL     1      -9.662  14.367  67.588  1.00  0.00    -0.219 C  
HETATM   10  C   UNL     1     -10.070  12.265  68.929  1.00  0.00     0.002 C  
HETATM   11  C   UNL     1      -9.888  13.045  67.652  1.00  0.00    -0.212 C  
ENDROOT
BRANCH   4  12
HETATM   12  C   UNL     1      -8.902   9.021  69.548  1.00  0.00    -0.146 C  
HETATM   13  C   UNL     1      -9.797   9.042  70.548  1.00  0.00    -0.263 C  
BRANCH  13  14
HETATM   14  C   UNL     1      -9.884   8.010  71.630  1.00  0.00    -0.170 C  
HETATM   15  O   UNL     1      -9.567   8.649  72.862  1.00  0.00    -0.183 OA 
HETATM   16  C   UNL     1     -11.286   7.357  71.719  1.00  0.00    -0.277 C  
HETATM   17  H   UNL     1      -9.623   7.995  73.548  1.00  0.00     0.000 HD 
HETATM   18  C   UNL     1     -11.656   6.597  70.429  1.00  0.00    -0.457 C  
HETATM   19  C   UNL     1     -12.390   8.366  72.065  1.00  0.00    -0.413 C  
BRANCH  18  20
HETATM   20  C   UNL     1     -10.667   5.470  70.180  1.00  0.00    -0.348 C  
HETATM   21  C   UNL     1      -9.820   4.502  69.966  1.00  0.00    -0.296 C  
HETATM   22  C   UNL     1      -8.831   3.374  69.716  1.00  0.00    -0.153 C  
ENDBRANCH  18  20
ENDBRANCH  13  14
ENDBRANCH   4  12
BRANCH   9  23
HETATM   23  C   UNL     1      -9.524  15.133  66.300  1.00  0.00    -0.341 C  
BRANCH  23  24
HETATM   24  C   UNL     1     -10.834  15.798  65.869  1.00  0.00    -0.272 C  
BRANCH  24  25
HETATM   25  C   UNL     1     -11.265  15.390  64.461  1.00  0.00    -0.310 C  
HETATM   26  C   UNL     1     -12.347  14.338  64.485  1.00  0.00    -0.410 C  
HETATM   27  O   UNL     1     -12.843  13.849  65.487  1.00  0.00    -0.609 OA 
HETATM   28  O   UNL     1     -12.726  13.975  63.237  1.00  0.00    -0.750 OA 
ENDBRANCH  24  25
ENDBRANCH  23  24
ENDBRANCH   9  23
TORSDOF 6
ENDMDL
MODEL       57
REMARK 921   NORMALIZED FREE ENERGY PREDICTED BY IDOCK:   -5.34 KCAL/MOL
REMARK 922        TOTAL FREE ENERGY PREDICTED BY IDOCK:   -8.57 KCAL/MOL
REMARK 923 INTER-LIGAND FREE ENERGY PREDICTED BY IDOCK:   -7.17 KCAL/MOL
REMARK 924 INTRA-LIGAND FREE ENERGY PREDICTED BY IDOCK:   -1.39 KCAL/MOL
REMARK 927      BINDING AFFINITY PREDICTED BY RF-SCORE:    0.00 PKD
ROOT
HETATM    1  C   UNL     1     -10.925  15.678  68.143  1.00  0.00    -0.314 C  
HETATM    2  C   UNL     1     -11.559  14.808  67.070  1.00  0.00    -0.352 C  
HETATM    3  C   UNL     1     -10.387  14.240  66.268  1.00  0.00    -0.294 C  
HETATM    4  C   UNL     1      -9.157  14.290  67.199  1.00  0.00    -0.237 C  
HETATM    5  O   UNL     1     -10.131  15.055  65.124  1.00  0.00    -0.361 OA 
HETATM    6  H   UNL     1      -9.402  14.702  64.627  1.00  0.00     0.000 HD 
HETATM    7  C   UNL     1      -9.633  14.954  68.512  1.00  0.00    -0.215 C  
HETATM    8  C   UNL     1     -10.484  17.052  67.651  1.00  0.00    -0.343 C  
HETATM    9  C   UNL     1      -8.707  18.542  68.637  1.00  0.00    -0.325 C  
HETATM   10  C   UNL     1      -8.704  16.049  69.049  1.00  0.00    -0.245 C  
HETATM   11  C   UNL     1      -9.238  17.323  68.446  1.00  0.00    -0.268 C  
ENDROOT
BRANCH   4  12
HETATM   12  C   UNL     1      -8.605  12.914  67.488  1.00  0.00    -0.188 C  
HETATM   13  C   UNL     1      -8.977  12.205  68.566  1.00  0.00    -0.082 C  
BRANCH  13  14
HETATM   14  C   UNL     1      -8.603  10.776  68.811  1.00  0.00    -0.156 C  
HETATM   15  O   UNL     1      -7.871  10.726  70.030  1.00  0.00    -0.356 OA 
HETATM   16  C   UNL     1      -9.836   9.843  68.896  1.00  0.00    -0.179 C  
HETATM   17  H   UNL     1      -7.634   9.820  70.186  1.00  0.00     0.000 HD 
HETATM   18  C   UNL     1     -10.635   9.813  67.576  1.00  0.00    -0.335 C  
HETATM   19  C   UNL     1     -10.770  10.198  70.062  1.00  0.00    -0.356 C  
BRANCH  18  20
HETATM   20  C   UNL     1      -9.766   9.282  66.448  1.00  0.00    -0.325 C  
HETATM   21  C   UNL     1      -9.022   8.826  65.479  1.00  0.00    -0.231 C  
HETATM   22  C   UNL     1      -8.155   8.295  64.350  1.00  0.00    -0.145 C  
ENDBRANCH  18  20
ENDBRANCH  13  14
ENDBRANCH   4  12
BRANCH   9  23
HETATM   23  C   UNL     1      -9.282  19.807  68.059  1.00  0.00    -0.425 C  
BRANCH  23  24
HETATM   24  C   UNL     1      -8.275  20.568  67.192  1.00  0.00    -0.353 C  
BRANCH  24  25
HETATM   25  C   UNL     1      -8.041  19.899  65.839  1.00  0.00    -0.262 C  
HETATM   26  C   UNL     1      -6.625  19.396  65.696  1.00  0.00    -0.249 C  
HETATM   27  O   UNL     1      -5.746  19.492  66.537  1.00  0.00    -0.166 OA 
HETATM   28  O   UNL     1      -6.417  18.806  64.495  1.00  0.00    -0.415 OA 
ENDBRANCH  24  25
ENDBRANCH  23  24
ENDBRANCH   9  23
TORSDOF 6
ENDMDL
MODEL       58
REMARK 921   NORMALIZED FREE ENERGY PREDICTED BY IDOCK:   -5.28 KCAL/MOL
REMARK 922        TOTAL FREE ENERGY PREDICTED BY IDOCK:   -8.49 KCAL/MOL
REMARK 923 INTER-LIGAND FREE ENERGY PREDICTED BY IDOCK:   -7.26 KCAL/MOL
REMARK 924 INTRA-LIGAND FREE ENERGY PREDICTED BY IDOCK:   -1.23 KCAL/MOL
REMARK 927      BINDING AFFINITY PREDICTED BY RF-SCORE:    0.00 PKD
ROOT
HETATM    1  C   UNL     1      -8.626   5.835  67.962  1.00  0.00    -0.105 C  
HETATM    2  C   UNL     1      -9.530   5.739  66.743  1.00  0.00    -0.154 C  
HETATM    3  C   UNL     1     -10.396   6.998  66.785  1.00  0.00    -0.221 C  
HETATM    4  C   UNL     1      -9.618   8.036  67.622  1.00  0.00    -0.185 C  
HETATM    5  O   UNL     1     -11.637   6.722  67.436  1.00  0.00    -0.704 OA 
HETATM    6  H   UNL     1     -12.175   7.505  67.462  1.00  0.00     0.000 HD 
HETATM    7  C   UNL     1      -8.333   7.326  68.108  1.00  0.00    -0.124 C  
HETATM    8  C   UNL     1      -9.298   5.433  69.270  1.00  0.00    -0.159 C  
HETATM    9  C   UNL     1      -8.669   6.142  71.604  1.00  0.00    -0.135 C  
HETATM   10  C   UNL     1      -8.014   7.525  69.594  1.00  0.00    -0.125 C  
HETATM   11  C   UNL     1      -8.677   6.357  70.279  1.00  0.00    -0.143 C  
ENDROOT
BRANCH   4  12
HETATM   12  C   UNL     1      -9.257   9.262  66.816  1.00  0.00    -0.185 C  
HETATM   13  C   UNL     1      -9.962  10.401  66.890  1.00  0.00    -0.254 C  
BRANCH  13  14
HETATM   14  C   UNL     1      -9.553  11.694  66.255  1.00  0.00    -0.221 C  
HETATM   15  O   UNL     1      -8.280  11.493  65.651  1.00  0.00    -0.368 OA 
HETATM   16  C   UNL     1     -10.569  12.184  65.194  1.00  0.00    -0.324 C  
HETATM   17  H   UNL     1      -8.021  12.313  65.248  1.00  0.00     0.000 HD 
HETATM   18  C   UNL     1     -11.955  12.475  65.807  1.00  0.00    -0.482 C  
HETATM   19  C   UNL     1     -10.715  11.209  64.016  1.00  0.00    -0.409 C  
BRANCH  18  20
HETATM   20  C   UNL     1     -11.848  13.578  66.847  1.00  0.00    -0.452 C  
HETATM   21  C   UNL     1     -11.755  14.524  67.741  1.00  0.00    -0.403 C  
HETATM   22  C   UNL     1     -11.647  15.626  68.781  1.00  0.00    -0.393 C  
ENDBRANCH  18  20
ENDBRANCH  13  14
ENDBRANCH   4  12
BRANCH   9  23
HETATM   23  C   UNL     1      -9.302   4.946  72.264  1.00  0.00    -0.165 C  
BRANCH  23  24
HETATM   24  C   UNL     1     -10.805   5.129  72.495  1.00  0.00    -0.282 C  
BRANCH  24  25
HETATM   25  C   UNL     1     -11.179   6.574  72.817  1.00  0.00    -0.259 C  
HETATM   26  C   UNL     1     -11.934   7.228  71.686  1.00  0.00    -0.308 C  
HETATM   27  O   UNL     1     -12.230   6.699  70.627  1.00  0.00    -0.377 OA 
HETATM   28  O   UNL     1     -12.262   8.511  71.972  1.00  0.00    -0.320 OA 
ENDBRANCH  24  25
ENDBRANCH  23  24
ENDBRANCH   9  23
TORSDOF 6
ENDMDL
MODEL       59
REMARK 921   NORMALIZED FREE ENERGY PREDICTED BY IDOCK:   -5.28 KCAL/MOL
REMARK 922        TOTAL FREE ENERGY PREDICTED BY IDOCK:   -8.49 KCAL/MOL
REMARK 923 INTER-LIGAND FREE ENERGY PREDICTED BY IDOCK:   -7.66 KCAL/MOL
REMARK 924 INTRA-LIGAND FREE ENERGY PREDICTED BY IDOCK:   -0.83 KCAL/MOL
REMARK 927      BINDING AFFINITY PREDICTED BY RF-SCORE:    0.00 PKD
ROOT
HETATM    1  C   UNL     1     -10.004  10.700  65.161  1.00  0.00    -0.366 C  
HETATM    2  C   UNL     1      -9.123   9.632  64.532  1.00  0.00    -0.287 C  
HETATM    3  C   UNL     1      -8.560   8.832  65.709  1.00  0.00    -0.164 C  
HETATM    4  C   UNL     1      -9.537   9.042  66.886  1.00  0.00    -0.242 C  
HETATM    5  O   UNL     1      -7.278   9.338  66.081  1.00  0.00    -0.089 OA 
HETATM    6  H   UNL     1      -6.929   8.841  66.812  1.00  0.00     0.000 HD 
HETATM    7  C   UNL     1     -10.621  10.022  66.381  1.00  0.00    -0.138 C  
HETATM    8  C   UNL     1      -9.235  11.894  65.716  1.00  0.00    -0.110 C  
HETATM    9  C   UNL     1      -9.966  13.486  67.527  1.00  0.00    -0.230 C  
HETATM   10  C   UNL     1     -10.950  11.166  67.347  1.00  0.00    -0.347 C  
HETATM   11  C   UNL     1     -10.030  12.284  66.930  1.00  0.00    -0.223 C  
ENDROOT
BRANCH   4  12
HETATM   12  C   UNL     1     -10.178   7.748  67.330  1.00  0.00    -0.320 C  
HETATM   13  C   UNL     1      -9.889   6.571  66.754  1.00  0.00    -0.213 C  
BRANCH  13  14
HETATM   14  C   UNL     1     -10.356   5.241  67.263  1.00  0.00    -0.199 C  
HETATM   15  O   UNL     1     -10.934   4.540  66.168  1.00  0.00    -0.507 OA 
HETATM   16  C   UNL     1      -9.208   4.404  67.879  1.00  0.00    -0.170 C  
HETATM   17  H   UNL     1     -11.230   3.697  66.490  1.00  0.00     0.000 HD 
HETATM   18  C   UNL     1      -8.582   5.091  69.111  1.00  0.00    -0.098 C  
HETATM   19  C   UNL     1      -8.111   4.060  66.862  1.00  0.00    -0.097 C  
BRANCH  18  20
HETATM   20  C   UNL     1      -9.626   5.267  70.202  1.00  0.00    -0.241 C  
HETATM   21  C   UNL     1     -10.522   5.416  71.138  1.00  0.00    -0.295 C  
HETATM   22  C   UNL     1     -11.565   5.590  72.229  1.00  0.00    -0.176 C  
ENDBRANCH  18  20
ENDBRANCH  13  14
ENDBRANCH   4  12
BRANCH   9  23
HETATM   23  C   UNL     1      -9.069  14.604  67.068  1.00  0.00    -0.254 C  
BRANCH  23  24
HETATM   24  C   UNL     1      -9.744  15.513  66.036  1.00  0.00    -0.378 C  
BRANCH  24  25
HETATM   25  C   UNL     1     -10.986  14.877  65.416  1.00  0.00    -0.371 C  
HETATM   26  C   UNL     1     -11.679  15.813  64.455  1.00  0.00    -0.201 C  
HETATM   27  O   UNL     1     -11.320  16.946  64.180  1.00  0.00    -1.208 OA 
HETATM   28  O   UNL     1     -12.782  15.249  63.908  1.00  0.00    -0.732 OA 
ENDBRANCH  24  25
ENDBRANCH  23  24
ENDBRANCH   9  23
TORSDOF 6
ENDMDL
MODEL       60
REMARK 921   NORMALIZED FREE ENERGY PREDICTED BY IDOCK:   -5.27 KCAL/MOL
REMARK 922        TOTAL FREE ENERGY PREDICTED BY IDOCK:   -8.46 KCAL/MOL
REMARK 923 INTER-LIGAND FREE ENERGY PREDICTED BY IDOCK:   -7.52 KCAL/MOL
REMARK 924 INTRA-LIGAND FREE ENERGY PREDICTED BY IDOCK:   -0.95 KCAL/MOL
REMARK 927      BINDING AFFINITY PREDICTED BY RF-SCORE:    0.00 PKD
ROOT
HETATM    1  C   UNL     1     -10.267  12.695  64.781  1.00  0.00    -0.307 C  
HETATM    2  C   UNL     1     -11.287  13.519  64.010  1.00  0.00    -0.306 C  
HETATM    3  C   UNL     1     -12.087  14.268  65.077  1.00  0.00    -0.425 C  
HETATM    4  C   UNL     1     -11.186  14.341  66.328  1.00  0.00    -0.337 C  
HETATM    5  O   UNL     1     -13.271  13.542  65.406  1.00  0.00    -0.624 OA 
HETATM    6  H   UNL     1     -13.768  14.007  66.069  1.00  0.00     0.000 HD 
HETATM    7  C   UNL     1      -9.893  13.566  65.978  1.00  0.00    -0.277 C  
HETATM    8  C   UNL     1     -10.829  11.412  65.383  1.00  0.00    -0.292 C  
HETATM    9  C   UNL     1      -9.949  10.129  67.364  1.00  0.00    -0.238 C  
HETATM   10  C   UNL     1      -9.426  12.581  67.055  1.00  0.00    -0.217 C  
HETATM   11  C   UNL     1     -10.073  11.274  66.675  1.00  0.00    -0.251 C  
ENDROOT
BRANCH   4  12
HETATM   12  C   UNL     1     -10.847  15.764  66.703  1.00  0.00    -0.241 C  
HETATM   13  C   UNL     1      -9.788  16.408  66.187  1.00  0.00    -0.362 C  
BRANCH  13  14
HETATM   14  C   UNL     1      -9.504  17.866  66.384  1.00  0.00    -0.267 C  
HETATM   15  O   UNL     1     -10.740  18.510  66.672  1.00  0.00    -0.362 OA 
HETATM   16  C   UNL     1      -8.493  18.125  67.529  1.00  0.00    -0.248 C  
HETATM   17  H   UNL     1     -10.559  19.434  66.797  1.00  0.00     0.000 HD 
HETATM   18  C   UNL     1      -7.114  17.498  67.240  1.00  0.00    -0.190 C  
HETATM   19  C   UNL     1      -9.007  17.649  68.895  1.00  0.00    -0.132 C  
BRANCH  18  20
HETATM   20  C   UNL     1      -6.512  18.105  65.984  1.00  0.00    -0.287 C  
HETATM   21  C   UNL     1      -5.995  18.624  64.905  1.00  0.00    -0.254 C  
HETATM   22  C   UNL     1      -5.394  19.230  63.647  1.00  0.00    -0.332 C  
ENDBRANCH  18  20
ENDBRANCH  13  14
ENDBRANCH   4  12
BRANCH   9  23
HETATM   23  C   UNL     1     -10.570   8.824  66.943  1.00  0.00    -0.263 C  
BRANCH  23  24
HETATM   24  C   UNL     1      -9.839   7.610  67.524  1.00  0.00    -0.214 C  
BRANCH  24  25
HETATM   25  C   UNL     1     -10.772   6.667  68.280  1.00  0.00    -0.317 C  
HETATM   26  C   UNL     1     -10.966   7.095  69.715  1.00  0.00    -0.231 C  
HETATM   27  O   UNL     1     -10.457   8.071  70.242  1.00  0.00    -0.213 OA 
HETATM   28  O   UNL     1     -11.791   6.256  70.385  1.00  0.00    -0.329 OA 
ENDBRANCH  24  25
ENDBRANCH  23  24
ENDBRANCH   9  23
TORSDOF 6
ENDMDL
MODEL       61
REMARK 921   NORMALIZED FREE ENERGY PREDICTED BY IDOCK:   -5.24 KCAL/MOL
REMARK 922        TOTAL FREE ENERGY PREDICTED BY IDOCK:   -8.43 KCAL/MOL
REMARK 923 INTER-LIGAND FREE ENERGY PREDICTED BY IDOCK:   -7.28 KCAL/MOL
REMARK 924 INTRA-LIGAND FREE ENERGY PREDICTED BY IDOCK:   -1.15 KCAL/MOL
REMARK 927      BINDING AFFINITY PREDICTED BY RF-SCORE:    0.00 PKD
ROOT
HETATM    1  C   UNL     1      -9.482  11.684  64.961  1.00  0.00    -0.128 C  
HETATM    2  C   UNL     1     -10.381  12.608  64.155  1.00  0.00    -0.412 C  
HETATM    3  C   UNL     1     -11.471  13.058  65.128  1.00  0.00    -0.306 C  
HETATM    4  C   UNL     1     -10.885  12.894  66.547  1.00  0.00    -0.290 C  
HETATM    5  O   UNL     1     -12.619  12.219  65.006  1.00  0.00    -0.575 OA 
HETATM    6  H   UNL     1     -13.296  12.499  65.611  1.00  0.00     0.000 HD 
HETATM    7  C   UNL     1      -9.475  12.282  66.366  1.00  0.00    -0.240 C  
HETATM    8  C   UNL     1     -10.032  10.273  65.133  1.00  0.00    -0.395 C  
HETATM    9  C   UNL     1      -9.492   8.623  66.959  1.00  0.00    -0.221 C  
HETATM   10  C   UNL     1      -9.164  11.106  67.297  1.00  0.00    -0.166 C  
HETATM   11  C   UNL     1      -9.574   9.887  66.511  1.00  0.00    -0.243 C  
ENDROOT
BRANCH   4  12
HETATM   12  C   UNL     1     -10.784  14.212  67.278  1.00  0.00    -0.279 C  
HETATM   13  C   UNL     1     -10.222  14.316  68.492  1.00  0.00    -0.245 C  
BRANCH  13  14
HETATM   14  C   UNL     1      -9.938  15.613  69.186  1.00  0.00    -0.244 C  
HETATM   15  O   UNL     1     -10.193  15.424  70.573  1.00  0.00    -0.434 OA 
HETATM   16  C   UNL     1      -8.480  16.092  68.976  1.00  0.00    -0.251 C  
HETATM   17  H   UNL     1     -10.012  16.247  71.012  1.00  0.00     0.000 HD 
HETATM   18  C   UNL     1      -8.166  16.370  67.492  1.00  0.00    -0.167 C  
HETATM   19  C   UNL     1      -7.445  15.116  69.553  1.00  0.00    -0.213 C  
BRANCH  18  20
HETATM   20  C   UNL     1      -9.066  17.475  66.962  1.00  0.00    -0.255 C  
HETATM   21  C   UNL     1      -9.837  18.423  66.507  1.00  0.00    -0.368 C  
HETATM   22  C   UNL     1     -10.736  19.528  65.977  1.00  0.00    -0.529 C  
ENDBRANCH  18  20
ENDBRANCH  13  14
ENDBRANCH   4  12
BRANCH   9  23
HETATM   23  C   UNL     1      -9.868   7.417  66.142  1.00  0.00     0.087 C  
BRANCH  23  24
HETATM   24  C   UNL     1     -10.660   6.384  66.948  1.00  0.00    -0.379 C  
BRANCH  24  25
HETATM   25  C   UNL     1     -11.156   6.935  68.283  1.00  0.00    -0.152 C  
HETATM   26  C   UNL     1     -10.872   5.989  69.425  1.00  0.00    -0.363 C  
HETATM   27  O   UNL     1     -10.314   4.908  69.333  1.00  0.00    -0.207 OA 
HETATM   28  O   UNL     1     -11.316   6.478  70.608  1.00  0.00    -0.304 OA 
ENDBRANCH  24  25
ENDBRANCH  23  24
ENDBRANCH   9  23
TORSDOF 6
ENDMDL
MODEL       62
REMARK 921   NORMALIZED FREE ENERGY PREDICTED BY IDOCK:   -5.24 KCAL/MOL
REMARK 922        TOTAL FREE ENERGY PREDICTED BY IDOCK:   -8.42 KCAL/MOL
REMARK 923 INTER-LIGAND FREE ENERGY PREDICTED BY IDOCK:   -7.12 KCAL/MOL
REMARK 924 INTRA-LIGAND FREE ENERGY PREDICTED BY IDOCK:   -1.30 KCAL/MOL
REMARK 927      BINDING AFFINITY PREDICTED BY RF-SCORE:    0.00 PKD
ROOT
HETATM    1  C   UNL     1     -10.839  12.734  67.168  1.00  0.00    -0.282 C  
HETATM    2  C   UNL     1     -11.934  13.789  67.137  1.00  0.00    -0.442 C  
HETATM    3  C   UNL     1     -11.784  14.561  68.449  1.00  0.00    -0.333 C  
HETATM    4  C   UNL     1     -10.324  14.361  68.910  1.00  0.00    -0.233 C  
HETATM    5  O   UNL     1     -12.657  14.022  69.442  1.00  0.00    -0.449 OA 
HETATM    6  H   UNL     1     -12.563  14.502  70.257  1.00  0.00     0.000 HD 
HETATM    7  C   UNL     1      -9.670  13.412  67.878  1.00  0.00    -0.226 C  
HETATM    8  C   UNL     1     -11.171  11.516  68.023  1.00  0.00    -0.335 C  
HETATM    9  C   UNL     1      -9.558   9.921  69.119  1.00  0.00    -0.204 C  
HETATM   10  C   UNL     1      -8.857  12.265  68.489  1.00  0.00    -0.068 C  
HETATM   11  C   UNL     1      -9.842  11.130  68.609  1.00  0.00    -0.207 C  
ENDROOT
BRANCH   4  12
HETATM   12  C   UNL     1      -9.562  15.664  68.967  1.00  0.00    -0.243 C  
HETATM   13  C   UNL     1      -8.221  15.710  68.955  1.00  0.00    -0.204 C  
BRANCH  13  14
HETATM   14  C   UNL     1      -7.416  16.967  68.833  1.00  0.00    -0.237 C  
HETATM   15  O   UNL     1      -6.520  17.014  69.938  1.00  0.00    -0.174 OA 
HETATM   16  C   UNL     1      -6.623  17.041  67.505  1.00  0.00    -0.169 C  
HETATM   17  H   UNL     1      -6.010  17.811  69.860  1.00  0.00     0.000 HD 
HETATM   18  C   UNL     1      -7.552  17.054  66.273  1.00  0.00    -0.340 C  
HETATM   19  C   UNL     1      -5.591  15.913  67.367  1.00  0.00    -0.063 C  
BRANCH  18  20
HETATM   20  C   UNL     1      -8.454  18.277  66.308  1.00  0.00    -0.216 C  
HETATM   21  C   UNL     1      -9.228  19.326  66.339  1.00  0.00    -0.386 C  
HETATM   22  C   UNL     1     -10.130  20.548  66.375  1.00  0.00    -0.237 C  
ENDBRANCH  18  20
ENDBRANCH  13  14
ENDBRANCH   4  12
BRANCH   9  23
HETATM   23  C   UNL     1     -10.546   8.787  69.191  1.00  0.00    -0.200 C  
BRANCH  23  24
HETATM   24  C   UNL     1     -10.821   8.338  70.629  1.00  0.00    -0.254 C  
BRANCH  24  25
HETATM   25  C   UNL     1     -11.815   9.247  71.349  1.00  0.00    -0.428 C  
HETATM   26  C   UNL     1     -13.079   8.514  71.728  1.00  0.00    -0.355 C  
HETATM   27  O   UNL     1     -13.314   7.338  71.505  1.00  0.00    -0.379 OA 
HETATM   28  O   UNL     1     -13.960   9.322  72.364  1.00  0.00    -0.460 OA 
ENDBRANCH  24  25
ENDBRANCH  23  24
ENDBRANCH   9  23
TORSDOF 6
ENDMDL
MODEL       63
REMARK 921   NORMALIZED FREE ENERGY PREDICTED BY IDOCK:   -5.19 KCAL/MOL
REMARK 922        TOTAL FREE ENERGY PREDICTED BY IDOCK:   -8.36 KCAL/MOL
REMARK 923 INTER-LIGAND FREE ENERGY PREDICTED BY IDOCK:   -7.31 KCAL/MOL
REMARK 924 INTRA-LIGAND FREE ENERGY PREDICTED BY IDOCK:   -1.05 KCAL/MOL
REMARK 927      BINDING AFFINITY PREDICTED BY RF-SCORE:    0.00 PKD
ROOT
HETATM    1  C   UNL     1     -10.791  14.182  68.608  1.00  0.00    -0.268 C  
HETATM    2  C   UNL     1     -12.024  13.324  68.376  1.00  0.00    -0.336 C  
HETATM    3  C   UNL     1     -12.124  13.166  66.858  1.00  0.00    -0.316 C  
HETATM    4  C   UNL     1     -10.704  13.401  66.300  1.00  0.00    -0.290 C  
HETATM    5  O   UNL     1     -12.999  14.156  66.315  1.00  0.00    -0.451 OA 
HETATM    6  H   UNL     1     -13.060  14.058  65.372  1.00  0.00     0.000 HD 
HETATM    7  C   UNL     1      -9.814  13.758  67.514  1.00  0.00    -0.230 C  
HETATM    8  C   UNL     1     -11.017  15.673  68.382  1.00  0.00    -0.308 C  
HETATM    9  C   UNL     1      -9.299  17.418  67.794  1.00  0.00    -0.255 C  
HETATM   10  C   UNL     1      -8.902  14.972  67.304  1.00  0.00    -0.216 C  
HETATM   11  C   UNL     1      -9.710  16.140  67.807  1.00  0.00    -0.229 C  
ENDROOT
BRANCH   4  12
HETATM   12  C   UNL     1     -10.157  12.177  65.603  1.00  0.00    -0.274 C  
HETATM   13  C   UNL     1     -10.024  10.997  66.227  1.00  0.00    -0.269 C  
BRANCH  13  14
HETATM   14  C   UNL     1      -9.657   9.714  65.547  1.00  0.00    -0.283 C  
HETATM   15  O   UNL     1      -9.820   9.908  64.147  1.00  0.00    -0.423 OA 
HETATM   16  C   UNL     1      -8.204   9.273  65.853  1.00  0.00    -0.116 C  
HETATM   17  H   UNL     1      -9.587   9.094  63.715  1.00  0.00     0.000 HD 
HETATM   18  C   UNL     1      -7.985   8.991  67.354  1.00  0.00    -0.100 C  
HETATM   19  C   UNL     1      -7.159  10.282  65.355  1.00  0.00    -0.139 C  
BRANCH  18  20
HETATM   20  C   UNL     1      -8.889   7.859  67.813  1.00  0.00    -0.122 C  
HETATM   21  C   UNL     1      -9.663   6.886  68.208  1.00  0.00    -0.132 C  
HETATM   22  C   UNL     1     -10.565   5.753  68.669  1.00  0.00    -0.305 C  
ENDBRANCH  18  20
ENDBRANCH  13  14
ENDBRANCH   4  12
BRANCH   9  23
HETATM   23  C   UNL     1     -10.105  18.566  68.340  1.00  0.00    -0.423 C  
BRANCH  23  24
HETATM   24  C   UNL     1      -9.717  19.908  67.713  1.00  0.00    -0.516 C  
BRANCH  24  25
HETATM   25  C   UNL     1      -9.146  19.756  66.305  1.00  0.00    -0.444 C  
HETATM   26  C   UNL     1      -7.710  20.213  66.226  1.00  0.00    -0.261 C  
HETATM   27  O   UNL     1      -7.050  20.653  67.153  1.00  0.00    -0.289 OA 
HETATM   28  O   UNL     1      -7.206  20.081  64.977  1.00  0.00    -0.318 OA 
ENDBRANCH  24  25
ENDBRANCH  23  24
ENDBRANCH   9  23
TORSDOF 6
ENDMDL
MODEL       64
REMARK 921   NORMALIZED FREE ENERGY PREDICTED BY IDOCK:   -5.17 KCAL/MOL
REMARK 922        TOTAL FREE ENERGY PREDICTED BY IDOCK:   -8.33 KCAL/MOL
REMARK 923 INTER-LIGAND FREE ENERGY PREDICTED BY IDOCK:   -7.19 KCAL/MOL
REMARK 924 INTRA-LIGAND FREE ENERGY PREDICTED BY IDOCK:   -1.14 KCAL/MOL
REMARK 927      BINDING AFFINITY PREDICTED BY RF-SCORE:    0.00 PKD
ROOT
HETATM    1  C   UNL     1      -8.741  10.494  68.668  1.00  0.00    -0.143 C  
HETATM    2  C   UNL     1      -9.461   9.705  69.750  1.00  0.00    -0.242 C  
HETATM    3  C   UNL     1     -10.764   9.233  69.103  1.00  0.00    -0.183 C  
HETATM    4  C   UNL     1     -10.520   9.231  67.579  1.00  0.00    -0.338 C  
HETATM    5  O   UNL     1     -11.820  10.149  69.397  1.00  0.00    -0.473 OA 
HETATM    6  H   UNL     1     -12.629   9.856  68.995  1.00  0.00     0.000 HD 
HETATM    7  C   UNL     1      -9.085   9.770  67.369  1.00  0.00    -0.148 C  
HETATM    8  C   UNL     1      -9.262  11.915  68.481  1.00  0.00    -0.136 C  
HETATM    9  C   UNL     1      -9.102  13.353  66.420  1.00  0.00    -0.063 C  
HETATM   10  C   UNL     1      -8.956  10.835  66.275  1.00  0.00    -0.184 C  
HETATM   11  C   UNL     1      -9.125  12.144  67.003  1.00  0.00    -0.198 C  
ENDROOT
BRANCH   4  12
HETATM   12  C   UNL     1     -10.642   7.848  66.985  1.00  0.00    -0.381 C  
HETATM   13  C   UNL     1     -10.091   6.769  67.562  1.00  0.00    -0.215 C  
BRANCH  13  14
HETATM   14  C   UNL     1     -10.325   5.358  67.119  1.00  0.00    -0.236 C  
HETATM   15  O   UNL     1     -11.244   5.394  66.034  1.00  0.00    -0.783 OA 
HETATM   16  C   UNL     1      -9.019   4.647  66.683  1.00  0.00    -0.112 C  
HETATM   17  H   UNL     1     -11.392   4.499  65.753  1.00  0.00     0.000 HD 
HETATM   18  C   UNL     1      -8.008   4.526  67.841  1.00  0.00    -0.088 C  
HETATM   19  C   UNL     1      -8.351   5.320  65.476  1.00  0.00    -0.130 C  
BRANCH  18  20
HETATM   20  C   UNL     1      -8.597   3.697  68.971  1.00  0.00    -0.120 C  
HETATM   21  C   UNL     1      -9.104   2.986  69.939  1.00  0.00    -0.196 C  
HETATM   22  C   UNL     1      -9.695   2.156  71.067  1.00  0.00    -0.158 C  
ENDBRANCH  18  20
ENDBRANCH  13  14
ENDBRANCH   4  12
BRANCH   9  23
HETATM   23  C   UNL     1      -9.231  14.650  67.173  1.00  0.00    -0.231 C  
BRANCH  23  24
HETATM   24  C   UNL     1     -10.630  15.261  67.056  1.00  0.00    -0.306 C  
BRANCH  24  25
HETATM   25  C   UNL     1     -11.200  15.162  65.642  1.00  0.00    -0.296 C  
HETATM   26  C   UNL     1     -11.062  16.461  64.886  1.00  0.00    -0.239 C  
HETATM   27  O   UNL     1     -10.561  17.486  65.316  1.00  0.00    -0.664 OA 
HETATM   28  O   UNL     1     -11.570  16.372  63.634  1.00  0.00    -0.926 OA 
ENDBRANCH  24  25
ENDBRANCH  23  24
ENDBRANCH   9  23
TORSDOF 6
ENDMDL
MODEL       65
REMARK 921   NORMALIZED FREE ENERGY PREDICTED BY IDOCK:   -5.17 KCAL/MOL
REMARK 922        TOTAL FREE ENERGY PREDICTED BY IDOCK:   -8.33 KCAL/MOL
REMARK 923 INTER-LIGAND FREE ENERGY PREDICTED BY IDOCK:   -7.12 KCAL/MOL
REMARK 924 INTRA-LIGAND FREE ENERGY PREDICTED BY IDOCK:   -1.21 KCAL/MOL
REMARK 927      BINDING AFFINITY PREDICTED BY RF-SCORE:    0.00 PKD
ROOT
HETATM    1  C   UNL     1     -11.149   9.516  68.790  1.00  0.00    -0.044 C  
HETATM    2  C   UNL     1     -10.655  10.814  69.410  1.00  0.00    -0.254 C  
HETATM    3  C   UNL     1      -9.287  11.067  68.775  1.00  0.00    -0.179 C  
HETATM    4  C   UNL     1      -9.278  10.297  67.437  1.00  0.00    -0.155 C  
HETATM    5  O   UNL     1      -8.252  10.547  69.610  1.00  0.00    -0.321 OA 
HETATM    6  H   UNL     1      -7.402  10.705  69.215  1.00  0.00     0.000 HD 
HETATM    7  C   UNL     1     -10.631   9.552  67.355  1.00  0.00    -0.337 C  
HETATM    8  C   UNL     1     -10.537   8.260  69.402  1.00  0.00    -0.203 C  
HETATM    9  C   UNL     1     -10.288   5.993  68.333  1.00  0.00    -0.252 C  
HETATM   10  C   UNL     1     -10.528   8.082  66.932  1.00  0.00    -0.387 C  
HETATM   11  C   UNL     1     -10.419   7.326  68.231  1.00  0.00    -0.239 C  
ENDROOT
BRANCH   4  12
HETATM   12  C   UNL     1      -9.125  11.219  66.250  1.00  0.00    -0.209 C  
HETATM   13  C   UNL     1     -10.114  11.418  65.365  1.00  0.00    -0.308 C  
BRANCH  13  14
HETATM   14  C   UNL     1     -10.084  12.446  64.277  1.00  0.00    -0.278 C  
HETATM   15  O   UNL     1      -9.491  11.844  63.132  1.00  0.00    -0.581 OA 
HETATM   16  C   UNL     1     -11.495  12.980  63.923  1.00  0.00    -0.490 C  
HETATM   17  H   UNL     1      -9.473  12.496  62.442  1.00  0.00     0.000 HD 
HETATM   18  C   UNL     1     -12.161  13.697  65.115  1.00  0.00    -0.461 C  
HETATM   19  C   UNL     1     -12.427  11.884  63.387  1.00  0.00    -0.582 C  
BRANCH  18  20
HETATM   20  C   UNL     1     -11.334  14.902  65.534  1.00  0.00    -0.339 C  
HETATM   21  C   UNL     1     -10.626  15.936  65.893  1.00  0.00    -0.348 C  
HETATM   22  C   UNL     1      -9.800  17.141  66.312  1.00  0.00    -0.306 C  
ENDBRANCH  18  20
ENDBRANCH  13  14
ENDBRANCH   4  12
BRANCH   9  23
HETATM   23  C   UNL     1     -10.223   5.253  69.642  1.00  0.00    -0.348 C  
BRANCH  23  24
HETATM   24  C   UNL     1      -8.785   5.009  70.108  1.00  0.00    -0.130 C  
BRANCH  24  25
HETATM   25  C   UNL     1      -8.581   5.341  71.585  1.00  0.00    -0.135 C  
HETATM   26  C   UNL     1      -8.085   4.150  72.368  1.00  0.00    -0.095 C  
HETATM   27  O   UNL     1      -7.861   3.040  71.912  1.00  0.00    -0.052 OA 
HETATM   28  O   UNL     1      -7.908   4.444  73.677  1.00  0.00    -0.084 OA 
ENDBRANCH  24  25
ENDBRANCH  23  24
ENDBRANCH   9  23
TORSDOF 6
ENDMDL
MODEL       66
REMARK 921   NORMALIZED FREE ENERGY PREDICTED BY IDOCK:   -5.17 KCAL/MOL
REMARK 922        TOTAL FREE ENERGY PREDICTED BY IDOCK:   -8.33 KCAL/MOL
REMARK 923 INTER-LIGAND FREE ENERGY PREDICTED BY IDOCK:   -7.14 KCAL/MOL
REMARK 924 INTRA-LIGAND FREE ENERGY PREDICTED BY IDOCK:   -1.18 KCAL/MOL
REMARK 927      BINDING AFFINITY PREDICTED BY RF-SCORE:    0.00 PKD
ROOT
HETATM    1  C   UNL     1     -11.200   9.621  68.761  1.00  0.00    -0.011 C  
HETATM    2  C   UNL     1     -10.708  10.925  69.368  1.00  0.00    -0.265 C  
HETATM    3  C   UNL     1      -9.317  11.146  68.771  1.00  0.00    -0.149 C  
HETATM    4  C   UNL     1      -9.276  10.347  67.451  1.00  0.00    -0.154 C  
HETATM    5  O   UNL     1      -8.316  10.632  69.649  1.00  0.00    -0.370 OA 
HETATM    6  H   UNL     1      -7.452  10.769  69.278  1.00  0.00     0.000 HD 
HETATM    7  C   UNL     1     -10.636   9.619  67.342  1.00  0.00    -0.333 C  
HETATM    8  C   UNL     1     -10.625   8.371  69.418  1.00  0.00    -0.204 C  
HETATM    9  C   UNL     1     -10.374   6.078  68.406  1.00  0.00    -0.252 C  
HETATM   10  C   UNL     1     -10.541   8.139  66.955  1.00  0.00    -0.311 C  
HETATM   11  C   UNL     1     -10.483   7.410  68.272  1.00  0.00    -0.231 C  
ENDROOT
BRANCH   4  12
HETATM   12  C   UNL     1      -9.073  11.242  66.250  1.00  0.00    -0.209 C  
HETATM   13  C   UNL     1     -10.087  11.608  65.451  1.00  0.00    -0.299 C  
BRANCH  13  14
HETATM   14  C   UNL     1      -9.980  12.627  64.358  1.00  0.00    -0.170 C  
HETATM   15  O   UNL     1      -9.384  11.990  63.233  1.00  0.00    -0.651 OA 
HETATM   16  C   UNL     1     -11.353  13.222  63.962  1.00  0.00    -0.403 C  
HETATM   17  H   UNL     1      -9.316  12.635  62.540  1.00  0.00     0.000 HD 
HETATM   18  C   UNL     1     -12.018  13.978  65.131  1.00  0.00    -0.392 C  
HETATM   19  C   UNL     1     -12.321  12.167  63.406  1.00  0.00    -0.648 C  
BRANCH  18  20
HETATM   20  C   UNL     1     -11.148  15.146  65.565  1.00  0.00    -0.347 C  
HETATM   21  C   UNL     1     -10.400  16.148  65.937  1.00  0.00    -0.384 C  
HETATM   22  C   UNL     1      -9.529  17.316  66.370  1.00  0.00    -0.282 C  
ENDBRANCH  18  20
ENDBRANCH  13  14
ENDBRANCH   4  12
BRANCH   9  23
HETATM   23  C   UNL     1     -10.360   5.366  69.732  1.00  0.00    -0.375 C  
BRANCH  23  24
HETATM   24  C   UNL     1      -9.232   4.336  69.834  1.00  0.00    -0.208 C  
BRANCH  24  25
HETATM   25  C   UNL     1      -8.600   4.019  68.481  1.00  0.00    -0.115 C  
HETATM   26  C   UNL     1      -8.889   2.605  68.040  1.00  0.00    -0.127 C  
HETATM   27  O   UNL     1      -9.545   1.785  68.662  1.00  0.00    -0.171 OA 
HETATM   28  O   UNL     1      -8.326   2.324  66.842  1.00  0.00    -0.081 OA 
ENDBRANCH  24  25
ENDBRANCH  23  24
ENDBRANCH   9  23
TORSDOF 6
ENDMDL
MODEL       67
REMARK 921   NORMALIZED FREE ENERGY PREDICTED BY IDOCK:   -5.17 KCAL/MOL
REMARK 922        TOTAL FREE ENERGY PREDICTED BY IDOCK:   -8.33 KCAL/MOL
REMARK 923 INTER-LIGAND FREE ENERGY PREDICTED BY IDOCK:   -7.25 KCAL/MOL
REMARK 924 INTRA-LIGAND FREE ENERGY PREDICTED BY IDOCK:   -1.07 KCAL/MOL
REMARK 927      BINDING AFFINITY PREDICTED BY RF-SCORE:    0.00 PKD
ROOT
HETATM    1  C   UNL     1     -11.288  12.431  65.155  1.00  0.00    -0.367 C  
HETATM    2  C   UNL     1     -11.161  11.516  63.948  1.00  0.00    -0.439 C  
HETATM    3  C   UNL     1      -9.701  11.060  63.941  1.00  0.00    -0.292 C  
HETATM    4  C   UNL     1      -9.190  11.213  65.390  1.00  0.00    -0.225 C  
HETATM    5  O   UNL     1      -8.925  11.903  63.089  1.00  0.00    -0.634 OA 
HETATM    6  H   UNL     1      -8.018  11.619  63.086  1.00  0.00     0.000 HD 
HETATM    7  C   UNL     1     -10.357  11.823  66.200  1.00  0.00    -0.266 C  
HETATM    8  C   UNL     1     -10.759  13.843  64.925  1.00  0.00    -0.422 C  
HETATM    9  C   UNL     1      -9.936  15.478  66.655  1.00  0.00    -0.272 C  
HETATM   10  C   UNL     1      -9.963  12.992  67.109  1.00  0.00    -0.235 C  
HETATM   11  C   UNL     1     -10.178  14.218  66.259  1.00  0.00    -0.307 C  
ENDROOT
BRANCH   4  12
HETATM   12  C   UNL     1      -8.781   9.889  65.992  1.00  0.00    -0.152 C  
HETATM   13  C   UNL     1      -8.137   9.805  67.167  1.00  0.00    -0.116 C  
BRANCH  13  14
HETATM   14  C   UNL     1      -7.864   8.525  67.894  1.00  0.00    -0.103 C  
HETATM   15  O   UNL     1      -6.566   8.624  68.468  1.00  0.00    -0.057 OA 
HETATM   16  C   UNL     1      -8.910   8.233  68.999  1.00  0.00    -0.143 C  
HETATM   17  H   UNL     1      -6.393   7.812  68.929  1.00  0.00     0.000 HD 
HETATM   18  C   UNL     1     -10.330   8.056  68.424  1.00  0.00    -0.236 C  
HETATM   19  C   UNL     1      -8.923   9.302  70.101  1.00  0.00    -0.239 C  
BRANCH  18  20
HETATM   20  C   UNL     1     -10.367   6.875  67.468  1.00  0.00    -0.277 C  
HETATM   21  C   UNL     1     -10.401   5.861  66.649  1.00  0.00    -0.283 C  
HETATM   22  C   UNL     1     -10.439   4.680  65.693  1.00  0.00    -0.260 C  
ENDBRANCH  18  20
ENDBRANCH  13  14
ENDBRANCH   4  12
BRANCH   9  23
HETATM   23  C   UNL     1     -10.198  16.691  65.804  1.00  0.00    -0.328 C  
BRANCH  23  24
HETATM   24  C   UNL     1     -10.469  17.946  66.637  1.00  0.00    -0.318 C  
BRANCH  24  25
HETATM   25  C   UNL     1      -9.426  19.039  66.411  1.00  0.00    -0.375 C  
HETATM   26  C   UNL     1      -8.573  19.268  67.635  1.00  0.00    -0.296 C  
HETATM   27  O   UNL     1      -8.672  18.670  68.694  1.00  0.00    -0.324 OA 
HETATM   28  O   UNL     1      -7.651  20.239  67.434  1.00  0.00    -0.286 OA 
ENDBRANCH  24  25
ENDBRANCH  23  24
ENDBRANCH   9  23
TORSDOF 6
ENDMDL
MODEL       68
REMARK 921   NORMALIZED FREE ENERGY PREDICTED BY IDOCK:   -5.17 KCAL/MOL
REMARK 922        TOTAL FREE ENERGY PREDICTED BY IDOCK:   -8.32 KCAL/MOL
REMARK 923 INTER-LIGAND FREE ENERGY PREDICTED BY IDOCK:   -6.84 KCAL/MOL
REMARK 924 INTRA-LIGAND FREE ENERGY PREDICTED BY IDOCK:   -1.48 KCAL/MOL
REMARK 927      BINDING AFFINITY PREDICTED BY RF-SCORE:    0.00 PKD
ROOT
HETATM    1  C   UNL     1     -11.682  14.455  66.899  1.00  0.00    -0.422 C  
HETATM    2  C   UNL     1     -11.603  15.187  68.229  1.00  0.00    -0.357 C  
HETATM    3  C   UNL     1     -10.157  15.677  68.333  1.00  0.00    -0.214 C  
HETATM    4  C   UNL     1      -9.617  15.751  66.889  1.00  0.00    -0.243 C  
HETATM    5  O   UNL     1      -9.371  14.739  69.070  1.00  0.00    -0.246 OA 
HETATM    6  H   UNL     1      -8.473  15.044  69.134  1.00  0.00     0.000 HD 
HETATM    7  C   UNL     1     -10.751  15.235  65.974  1.00  0.00    -0.324 C  
HETATM    8  C   UNL     1     -11.114  13.040  66.931  1.00  0.00    -0.306 C  
HETATM    9  C   UNL     1     -10.213  11.700  64.998  1.00  0.00    -0.321 C  
HETATM   10  C   UNL     1     -10.307  14.223  64.912  1.00  0.00    -0.429 C  
HETATM   11  C   UNL     1     -10.500  12.881  65.570  1.00  0.00    -0.305 C  
ENDROOT
BRANCH   4  12
HETATM   12  C   UNL     1      -9.238  17.160  66.496  1.00  0.00    -0.289 C  
HETATM   13  C   UNL     1      -8.984  18.114  67.406  1.00  0.00    -0.256 C  
BRANCH  13  14
HETATM   14  C   UNL     1      -8.437  19.470  67.082  1.00  0.00    -0.295 C  
HETATM   15  O   UNL     1      -9.386  20.434  67.522  1.00  0.00    -0.372 OA 
HETATM   16  C   UNL     1      -7.066  19.733  67.753  1.00  0.00    -0.304 C  
HETATM   17  H   UNL     1      -9.039  21.294  67.317  1.00  0.00     0.000 HD 
HETATM   18  C   UNL     1      -5.980  18.752  67.264  1.00  0.00    -0.161 C  
HETATM   19  C   UNL     1      -7.139  19.708  69.286  1.00  0.00    -0.366 C  
BRANCH  18  20
HETATM   20  C   UNL     1      -5.768  18.904  65.767  1.00  0.00    -0.201 C  
HETATM   21  C   UNL     1      -5.585  19.036  64.483  1.00  0.00    -0.303 C  
HETATM   22  C   UNL     1      -5.371  19.189  62.986  1.00  0.00    -0.321 C  
ENDBRANCH  18  20
ENDBRANCH  13  14
ENDBRANCH   4  12
BRANCH   9  23
HETATM   23  C   UNL     1     -10.453  10.368  65.657  1.00  0.00    -0.185 C  
BRANCH  23  24
HETATM   24  C   UNL     1      -9.176   9.769  66.253  1.00  0.00    -0.207 C  
BRANCH  24  25
HETATM   25  C   UNL     1      -9.016  10.082  67.739  1.00  0.00    -0.133 C  
HETATM   26  C   UNL     1      -7.972  11.144  67.984  1.00  0.00    -0.117 C  
HETATM   27  O   UNL     1      -7.315  11.708  67.124  1.00  0.00    -0.127 OA 
HETATM   28  O   UNL     1      -7.829  11.418  69.302  1.00  0.00    -0.039 OA 
ENDBRANCH  24  25
ENDBRANCH  23  24
ENDBRANCH   9  23
TORSDOF 6
ENDMDL
MODEL       69
REMARK 921   NORMALIZED FREE ENERGY PREDICTED BY IDOCK:   -5.15 KCAL/MOL
REMARK 922        TOTAL FREE ENERGY PREDICTED BY IDOCK:   -8.30 KCAL/MOL
REMARK 923 INTER-LIGAND FREE ENERGY PREDICTED BY IDOCK:   -7.20 KCAL/MOL
REMARK 924 INTRA-LIGAND FREE ENERGY PREDICTED BY IDOCK:   -1.10 KCAL/MOL
REMARK 927      BINDING AFFINITY PREDICTED BY RF-SCORE:    0.00 PKD
ROOT
HETATM    1  C   UNL     1      -8.177  15.804  66.690  1.00  0.00    -0.305 C  
HETATM    2  C   UNL     1      -7.259  14.786  67.346  1.00  0.00    -0.202 C  
HETATM    3  C   UNL     1      -8.147  14.015  68.323  1.00  0.00    -0.148 C  
HETATM    4  C   UNL     1      -9.595  14.170  67.812  1.00  0.00    -0.219 C  
HETATM    5  O   UNL     1      -8.057  14.588  69.628  1.00  0.00    -0.387 OA 
HETATM    6  H   UNL     1      -8.610  14.109  70.235  1.00  0.00     0.000 HD 
HETATM    7  C   UNL     1      -9.522  15.092  66.573  1.00  0.00    -0.308 C  
HETATM    8  C   UNL     1      -8.453  17.037  67.544  1.00  0.00    -0.208 C  
HETATM    9  C   UNL     1     -10.437  18.584  67.417  1.00  0.00    -0.455 C  
HETATM   10  C   UNL     1     -10.565  16.215  66.548  1.00  0.00    -0.268 C  
HETATM   11  C   UNL     1      -9.876  17.382  67.207  1.00  0.00    -0.278 C  
ENDROOT
BRANCH   4  12
HETATM   12  C   UNL     1     -10.210  12.843  67.432  1.00  0.00    -0.230 C  
HETATM   13  C   UNL     1      -9.767  11.679  67.933  1.00  0.00    -0.181 C  
BRANCH  13  14
HETATM   14  C   UNL     1     -10.443  10.358  67.732  1.00  0.00    -0.226 C  
HETATM   15  O   UNL     1     -11.844  10.598  67.657  1.00  0.00    -0.633 OA 
HETATM   16  C   UNL     1      -9.962   9.632  66.451  1.00  0.00    -0.323 C  
HETATM   17  H   UNL     1     -12.272   9.760  67.528  1.00  0.00     0.000 HD 
HETATM   18  C   UNL     1      -8.458   9.293  66.505  1.00  0.00    -0.131 C  
HETATM   19  C   UNL     1     -10.273  10.419  65.170  1.00  0.00    -0.326 C  
BRANCH  18  20
HETATM   20  C   UNL     1      -8.171   8.358  67.667  1.00  0.00    -0.126 C  
HETATM   21  C   UNL     1      -7.924   7.556  68.666  1.00  0.00    -0.123 C  
HETATM   22  C   UNL     1      -7.638   6.621  69.830  1.00  0.00    -0.104 C  
ENDBRANCH  18  20
ENDBRANCH  13  14
ENDBRANCH   4  12
BRANCH   9  23
HETATM   23  C   UNL     1      -9.716  19.749  68.040  1.00  0.00    -0.505 C  
BRANCH  23  24
HETATM   24  C   UNL     1      -8.997  20.617  67.004  1.00  0.00    -0.317 C  
BRANCH  24  25
HETATM   25  C   UNL     1      -7.483  20.642  67.207  1.00  0.00    -0.395 C  
HETATM   26  C   UNL     1      -6.754  19.901  66.113  1.00  0.00    -0.228 C  
HETATM   27  O   UNL     1      -7.275  19.338  65.164  1.00  0.00    -0.400 OA 
HETATM   28  O   UNL     1      -5.413  19.921  66.296  1.00  0.00    -0.170 OA 
ENDBRANCH  24  25
ENDBRANCH  23  24
ENDBRANCH   9  23
TORSDOF 6
ENDMDL
MODEL       70
REMARK 921   NORMALIZED FREE ENERGY PREDICTED BY IDOCK:   -5.13 KCAL/MOL
REMARK 922        TOTAL FREE ENERGY PREDICTED BY IDOCK:   -8.28 KCAL/MOL
REMARK 923 INTER-LIGAND FREE ENERGY PREDICTED BY IDOCK:   -7.17 KCAL/MOL
REMARK 924 INTRA-LIGAND FREE ENERGY PREDICTED BY IDOCK:   -1.11 KCAL/MOL
REMARK 927      BINDING AFFINITY PREDICTED BY RF-SCORE:    0.00 PKD
ROOT
HETATM    1  C   UNL     1     -11.839   7.814  71.215  1.00  0.00    -0.318 C  
HETATM    2  C   UNL     1     -13.356   7.920  71.223  1.00  0.00    -0.206 C  
HETATM    3  C   UNL     1     -13.656   9.338  71.712  1.00  0.00    -0.398 C  
HETATM    4  C   UNL     1     -12.397  10.179  71.414  1.00  0.00    -0.515 C  
HETATM    5  O   UNL     1     -13.883   9.336  73.122  1.00  0.00    -0.995 OA 
HETATM    6  H   UNL     1     -14.069  10.217  73.426  1.00  0.00     0.000 HD 
HETATM    7  C   UNL     1     -11.357   9.205  70.812  1.00  0.00    -0.337 C  
HETATM    8  C   UNL     1     -11.224   7.563  72.588  1.00  0.00    -0.399 C  
HETATM    9  C   UNL     1      -8.886   8.111  73.349  1.00  0.00    -0.322 C  
HETATM   10  C   UNL     1      -9.949   9.325  71.405  1.00  0.00    -0.323 C  
HETATM   11  C   UNL     1      -9.931   8.327  72.534  1.00  0.00    -0.373 C  
ENDROOT
BRANCH   4  12
HETATM   12  C   UNL     1     -12.678  11.299  70.440  1.00  0.00    -0.209 C  
HETATM   13  C   UNL     1     -11.781  12.263  70.179  1.00  0.00    -0.280 C  
BRANCH  13  14
HETATM   14  C   UNL     1     -11.932  13.292  69.102  1.00  0.00    -0.296 C  
HETATM   15  O   UNL     1     -12.879  14.253  69.554  1.00  0.00    -0.452 OA 
HETATM   16  C   UNL     1     -10.594  13.991  68.754  1.00  0.00    -0.260 C  
HETATM   17  H   UNL     1     -12.974  14.906  68.871  1.00  0.00     0.000 HD 
HETATM   18  C   UNL     1      -9.548  13.002  68.200  1.00  0.00    -0.227 C  
HETATM   19  C   UNL     1     -10.003  14.765  69.940  1.00  0.00     0.186 C  
BRANCH  18  20
HETATM   20  C   UNL     1     -10.053  12.367  66.915  1.00  0.00    -0.230 C  
HETATM   21  C   UNL     1     -10.486  11.823  65.811  1.00  0.00    -0.302 C  
HETATM   22  C   UNL     1     -10.989  11.188  64.525  1.00  0.00    -0.255 C  
ENDBRANCH  18  20
ENDBRANCH  13  14
ENDBRANCH   4  12
BRANCH   9  23
HETATM   23  C   UNL     1      -8.875   7.079  74.445  1.00  0.00    -0.235 C  
BRANCH  23  24
HETATM   24  C   UNL     1      -8.609   5.666  73.919  1.00  0.00    -0.118 C  
BRANCH  24  25
HETATM   25  C   UNL     1      -7.514   5.631  72.854  1.00  0.00    -0.096 C  
HETATM   26  C   UNL     1      -7.777   4.574  71.809  1.00  0.00    -0.091 C  
HETATM   27  O   UNL     1      -8.737   3.821  71.783  1.00  0.00    -0.091 OA 
HETATM   28  O   UNL     1      -6.805   4.541  70.868  1.00  0.00    -0.034 OA 
ENDBRANCH  24  25
ENDBRANCH  23  24
ENDBRANCH   9  23
TORSDOF 6
ENDMDL
MODEL       71
REMARK 921   NORMALIZED FREE ENERGY PREDICTED BY IDOCK:   -5.13 KCAL/MOL
REMARK 922        TOTAL FREE ENERGY PREDICTED BY IDOCK:   -8.28 KCAL/MOL
REMARK 923 INTER-LIGAND FREE ENERGY PREDICTED BY IDOCK:   -7.30 KCAL/MOL
REMARK 924 INTRA-LIGAND FREE ENERGY PREDICTED BY IDOCK:   -0.98 KCAL/MOL
REMARK 927      BINDING AFFINITY PREDICTED BY RF-SCORE:    0.00 PKD
ROOT
HETATM    1  C   UNL     1     -10.556   7.927  67.566  1.00  0.00    -0.312 C  
HETATM    2  C   UNL     1      -9.604   6.809  67.173  1.00  0.00    -0.177 C  
HETATM    3  C   UNL     1      -8.244   7.223  67.737  1.00  0.00    -0.119 C  
HETATM    4  C   UNL     1      -8.532   8.202  68.896  1.00  0.00    -0.130 C  
HETATM    5  O   UNL     1      -7.483   7.904  66.740  1.00  0.00    -0.087 OA 
HETATM    6  H   UNL     1      -6.638   8.162  67.091  1.00  0.00     0.000 HD 
HETATM    7  C   UNL     1     -10.067   8.387  68.937  1.00  0.00    -0.209 C  
HETATM    8  C   UNL     1     -10.468   9.163  66.677  1.00  0.00    -0.237 C  
HETATM    9  C   UNL     1     -11.103  11.529  67.264  1.00  0.00    -0.351 C  
HETATM   10  C   UNL     1     -10.532   9.843  69.057  1.00  0.00    -0.227 C  
HETATM   11  C   UNL     1     -10.717  10.296  67.631  1.00  0.00    -0.339 C  
ENDROOT
BRANCH   4  12
HETATM   12  C   UNL     1      -8.041   7.672  70.223  1.00  0.00    -0.114 C  
HETATM   13  C   UNL     1      -8.776   6.840  70.977  1.00  0.00    -0.137 C  
BRANCH  13  14
HETATM   14  C   UNL     1      -8.276   6.147  72.208  1.00  0.00    -0.109 C  
HETATM   15  O   UNL     1      -6.861   6.296  72.241  1.00  0.00    -0.070 OA 
HETATM   16  C   UNL     1      -8.898   6.718  73.506  1.00  0.00    -0.149 C  
HETATM   17  H   UNL     1      -6.545   5.857  73.022  1.00  0.00     0.000 HD 
HETATM   18  C   UNL     1     -10.429   6.529  73.550  1.00  0.00    -0.317 C  
HETATM   19  C   UNL     1      -8.550   8.196  73.732  1.00  0.00    -0.307 C  
BRANCH  18  20
HETATM   20  C   UNL     1     -10.777   5.050  73.516  1.00  0.00    -0.339 C  
HETATM   21  C   UNL     1     -11.076   3.781  73.488  1.00  0.00    -0.328 C  
HETATM   22  C   UNL     1     -11.425   2.302  73.455  1.00  0.00    -0.245 C  
ENDBRANCH  18  20
ENDBRANCH  13  14
ENDBRANCH   4  12
BRANCH   9  23
HETATM   23  C   UNL     1     -11.322  11.949  65.836  1.00  0.00    -0.365 C  
BRANCH  23  24
HETATM   24  C   UNL     1     -12.398  13.030  65.699  1.00  0.00    -0.504 C  
BRANCH  24  25
HETATM   25  C   UNL     1     -11.811  14.436  65.606  1.00  0.00    -0.355 C  
HETATM   26  C   UNL     1     -12.067  15.067  64.259  1.00  0.00    -0.306 C  
HETATM   27  O   UNL     1     -12.669  14.549  63.332  1.00  0.00    -0.627 OA 
HETATM   28  O   UNL     1     -11.543  16.313  64.176  1.00  0.00    -0.838 OA 
ENDBRANCH  24  25
ENDBRANCH  23  24
ENDBRANCH   9  23
TORSDOF 6
ENDMDL
MODEL       72
REMARK 921   NORMALIZED FREE ENERGY PREDICTED BY IDOCK:   -5.13 KCAL/MOL
REMARK 922        TOTAL FREE ENERGY PREDICTED BY IDOCK:   -8.28 KCAL/MOL
REMARK 923 INTER-LIGAND FREE ENERGY PREDICTED BY IDOCK:   -7.06 KCAL/MOL
REMARK 924 INTRA-LIGAND FREE ENERGY PREDICTED BY IDOCK:   -1.21 KCAL/MOL
REMARK 927      BINDING AFFINITY PREDICTED BY RF-SCORE:    0.00 PKD
ROOT
HETATM    1  C   UNL     1      -9.696   9.491  69.861  1.00  0.00    -0.252 C  
HETATM    2  C   UNL     1      -9.197   9.554  68.426  1.00  0.00    -0.130 C  
HETATM    3  C   UNL     1     -10.433   9.879  67.586  1.00  0.00    -0.244 C  
HETATM    4  C   UNL     1     -11.441  10.560  68.537  1.00  0.00    -0.284 C  
HETATM    5  O   UNL     1     -11.018   8.677  67.083  1.00  0.00    -0.387 OA 
HETATM    6  H   UNL     1     -11.786   8.879  66.561  1.00  0.00     0.000 HD 
HETATM    7  C   UNL     1     -10.786  10.556  69.938  1.00  0.00    -0.334 C  
HETATM    8  C   UNL     1     -10.391   8.183  70.223  1.00  0.00    -0.209 C  
HETATM    9  C   UNL     1     -12.090   7.797  72.042  1.00  0.00    -0.351 C  
HETATM   10  C   UNL     1     -11.709  10.099  71.074  1.00  0.00    -0.470 C  
HETATM   11  C   UNL     1     -11.468   8.614  71.178  1.00  0.00    -0.332 C  
ENDROOT
BRANCH   4  12
HETATM   12  C   UNL     1     -11.751  11.978  68.117  1.00  0.00    -0.398 C  
HETATM   13  C   UNL     1     -11.225  13.041  68.744  1.00  0.00    -0.325 C  
BRANCH  13  14
HETATM   14  C   UNL     1     -11.353  14.455  68.268  1.00  0.00    -0.287 C  
HETATM   15  O   UNL     1     -12.525  14.534  67.463  1.00  0.00    -0.590 OA 
HETATM   16  C   UNL     1     -11.444  15.470  69.434  1.00  0.00    -0.345 C  
HETATM   17  H   UNL     1     -12.606  15.431  67.162  1.00  0.00     0.000 HD 
HETATM   18  C   UNL     1     -10.172  15.470  70.306  1.00  0.00    -0.139 C  
HETATM   19  C   UNL     1     -12.681  15.251  70.317  1.00  0.00    -0.353 C  
BRANCH  18  20
HETATM   20  C   UNL     1      -8.964  15.871  69.475  1.00  0.00    -0.135 C  
HETATM   21  C   UNL     1      -7.928  16.217  68.762  1.00  0.00    -0.221 C  
HETATM   22  C   UNL     1      -6.721  16.619  67.932  1.00  0.00    -0.155 C  
ENDBRANCH  18  20
ENDBRANCH  13  14
ENDBRANCH   4  12
BRANCH   9  23
HETATM   23  C   UNL     1     -11.804   6.323  72.158  1.00  0.00    -0.365 C  
BRANCH  23  24
HETATM   24  C   UNL     1     -10.866   5.997  73.324  1.00  0.00    -0.277 C  
BRANCH  24  25
HETATM   25  C   UNL     1      -9.564   5.343  72.866  1.00  0.00    -0.158 C  
HETATM   26  C   UNL     1      -9.564   3.854  73.111  1.00  0.00    -0.114 C  
HETATM   27  O   UNL     1     -10.474   3.213  73.611  1.00  0.00    -0.130 OA 
HETATM   28  O   UNL     1      -8.408   3.276  72.708  1.00  0.00    -0.078 OA 
ENDBRANCH  24  25
ENDBRANCH  23  24
ENDBRANCH   9  23
TORSDOF 6
ENDMDL
MODEL       73
REMARK 921   NORMALIZED FREE ENERGY PREDICTED BY IDOCK:   -5.12 KCAL/MOL
REMARK 922        TOTAL FREE ENERGY PREDICTED BY IDOCK:   -8.27 KCAL/MOL
REMARK 923 INTER-LIGAND FREE ENERGY PREDICTED BY IDOCK:   -6.90 KCAL/MOL
REMARK 924 INTRA-LIGAND FREE ENERGY PREDICTED BY IDOCK:   -1.36 KCAL/MOL
REMARK 927      BINDING AFFINITY PREDICTED BY RF-SCORE:    0.00 PKD
ROOT
HETATM    1  C   UNL     1     -10.355  11.854  65.630  1.00  0.00    -0.285 C  
HETATM    2  C   UNL     1     -11.761  12.172  66.111  1.00  0.00    -0.384 C  
HETATM    3  C   UNL     1     -11.720  11.980  67.627  1.00  0.00    -0.294 C  
HETATM    4  C   UNL     1     -10.244  12.141  68.048  1.00  0.00    -0.203 C  
HETATM    5  O   UNL     1     -12.154  10.663  67.970  1.00  0.00    -0.755 OA 
HETATM    6  H   UNL     1     -12.128  10.544  68.912  1.00  0.00     0.000 HD 
HETATM    7  C   UNL     1      -9.442  12.360  66.744  1.00  0.00    -0.228 C  
HETATM    8  C   UNL     1     -10.056  10.363  65.519  1.00  0.00    -0.352 C  
HETATM    9  C   UNL     1      -7.806   9.234  65.609  1.00  0.00    -0.099 C  
HETATM   10  C   UNL     1      -8.167  11.517  66.627  1.00  0.00    -0.156 C  
HETATM   11  C   UNL     1      -8.608  10.268  65.909  1.00  0.00    -0.160 C  
ENDROOT
BRANCH   4  12
HETATM   12  C   UNL     1     -10.043  13.312  68.980  1.00  0.00     0.126 C  
HETATM   13  C   UNL     1      -9.511  14.473  68.567  1.00  0.00    -0.211 C  
BRANCH  13  14
HETATM   14  C   UNL     1      -9.449  15.720  69.394  1.00  0.00    -0.275 C  
HETATM   15  O   UNL     1      -8.213  16.365  69.109  1.00  0.00    -0.240 OA 
HETATM   16  C   UNL     1     -10.627  16.684  69.108  1.00  0.00    -0.340 C  
HETATM   17  H   UNL     1      -8.174  17.156  69.633  1.00  0.00     0.000 HD 
HETATM   18  C   UNL     1     -11.992  16.055  69.458  1.00  0.00    -0.194 C  
HETATM   19  C   UNL     1     -10.643  17.189  67.658  1.00  0.00    -0.343 C  
BRANCH  18  20
HETATM   20  C   UNL     1     -12.053  15.722  70.940  1.00  0.00    -0.459 C  
HETATM   21  C   UNL     1     -12.106  15.435  72.211  1.00  0.00    -0.498 C  
HETATM   22  C   UNL     1     -12.166  15.101  73.692  1.00  0.00    -0.634 C  
ENDBRANCH  18  20
ENDBRANCH  13  14
ENDBRANCH   4  12
BRANCH   9  23
HETATM   23  C   UNL     1      -8.257   8.013  64.854  1.00  0.00    -0.137 C  
BRANCH  23  24
HETATM   24  C   UNL     1      -8.380   6.778  65.751  1.00  0.00    -0.143 C  
BRANCH  24  25
HETATM   25  C   UNL     1      -9.675   6.767  66.562  1.00  0.00    -0.183 C  
HETATM   26  C   UNL     1      -9.424   7.011  68.030  1.00  0.00    -0.125 C  
HETATM   27  O   UNL     1      -8.334   7.201  68.545  1.00  0.00    -0.123 OA 
HETATM   28  O   UNL     1     -10.572   6.997  68.748  1.00  0.00    -0.206 OA 
ENDBRANCH  24  25
ENDBRANCH  23  24
ENDBRANCH   9  23
TORSDOF 6
ENDMDL
MODEL       74
REMARK 921   NORMALIZED FREE ENERGY PREDICTED BY IDOCK:   -5.09 KCAL/MOL
REMARK 922        TOTAL FREE ENERGY PREDICTED BY IDOCK:   -8.23 KCAL/MOL
REMARK 923 INTER-LIGAND FREE ENERGY PREDICTED BY IDOCK:   -7.26 KCAL/MOL
REMARK 924 INTRA-LIGAND FREE ENERGY PREDICTED BY IDOCK:   -0.97 KCAL/MOL
REMARK 927      BINDING AFFINITY PREDICTED BY RF-SCORE:    0.00 PKD
ROOT
HETATM    1  C   UNL     1      -9.054  11.835  66.317  1.00  0.00    -0.209 C  
HETATM    2  C   UNL     1      -8.012  11.012  67.057  1.00  0.00    -0.137 C  
HETATM    3  C   UNL     1      -8.773  10.327  68.193  1.00  0.00    -0.123 C  
HETATM    4  C   UNL     1     -10.253  10.277  67.759  1.00  0.00    -0.225 C  
HETATM    5  O   UNL     1      -8.672  11.099  69.390  1.00  0.00    -0.376 OA 
HETATM    6  H   UNL     1      -9.145  10.673  70.096  1.00  0.00     0.000 HD 
HETATM    7  C   UNL     1     -10.330  11.001  66.394  1.00  0.00    -0.302 C  
HETATM    8  C   UNL     1      -9.402  13.156  66.996  1.00  0.00    -0.238 C  
HETATM    9  C   UNL     1     -11.528  14.488  66.768  1.00  0.00    -0.376 C  
HETATM   10  C   UNL     1     -11.475  12.012  66.270  1.00  0.00    -0.408 C  
HETATM   11  C   UNL     1     -10.867  13.322  66.704  1.00  0.00    -0.289 C  
ENDROOT
BRANCH   4  12
HETATM   12  C   UNL     1     -10.757   8.860  67.620  1.00  0.00    -0.221 C  
HETATM   13  C   UNL     1     -10.226   7.839  68.312  1.00  0.00    -0.236 C  
BRANCH  13  14
HETATM   14  C   UNL     1     -10.793   6.454  68.348  1.00  0.00    -0.311 C  
HETATM   15  O   UNL     1     -11.575   6.277  67.173  1.00  0.00    -0.632 OA 
HETATM   16  C   UNL     1      -9.696   5.363  68.421  1.00  0.00    -0.179 C  
HETATM   17  H   UNL     1     -11.935   5.398  67.196  1.00  0.00     0.000 HD 
HETATM   18  C   UNL     1      -8.853   5.471  69.709  1.00  0.00    -0.129 C  
HETATM   19  C   UNL     1      -8.773   5.365  67.194  1.00  0.00    -0.107 C  
BRANCH  18  20
HETATM   20  C   UNL     1      -9.736   5.281  70.932  1.00  0.00    -0.244 C  
HETATM   21  C   UNL     1     -10.493   5.120  71.981  1.00  0.00    -0.278 C  
HETATM   22  C   UNL     1     -11.377   4.931  73.204  1.00  0.00    -0.395 C  
ENDBRANCH  18  20
ENDBRANCH  13  14
ENDBRANCH   4  12
BRANCH   9  23
HETATM   23  C   UNL     1     -10.890  15.793  67.164  1.00  0.00    -0.289 C  
BRANCH  23  24
HETATM   24  C   UNL     1     -10.191  16.485  65.991  1.00  0.00    -0.372 C  
BRANCH  24  25
HETATM   25  C   UNL     1      -8.836  17.073  66.378  1.00  0.00    -0.313 C  
HETATM   26  C   UNL     1      -8.889  18.576  66.511  1.00  0.00    -0.293 C  
HETATM   27  O   UNL     1      -9.877  19.271  66.340  1.00  0.00    -0.343 OA 
HETATM   28  O   UNL     1      -7.687  19.096  66.851  1.00  0.00    -0.230 OA 
ENDBRANCH  24  25
ENDBRANCH  23  24
ENDBRANCH   9  23
TORSDOF 6
ENDMDL
MODEL       75
REMARK 921   NORMALIZED FREE ENERGY PREDICTED BY IDOCK:   -5.09 KCAL/MOL
REMARK 922        TOTAL FREE ENERGY PREDICTED BY IDOCK:   -8.22 KCAL/MOL
REMARK 923 INTER-LIGAND FREE ENERGY PREDICTED BY IDOCK:   -6.72 KCAL/MOL
REMARK 924 INTRA-LIGAND FREE ENERGY PREDICTED BY IDOCK:   -1.50 KCAL/MOL
REMARK 927      BINDING AFFINITY PREDICTED BY RF-SCORE:    0.00 PKD
ROOT
HETATM    1  C   UNL     1      -8.507  10.225  66.783  1.00  0.00    -0.123 C  
HETATM    2  C   UNL     1      -8.346   9.738  68.214  1.00  0.00    -0.106 C  
HETATM    3  C   UNL     1      -9.740   9.276  68.641  1.00  0.00    -0.150 C  
HETATM    4  C   UNL     1     -10.508   8.949  67.343  1.00  0.00    -0.347 C  
HETATM    5  O   UNL     1     -10.421  10.330  69.324  1.00  0.00    -0.199 OA 
HETATM    6  H   UNL     1     -11.287  10.042  69.589  1.00  0.00     0.000 HD 
HETATM    7  C   UNL     1      -9.554   9.295  66.175  1.00  0.00    -0.327 C  
HETATM    8  C   UNL     1      -9.101  11.624  66.663  1.00  0.00    -0.196 C  
HETATM    9  C   UNL     1     -10.346  12.604  64.705  1.00  0.00    -0.354 C  
HETATM   10  C   UNL     1     -10.196  10.105  65.043  1.00  0.00    -0.203 C  
HETATM   11  C   UNL     1      -9.936  11.542  65.416  1.00  0.00    -0.288 C  
ENDROOT
BRANCH   4  12
HETATM   12  C   UNL     1     -10.907   7.494  67.269  1.00  0.00    -0.297 C  
HETATM   13  C   UNL     1     -10.255   6.611  66.496  1.00  0.00    -0.129 C  
BRANCH  13  14
HETATM   14  C   UNL     1     -10.490   5.133  66.515  1.00  0.00    -0.294 C  
HETATM   15  O   UNL     1     -11.434   4.834  65.493  1.00  0.00    -0.935 OA 
HETATM   16  C   UNL     1      -9.191   4.320  66.288  1.00  0.00    -0.146 C  
HETATM   17  H   UNL     1     -11.583   3.896  65.505  1.00  0.00     0.000 HD 
HETATM   18  C   UNL     1      -8.152   4.561  67.403  1.00  0.00    -0.101 C  
HETATM   19  C   UNL     1      -8.554   4.588  64.917  1.00  0.00    -0.135 C  
BRANCH  18  20
HETATM   20  C   UNL     1      -8.710   4.121  68.746  1.00  0.00    -0.128 C  
HETATM   21  C   UNL     1      -9.190   3.744  69.899  1.00  0.00    -0.219 C  
HETATM   22  C   UNL     1      -9.750   3.304  71.242  1.00  0.00    -0.222 C  
ENDBRANCH  18  20
ENDBRANCH  13  14
ENDBRANCH   4  12
BRANCH   9  23
HETATM   23  C   UNL     1     -10.039  14.031  65.073  1.00  0.00    -0.323 C  
BRANCH  23  24
HETATM   24  C   UNL     1     -11.172  14.690  65.865  1.00  0.00    -0.336 C  
BRANCH  24  25
HETATM   25  C   UNL     1     -10.764  15.043  67.294  1.00  0.00    -0.298 C  
HETATM   26  C   UNL     1     -11.400  14.121  68.306  1.00  0.00    -0.291 C  
HETATM   27  O   UNL     1     -12.153  13.195  68.052  1.00  0.00    -0.325 OA 
HETATM   28  O   UNL     1     -11.040  14.437  69.572  1.00  0.00    -0.251 OA 
ENDBRANCH  24  25
ENDBRANCH  23  24
ENDBRANCH   9  23
TORSDOF 6
ENDMDL
MODEL       76
REMARK 921   NORMALIZED FREE ENERGY PREDICTED BY IDOCK:   -5.08 KCAL/MOL
REMARK 922        TOTAL FREE ENERGY PREDICTED BY IDOCK:   -8.21 KCAL/MOL
REMARK 923 INTER-LIGAND FREE ENERGY PREDICTED BY IDOCK:   -6.81 KCAL/MOL
REMARK 924 INTRA-LIGAND FREE ENERGY PREDICTED BY IDOCK:   -1.41 KCAL/MOL
REMARK 927      BINDING AFFINITY PREDICTED BY RF-SCORE:    0.00 PKD
ROOT
HETATM    1  C   UNL     1     -11.201   9.537  68.800  1.00  0.00     0.050 C  
HETATM    2  C   UNL     1     -10.682  10.858  69.346  1.00  0.00    -0.265 C  
HETATM    3  C   UNL     1      -9.297  11.033  68.722  1.00  0.00    -0.179 C  
HETATM    4  C   UNL     1      -9.286  10.181  67.436  1.00  0.00    -0.167 C  
HETATM    5  O   UNL     1      -8.291  10.540  69.608  1.00  0.00    -0.336 OA 
HETATM    6  H   UNL     1      -7.430  10.649  69.219  1.00  0.00     0.000 HD 
HETATM    7  C   UNL     1     -10.658   9.469  67.375  1.00  0.00    -0.337 C  
HETATM    8  C   UNL     1     -10.635   8.307  69.499  1.00  0.00    -0.216 C  
HETATM    9  C   UNL     1     -10.432   5.971  68.579  1.00  0.00    -0.287 C  
HETATM   10  C   UNL     1     -10.589   7.974  67.047  1.00  0.00    -0.364 C  
HETATM   11  C   UNL     1     -10.523   7.297  68.392  1.00  0.00    -0.228 C  
ENDROOT
BRANCH   4  12
HETATM   12  C   UNL     1      -9.087  11.023  66.197  1.00  0.00    -0.208 C  
HETATM   13  C   UNL     1     -10.116  11.448  65.447  1.00  0.00    -0.308 C  
BRANCH  13  14
HETATM   14  C   UNL     1      -9.995  12.424  64.318  1.00  0.00    -0.206 C  
HETATM   15  O   UNL     1      -9.393  11.743  63.223  1.00  0.00    -0.545 OA 
HETATM   16  C   UNL     1     -11.363  13.010  63.888  1.00  0.00    -0.460 C  
HETATM   17  H   UNL     1      -9.317  12.362  62.506  1.00  0.00     0.000 HD 
HETATM   18  C   UNL     1     -12.035  13.812  65.022  1.00  0.00    -0.401 C  
HETATM   19  C   UNL     1     -12.330  11.938  63.365  1.00  0.00    -0.577 C  
BRANCH  18  20
HETATM   20  C   UNL     1     -11.163  14.992  65.420  1.00  0.00    -0.356 C  
HETATM   21  C   UNL     1     -10.415  16.005  65.759  1.00  0.00    -0.391 C  
HETATM   22  C   UNL     1      -9.544  17.185  66.156  1.00  0.00    -0.242 C  
ENDBRANCH  18  20
ENDBRANCH  13  14
ENDBRANCH   4  12
BRANCH   9  23
HETATM   23  C   UNL     1     -10.410   5.313  69.932  1.00  0.00    -0.374 C  
BRANCH  23  24
HETATM   24  C   UNL     1      -9.114   5.591  70.700  1.00  0.00    -0.168 C  
BRANCH  24  25
HETATM   25  C   UNL     1      -7.865   5.290  69.874  1.00  0.00    -0.080 C  
HETATM   26  C   UNL     1      -7.034   6.527  69.636  1.00  0.00    -0.067 C  
HETATM   27  O   UNL     1      -7.294   7.649  70.041  1.00  0.00    -0.076 OA 
HETATM   28  O   UNL     1      -5.929   6.260  68.901  1.00  0.00    -0.019 OA 
ENDBRANCH  24  25
ENDBRANCH  23  24
ENDBRANCH   9  23
TORSDOF 6
ENDMDL
MODEL       77
REMARK 921   NORMALIZED FREE ENERGY PREDICTED BY IDOCK:   -5.04 KCAL/MOL
REMARK 922        TOTAL FREE ENERGY PREDICTED BY IDOCK:   -8.15 KCAL/MOL
REMARK 923 INTER-LIGAND FREE ENERGY PREDICTED BY IDOCK:   -6.98 KCAL/MOL
REMARK 924 INTRA-LIGAND FREE ENERGY PREDICTED BY IDOCK:   -1.17 KCAL/MOL
REMARK 927      BINDING AFFINITY PREDICTED BY RF-SCORE:    0.00 PKD
ROOT
HETATM    1  C   UNL     1     -11.154  10.251  67.130  1.00  0.00    -0.165 C  
HETATM    2  C   UNL     1     -10.989  10.396  68.634  1.00  0.00    -0.288 C  
HETATM    3  C   UNL     1     -10.174  11.676  68.826  1.00  0.00    -0.177 C  
HETATM    4  C   UNL     1     -10.389  12.526  67.555  1.00  0.00    -0.225 C  
HETATM    5  O   UNL     1      -8.785  11.364  68.940  1.00  0.00    -0.322 OA 
HETATM    6  H   UNL     1      -8.279  12.160  69.059  1.00  0.00     0.000 HD 
HETATM    7  C   UNL     1     -11.281  11.682  66.615  1.00  0.00    -0.362 C  
HETATM    8  C   UNL     1      -9.931   9.681  66.420  1.00  0.00    -0.323 C  
HETATM    9  C   UNL     1      -9.277   9.975  64.006  1.00  0.00    -0.318 C  
HETATM   10  C   UNL     1     -10.802  11.625  65.160  1.00  0.00    -0.346 C  
HETATM   11  C   UNL     1      -9.927  10.399  65.101  1.00  0.00    -0.390 C  
ENDROOT
BRANCH   4  12
HETATM   12  C   UNL     1     -11.062  13.844  67.859  1.00  0.00    -0.278 C  
HETATM   13  C   UNL     1     -11.737  14.057  68.999  1.00  0.00    -0.368 C  
BRANCH  13  14
HETATM   14  C   UNL     1     -12.272  15.387  69.432  1.00  0.00    -0.219 C  
HETATM   15  O   UNL     1     -13.510  15.159  70.095  1.00  0.00    -0.515 OA 
HETATM   16  C   UNL     1     -11.300  16.142  70.372  1.00  0.00    -0.377 C  
HETATM   17  H   UNL     1     -13.849  16.003  70.369  1.00  0.00     0.000 HD 
HETATM   18  C   UNL     1      -9.959  16.470  69.683  1.00  0.00    -0.044 C  
HETATM   19  C   UNL     1     -11.040  15.391  71.686  1.00  0.00    -0.273 C  
BRANCH  18  20
HETATM   20  C   UNL     1     -10.191  17.373  68.483  1.00  0.00    -0.369 C  
HETATM   21  C   UNL     1     -10.392  18.148  67.453  1.00  0.00    -0.402 C  
HETATM   22  C   UNL     1     -10.625  19.051  66.253  1.00  0.00    -0.493 C  
ENDBRANCH  18  20
ENDBRANCH  13  14
ENDBRANCH   4  12
BRANCH   9  23
HETATM   23  C   UNL     1      -8.441   8.724  63.957  1.00  0.00    -0.121 C  
BRANCH  23  24
HETATM   24  C   UNL     1      -7.032   8.979  63.416  1.00  0.00    -0.089 C  
BRANCH  24  25
HETATM   25  C   UNL     1      -6.455  10.313  63.883  1.00  0.00    -0.086 C  
HETATM   26  C   UNL     1      -5.689  10.176  65.176  1.00  0.00    -0.107 C  
HETATM   27  O   UNL     1      -5.527   9.141  65.802  1.00  0.00    -0.040 OA 
HETATM   28  O   UNL     1      -5.180  11.360  65.591  1.00  0.00    -0.284 OA 
ENDBRANCH  24  25
ENDBRANCH  23  24
ENDBRANCH   9  23
TORSDOF 6
ENDMDL
MODEL       78
REMARK 921   NORMALIZED FREE ENERGY PREDICTED BY IDOCK:   -5.02 KCAL/MOL
REMARK 922        TOTAL FREE ENERGY PREDICTED BY IDOCK:   -8.12 KCAL/MOL
REMARK 923 INTER-LIGAND FREE ENERGY PREDICTED BY IDOCK:   -6.86 KCAL/MOL
REMARK 924 INTRA-LIGAND FREE ENERGY PREDICTED BY IDOCK:   -1.26 KCAL/MOL
REMARK 927      BINDING AFFINITY PREDICTED BY RF-SCORE:    0.00 PKD
ROOT
HETATM    1  C   UNL     1     -11.442  10.357  68.818  1.00  0.00    -0.240 C  
HETATM    2  C   UNL     1     -10.349  10.538  67.776  1.00  0.00    -0.248 C  
HETATM    3  C   UNL     1      -9.046  10.624  68.573  1.00  0.00    -0.159 C  
HETATM    4  C   UNL     1      -9.312   9.923  69.922  1.00  0.00    -0.250 C  
HETATM    5  O   UNL     1      -8.709  11.989  68.823  1.00  0.00    -0.350 OA 
HETATM    6  H   UNL     1      -7.900  12.041  69.318  1.00  0.00     0.000 HD 
HETATM    7  C   UNL     1     -10.800   9.500  69.906  1.00  0.00    -0.272 C  
HETATM    8  C   UNL     1     -11.855  11.646  69.519  1.00  0.00    -0.414 C  
HETATM    9  C   UNL     1     -12.916  11.888  71.791  1.00  0.00    -0.455 C  
HETATM   10  C   UNL     1     -11.575   9.835  71.185  1.00  0.00    -0.469 C  
HETATM   11  C   UNL     1     -12.167  11.196  70.918  1.00  0.00    -0.468 C  
ENDROOT
BRANCH   4  12
HETATM   12  C   UNL     1      -8.433   8.710  70.117  1.00  0.00    -0.135 C  
HETATM   13  C   UNL     1      -8.910   7.458  70.023  1.00  0.00    -0.141 C  
BRANCH  13  14
HETATM   14  C   UNL     1      -8.060   6.226  70.031  1.00  0.00    -0.120 C  
HETATM   15  O   UNL     1      -6.835   6.551  70.678  1.00  0.00    -0.059 OA 
HETATM   16  C   UNL     1      -8.741   5.038  70.755  1.00  0.00    -0.144 C  
HETATM   17  H   UNL     1      -6.296   5.769  70.684  1.00  0.00     0.000 HD 
HETATM   18  C   UNL     1     -10.047   4.603  70.057  1.00  0.00    -0.267 C  
HETATM   19  C   UNL     1      -9.013   5.323  72.238  1.00  0.00    -0.136 C  
BRANCH  18  20
HETATM   20  C   UNL     1      -9.756   4.138  68.640  1.00  0.00    -0.157 C  
HETATM   21  C   UNL     1      -9.507   3.741  67.423  1.00  0.00    -0.239 C  
HETATM   22  C   UNL     1      -9.217   3.278  66.005  1.00  0.00    -0.151 C  
ENDBRANCH  18  20
ENDBRANCH  13  14
ENDBRANCH   4  12
BRANCH   9  23
HETATM   23  C   UNL     1     -13.533  13.228  71.489  1.00  0.00    -0.257 C  
BRANCH  23  24
HETATM   24  C   UNL     1     -12.547  14.384  71.675  1.00  0.00    -0.429 C  
BRANCH  24  25
HETATM   25  C   UNL     1     -12.685  15.455  70.594  1.00  0.00    -0.490 C  
HETATM   26  C   UNL     1     -11.493  15.481  69.670  1.00  0.00    -0.329 C  
HETATM   27  O   UNL     1     -10.518  14.750  69.743  1.00  0.00    -0.175 OA 
HETATM   28  O   UNL     1     -11.615  16.432  68.714  1.00  0.00    -0.308 OA 
ENDBRANCH  24  25
ENDBRANCH  23  24
ENDBRANCH   9  23
TORSDOF 6
ENDMDL
MODEL       79
REMARK 921   NORMALIZED FREE ENERGY PREDICTED BY IDOCK:   -5.00 KCAL/MOL
REMARK 922        TOTAL FREE ENERGY PREDICTED BY IDOCK:   -8.10 KCAL/MOL
REMARK 923 INTER-LIGAND FREE ENERGY PREDICTED BY IDOCK:   -7.46 KCAL/MOL
REMARK 924 INTRA-LIGAND FREE ENERGY PREDICTED BY IDOCK:   -0.64 KCAL/MOL
REMARK 927      BINDING AFFINITY PREDICTED BY RF-SCORE:    0.00 PKD
ROOT
HETATM    1  C   UNL     1      -9.395  10.835  66.604  1.00  0.00    -0.188 C  
HETATM    2  C   UNL     1      -9.817  12.033  65.768  1.00  0.00    -0.263 C  
HETATM    3  C   UNL     1     -10.983  12.663  66.531  1.00  0.00    -0.269 C  
HETATM    4  C   UNL     1     -10.834  12.219  68.001  1.00  0.00    -0.253 C  
HETATM    5  O   UNL     1     -12.226  12.171  66.027  1.00  0.00    -0.609 OA 
HETATM    6  H   UNL     1     -12.950  12.562  66.501  1.00  0.00     0.000 HD 
HETATM    7  C   UNL     1      -9.608  11.278  68.049  1.00  0.00    -0.182 C  
HETATM    8  C   UNL     1     -10.284   9.608  66.429  1.00  0.00    -0.288 C  
HETATM    9  C   UNL     1     -10.628   7.714  68.053  1.00  0.00    -0.213 C  
HETATM   10  C   UNL     1      -9.828   9.980  68.834  1.00  0.00    -0.187 C  
HETATM   11  C   UNL     1     -10.296   8.990  67.798  1.00  0.00    -0.304 C  
ENDROOT
BRANCH   4  12
HETATM   12  C   UNL     1     -10.620  13.392  68.930  1.00  0.00    -0.181 C  
HETATM   13  C   UNL     1      -9.636  14.284  68.741  1.00  0.00    -0.153 C  
BRANCH  13  14
HETATM   14  C   UNL     1      -9.482  15.554  69.520  1.00  0.00    -0.269 C  
HETATM   15  O   UNL     1      -8.207  16.102  69.204  1.00  0.00    -0.233 OA 
HETATM   16  C   UNL     1     -10.594  16.585  69.202  1.00  0.00    -0.319 C  
HETATM   17  H   UNL     1      -8.110  16.907  69.698  1.00  0.00     0.000 HD 
HETATM   18  C   UNL     1     -11.996  16.065  69.582  1.00  0.00    -0.189 C  
HETATM   19  C   UNL     1     -10.585  17.034  67.734  1.00  0.00    -0.350 C  
BRANCH  18  20
HETATM   20  C   UNL     1     -12.069  15.794  71.076  1.00  0.00    -0.464 C  
HETATM   21  C   UNL     1     -12.133  15.561  72.357  1.00  0.00    -0.527 C  
HETATM   22  C   UNL     1     -12.206  15.288  73.851  1.00  0.00    -0.735 C  
ENDBRANCH  18  20
ENDBRANCH  13  14
ENDBRANCH   4  12
BRANCH   9  23
HETATM   23  C   UNL     1     -11.053   6.730  66.996  1.00  0.00    -0.369 C  
BRANCH  23  24
HETATM   24  C   UNL     1     -10.435   5.344  67.202  1.00  0.00    -0.298 C  
BRANCH  24  25
HETATM   25  C   UNL     1     -10.460   4.495  65.932  1.00  0.00    -0.262 C  
HETATM   26  C   UNL     1      -9.071   4.099  65.491  1.00  0.00    -0.138 C  
HETATM   27  O   UNL     1      -8.032   4.400  66.055  1.00  0.00    -0.097 OA 
HETATM   28  O   UNL     1      -9.094   3.350  64.364  1.00  0.00    -0.118 OA 
ENDBRANCH  24  25
ENDBRANCH  23  24
ENDBRANCH   9  23
TORSDOF 6
ENDMDL
MODEL       80
REMARK 921   NORMALIZED FREE ENERGY PREDICTED BY IDOCK:   -5.00 KCAL/MOL
REMARK 922        TOTAL FREE ENERGY PREDICTED BY IDOCK:   -8.10 KCAL/MOL
REMARK 923 INTER-LIGAND FREE ENERGY PREDICTED BY IDOCK:   -7.15 KCAL/MOL
REMARK 924 INTRA-LIGAND FREE ENERGY PREDICTED BY IDOCK:   -0.94 KCAL/MOL
REMARK 927      BINDING AFFINITY PREDICTED BY RF-SCORE:    0.00 PKD
ROOT
HETATM    1  C   UNL     1     -11.973  12.808  64.750  1.00  0.00    -0.455 C  
HETATM    2  C   UNL     1     -11.716  12.008  63.483  1.00  0.00    -0.566 C  
HETATM    3  C   UNL     1     -10.353  11.348  63.694  1.00  0.00    -0.410 C  
HETATM    4  C   UNL     1     -10.132  11.280  65.220  1.00  0.00    -0.318 C  
HETATM    5  O   UNL     1      -9.322  12.150  63.117  1.00  0.00    -0.652 OA 
HETATM    6  H   UNL     1      -8.475  11.739  63.249  1.00  0.00     0.000 HD 
HETATM    7  C   UNL     1     -11.357  11.969  65.867  1.00  0.00    -0.391 C  
HETATM    8  C   UNL     1     -11.239  14.143  64.805  1.00  0.00    -0.379 C  
HETATM    9  C   UNL     1     -10.591  15.460  66.852  1.00  0.00    -0.309 C  
HETATM   10  C   UNL     1     -11.015  12.972  66.975  1.00  0.00    -0.289 C  
HETATM   11  C   UNL     1     -10.900  14.295  66.261  1.00  0.00    -0.310 C  
ENDROOT
BRANCH   4  12
HETATM   12  C   UNL     1     -10.020   9.857  65.716  1.00  0.00    -0.347 C  
HETATM   13  C   UNL     1      -8.906   9.127  65.552  1.00  0.00    -0.229 C  
BRANCH  13  14
HETATM   14  C   UNL     1      -8.674   7.784  66.172  1.00  0.00    -0.156 C  
HETATM   15  O   UNL     1      -9.878   7.036  66.042  1.00  0.00    -0.407 OA 
HETATM   16  C   UNL     1      -7.502   7.018  65.510  1.00  0.00    -0.086 C  
HETATM   17  H   UNL     1      -9.730   6.184  66.435  1.00  0.00     0.000 HD 
HETATM   18  C   UNL     1      -6.157   7.756  65.674  1.00  0.00    -0.038 C  
HETATM   19  C   UNL     1      -7.752   6.715  64.026  1.00  0.00    -0.112 C  
BRANCH  18  20
HETATM   20  C   UNL     1      -5.809   7.894  67.147  1.00  0.00    -0.041 C  
HETATM   21  C   UNL     1      -5.510   8.014  68.410  1.00  0.00    -0.032 C  
HETATM   22  C   UNL     1      -5.161   8.154  69.883  1.00  0.00    -0.023 C  
ENDBRANCH  18  20
ENDBRANCH  13  14
ENDBRANCH   4  12
BRANCH   9  23
HETATM   23  C   UNL     1     -10.523  16.777  66.128  1.00  0.00    -0.282 C  
BRANCH  23  24
HETATM   24  C   UNL     1      -9.266  17.578  66.480  1.00  0.00    -0.286 C  
BRANCH  24  25
HETATM   25  C   UNL     1      -7.978  16.816  66.175  1.00  0.00    -0.273 C  
HETATM   26  C   UNL     1      -6.759  17.535  66.699  1.00  0.00    -0.221 C  
HETATM   27  O   UNL     1      -6.762  18.597  67.301  1.00  0.00    -0.199 OA 
HETATM   28  O   UNL     1      -5.618  16.861  66.425  1.00  0.00    -0.341 OA 
ENDBRANCH  24  25
ENDBRANCH  23  24
ENDBRANCH   9  23
TORSDOF 6
ENDMDL
MODEL       81
REMARK 921   NORMALIZED FREE ENERGY PREDICTED BY IDOCK:   -4.99 KCAL/MOL
REMARK 922        TOTAL FREE ENERGY PREDICTED BY IDOCK:   -8.08 KCAL/MOL
REMARK 923 INTER-LIGAND FREE ENERGY PREDICTED BY IDOCK:   -7.05 KCAL/MOL
REMARK 924 INTRA-LIGAND FREE ENERGY PREDICTED BY IDOCK:   -1.03 KCAL/MOL
REMARK 927      BINDING AFFINITY PREDICTED BY RF-SCORE:    0.00 PKD
ROOT
HETATM    1  C   UNL     1     -12.006  12.296  68.020  1.00  0.00    -0.251 C  
HETATM    2  C   UNL     1     -11.306  11.136  67.330  1.00  0.00    -0.302 C  
HETATM    3  C   UNL     1     -10.202  10.702  68.295  1.00  0.00    -0.166 C  
HETATM    4  C   UNL     1     -10.637  11.177  69.698  1.00  0.00    -0.076 C  
HETATM    5  O   UNL     1      -8.971  11.340  67.956  1.00  0.00    -0.144 OA 
HETATM    6  H   UNL     1      -8.285  11.070  68.557  1.00  0.00     0.000 HD 
HETATM    7  C   UNL     1     -11.967  11.942  69.504  1.00  0.00    -0.355 C  
HETATM    8  C   UNL     1     -11.267  13.625  67.909  1.00  0.00    -0.300 C  
HETATM    9  C   UNL     1     -11.432  15.610  69.451  1.00  0.00    -0.354 C  
HETATM   10  C   UNL     1     -12.044  13.287  70.235  1.00  0.00    -0.405 C  
HETATM   11  C   UNL     1     -11.551  14.292  69.225  1.00  0.00    -0.350 C  
ENDROOT
BRANCH   4  12
HETATM   12  C   UNL     1     -10.841  10.023  70.652  1.00  0.00    -0.367 C  
HETATM   13  C   UNL     1     -11.054   8.769  70.223  1.00  0.00    -0.240 C  
BRANCH  13  14
HETATM   14  C   UNL     1     -11.088   7.563  71.111  1.00  0.00    -0.251 C  
HETATM   15  O   UNL     1     -12.452   7.203  71.297  1.00  0.00    -0.356 OA 
HETATM   16  C   UNL     1     -10.302   6.367  70.521  1.00  0.00    -0.247 C  
HETATM   17  H   UNL     1     -12.474   6.439  71.860  1.00  0.00     0.000 HD 
HETATM   18  C   UNL     1      -8.801   6.683  70.355  1.00  0.00    -0.152 C  
HETATM   19  C   UNL     1     -10.882   5.874  69.188  1.00  0.00    -0.406 C  
BRANCH  18  20
HETATM   20  C   UNL     1      -8.175   6.990  71.705  1.00  0.00    -0.104 C  
HETATM   21  C   UNL     1      -7.638   7.255  72.864  1.00  0.00    -0.085 C  
HETATM   22  C   UNL     1      -7.013   7.563  74.214  1.00  0.00    -0.113 C  
ENDBRANCH  18  20
ENDBRANCH  13  14
ENDBRANCH   4  12
BRANCH   9  23
HETATM   23  C   UNL     1     -10.977  16.601  68.415  1.00  0.00    -0.345 C  
BRANCH  23  24
HETATM   24  C   UNL     1      -9.459  16.803  68.420  1.00  0.00    -0.241 C  
BRANCH  24  25
HETATM   25  C   UNL     1      -9.044  18.168  67.876  1.00  0.00    -0.270 C  
HETATM   26  C   UNL     1      -8.885  18.154  66.376  1.00  0.00    -0.236 C  
HETATM   27  O   UNL     1      -9.059  17.189  65.650  1.00  0.00    -0.500 OA 
HETATM   28  O   UNL     1      -8.515  19.365  65.895  1.00  0.00    -0.433 OA 
ENDBRANCH  24  25
ENDBRANCH  23  24
ENDBRANCH   9  23
TORSDOF 6
ENDMDL
MODEL       82
REMARK 921   NORMALIZED FREE ENERGY PREDICTED BY IDOCK:   -4.98 KCAL/MOL
REMARK 922        TOTAL FREE ENERGY PREDICTED BY IDOCK:   -8.07 KCAL/MOL
REMARK 923 INTER-LIGAND FREE ENERGY PREDICTED BY IDOCK:   -6.52 KCAL/MOL
REMARK 924 INTRA-LIGAND FREE ENERGY PREDICTED BY IDOCK:   -1.55 KCAL/MOL
REMARK 927      BINDING AFFINITY PREDICTED BY RF-SCORE:    0.00 PKD
ROOT
HETATM    1  C   UNL     1     -11.237  12.823  66.917  1.00  0.00    -0.339 C  
HETATM    2  C   UNL     1     -12.160  13.560  67.874  1.00  0.00    -0.304 C  
HETATM    3  C   UNL     1     -11.298  13.878  69.097  1.00  0.00    -0.286 C  
HETATM    4  C   UNL     1      -9.833  13.867  68.614  1.00  0.00    -0.175 C  
HETATM    5  O   UNL     1     -11.461  12.866  70.091  1.00  0.00    -0.518 OA 
HETATM    6  H   UNL     1     -10.926  13.063  70.851  1.00  0.00     0.000 HD 
HETATM    7  C   UNL     1      -9.871  13.474  67.118  1.00  0.00    -0.245 C  
HETATM    8  C   UNL     1     -11.030  11.352  67.259  1.00  0.00    -0.336 C  
HETATM    9  C   UNL     1      -9.080   9.886  66.632  1.00  0.00    -0.171 C  
HETATM   10  C   UNL     1      -8.856  12.401  66.712  1.00  0.00    -0.189 C  
HETATM   11  C   UNL     1      -9.602  11.100  66.866  1.00  0.00    -0.208 C  
ENDROOT
BRANCH   4  12
HETATM   12  C   UNL     1      -9.170  15.215  68.776  1.00  0.00    -0.200 C  
HETATM   13  C   UNL     1      -7.840  15.349  68.894  1.00  0.00    -0.177 C  
BRANCH  13  14
HETATM   14  C   UNL     1      -7.116  16.660  68.880  1.00  0.00    -0.205 C  
HETATM   15  O   UNL     1      -6.242  16.682  70.003  1.00  0.00    -0.206 OA 
HETATM   16  C   UNL     1      -6.307  16.880  67.577  1.00  0.00    -0.179 C  
HETATM   17  H   UNL     1      -5.783  17.513  69.994  1.00  0.00     0.000 HD 
HETATM   18  C   UNL     1      -7.213  16.925  66.330  1.00  0.00    -0.269 C  
HETATM   19  C   UNL     1      -5.202  15.832  67.380  1.00  0.00     0.023 C  
BRANCH  18  20
HETATM   20  C   UNL     1      -8.192  18.083  66.433  1.00  0.00    -0.285 C  
HETATM   21  C   UNL     1      -9.034  19.076  66.522  1.00  0.00    -0.340 C  
HETATM   22  C   UNL     1     -10.014  20.233  66.625  1.00  0.00    -0.561 C  
ENDBRANCH  18  20
ENDBRANCH  13  14
ENDBRANCH   4  12
BRANCH   9  23
HETATM   23  C   UNL     1      -9.856   8.601  66.751  1.00  0.00    -0.322 C  
BRANCH  23  24
HETATM   24  C   UNL     1      -9.513   7.824  68.025  1.00  0.00    -0.153 C  
BRANCH  24  25
HETATM   25  C   UNL     1     -10.696   7.712  68.983  1.00  0.00    -0.134 C  
HETATM   26  C   UNL     1     -10.669   8.788  70.041  1.00  0.00    -0.228 C  
HETATM   27  O   UNL     1      -9.822   9.660  70.149  1.00  0.00    -0.233 OA 
HETATM   28  O   UNL     1     -11.717   8.686  70.892  1.00  0.00    -0.282 OA 
ENDBRANCH  24  25
ENDBRANCH  23  24
ENDBRANCH   9  23
TORSDOF 6
ENDMDL
MODEL       83
REMARK 921   NORMALIZED FREE ENERGY PREDICTED BY IDOCK:   -4.95 KCAL/MOL
REMARK 922        TOTAL FREE ENERGY PREDICTED BY IDOCK:   -8.04 KCAL/MOL
REMARK 923 INTER-LIGAND FREE ENERGY PREDICTED BY IDOCK:   -6.69 KCAL/MOL
REMARK 924 INTRA-LIGAND FREE ENERGY PREDICTED BY IDOCK:   -1.35 KCAL/MOL
REMARK 927      BINDING AFFINITY PREDICTED BY RF-SCORE:    0.00 PKD
ROOT
HETATM    1  C   UNL     1      -8.172   9.239  67.815  1.00  0.00    -0.115 C  
HETATM    2  C   UNL     1      -7.181   8.939  66.702  1.00  0.00    -0.085 C  
HETATM    3  C   UNL     1      -8.038   8.564  65.492  1.00  0.00    -0.126 C  
HETATM    4  C   UNL     1      -9.425   9.201  65.724  1.00  0.00    -0.322 C  
HETATM    5  O   UNL     1      -8.192   7.146  65.417  1.00  0.00    -0.131 OA 
HETATM    6  H   UNL     1      -8.724   6.913  64.666  1.00  0.00     0.000 HD 
HETATM    7  C   UNL     1      -9.362   9.885  67.110  1.00  0.00    -0.170 C  
HETATM    8  C   UNL     1      -8.740   7.998  68.495  1.00  0.00    -0.131 C  
HETATM    9  C   UNL     1     -10.922   7.786  69.737  1.00  0.00    -0.162 C  
HETATM   10  C   UNL     1     -10.564   9.603  68.018  1.00  0.00    -0.292 C  
HETATM   11  C   UNL     1     -10.153   8.394  68.819  1.00  0.00    -0.209 C  
ENDROOT
BRANCH   4  12
HETATM   12  C   UNL     1      -9.768  10.219  64.662  1.00  0.00    -0.398 C  
HETATM   13  C   UNL     1     -10.162  11.465  64.966  1.00  0.00    -0.333 C  
BRANCH  13  14
HETATM   14  C   UNL     1     -10.345  12.564  63.965  1.00  0.00    -0.404 C  
HETATM   15  O   UNL     1     -10.127  12.010  62.672  1.00  0.00    -0.334 OA 
HETATM   16  C   UNL     1     -11.754  13.204  64.035  1.00  0.00    -0.496 C  
HETATM   17  H   UNL     1     -10.244  12.707  62.038  1.00  0.00     0.000 HD 
HETATM   18  C   UNL     1     -12.022  13.875  65.398  1.00  0.00    -0.393 C  
HETATM   19  C   UNL     1     -12.876  12.207  63.715  1.00  0.00    -0.451 C  
BRANCH  18  20
HETATM   20  C   UNL     1     -11.023  14.995  65.638  1.00  0.00    -0.357 C  
HETATM   21  C   UNL     1     -10.166  15.956  65.844  1.00  0.00    -0.373 C  
HETATM   22  C   UNL     1      -9.166  17.076  66.084  1.00  0.00    -0.244 C  
ENDBRANCH  18  20
ENDBRANCH  13  14
ENDBRANCH   4  12
BRANCH   9  23
HETATM   23  C   UNL     1     -10.476   6.605  70.556  1.00  0.00    -0.240 C  
BRANCH  23  24
HETATM   24  C   UNL     1     -10.737   5.270  69.854  1.00  0.00    -0.196 C  
BRANCH  24  25
HETATM   25  C   UNL     1      -9.508   4.742  69.116  1.00  0.00    -0.215 C  
HETATM   26  C   UNL     1      -9.665   4.838  67.618  1.00  0.00    -0.160 C  
HETATM   27  O   UNL     1     -10.639   5.280  67.030  1.00  0.00    -0.244 OA 
HETATM   28  O   UNL     1      -8.576   4.367  66.965  1.00  0.00    -0.104 OA 
ENDBRANCH  24  25
ENDBRANCH  23  24
ENDBRANCH   9  23
TORSDOF 6
ENDMDL
MODEL       84
REMARK 921   NORMALIZED FREE ENERGY PREDICTED BY IDOCK:   -4.92 KCAL/MOL
REMARK 922        TOTAL FREE ENERGY PREDICTED BY IDOCK:   -7.99 KCAL/MOL
REMARK 923 INTER-LIGAND FREE ENERGY PREDICTED BY IDOCK:   -6.97 KCAL/MOL
REMARK 924 INTRA-LIGAND FREE ENERGY PREDICTED BY IDOCK:   -1.01 KCAL/MOL
REMARK 927      BINDING AFFINITY PREDICTED BY RF-SCORE:    0.00 PKD
ROOT
HETATM    1  C   UNL     1      -7.841  10.466  68.684  1.00  0.00    -0.108 C  
HETATM    2  C   UNL     1      -6.497  11.131  68.432  1.00  0.00    -0.057 C  
HETATM    3  C   UNL     1      -6.745  12.117  67.289  1.00  0.00    -0.144 C  
HETATM    4  C   UNL     1      -8.256  12.434  67.306  1.00  0.00    -0.184 C  
HETATM    5  O   UNL     1      -6.417  11.513  66.037  1.00  0.00    -0.367 OA 
HETATM    6  H   UNL     1      -6.571  12.126  65.327  1.00  0.00     0.000 HD 
HETATM    7  C   UNL     1      -8.869  11.565  68.429  1.00  0.00    -0.163 C  
HETATM    8  C   UNL     1      -8.186   9.361  67.691  1.00  0.00    -0.114 C  
HETATM    9  C   UNL     1     -10.475   8.514  67.066  1.00  0.00    -0.362 C  
HETATM   10  C   UNL     1     -10.153  10.825  68.036  1.00  0.00    -0.198 C  
HETATM   11  C   UNL     1      -9.675   9.486  67.536  1.00  0.00    -0.194 C  
ENDROOT
BRANCH   4  12
HETATM   12  C   UNL     1      -8.527  13.895  67.578  1.00  0.00    -0.200 C  
HETATM   13  C   UNL     1      -9.131  14.314  68.701  1.00  0.00    -0.160 C  
BRANCH  13  14
HETATM   14  C   UNL     1      -9.269  15.749  69.105  1.00  0.00    -0.256 C  
HETATM   15  O   UNL     1      -8.100  16.433  68.668  1.00  0.00    -0.194 OA 
HETATM   16  C   UNL     1     -10.529  16.419  68.503  1.00  0.00    -0.291 C  
HETATM   17  H   UNL     1      -8.187  17.344  68.924  1.00  0.00     0.000 HD 
HETATM   18  C   UNL     1     -11.832  15.753  68.992  1.00  0.00    -0.367 C  
HETATM   19  C   UNL     1     -10.506  16.454  66.968  1.00  0.00    -0.291 C  
BRANCH  18  20
HETATM   20  C   UNL     1     -11.952  15.879  70.502  1.00  0.00    -0.360 C  
HETATM   21  C   UNL     1     -12.057  15.989  71.797  1.00  0.00    -0.570 C  
HETATM   22  C   UNL     1     -12.180  16.115  73.306  1.00  0.00    -0.639 C  
ENDBRANCH  18  20
ENDBRANCH  13  14
ENDBRANCH   4  12
BRANCH   9  23
HETATM   23  C   UNL     1      -9.981   7.168  66.611  1.00  0.00    -0.234 C  
BRANCH  23  24
HETATM   24  C   UNL     1     -10.666   6.011  67.344  1.00  0.00    -0.393 C  
BRANCH  24  25
HETATM   25  C   UNL     1      -9.928   5.603  68.618  1.00  0.00    -0.213 C  
HETATM   26  C   UNL     1     -10.743   5.885  69.857  1.00  0.00    -0.336 C  
HETATM   27  O   UNL     1     -11.860   6.376  69.879  1.00  0.00    -0.384 OA 
HETATM   28  O   UNL     1     -10.087   5.526  70.985  1.00  0.00    -0.190 OA 
ENDBRANCH  24  25
ENDBRANCH  23  24
ENDBRANCH   9  23
TORSDOF 6
ENDMDL
MODEL       85
REMARK 921   NORMALIZED FREE ENERGY PREDICTED BY IDOCK:   -4.89 KCAL/MOL
REMARK 922        TOTAL FREE ENERGY PREDICTED BY IDOCK:   -7.96 KCAL/MOL
REMARK 923 INTER-LIGAND FREE ENERGY PREDICTED BY IDOCK:   -6.77 KCAL/MOL
REMARK 924 INTRA-LIGAND FREE ENERGY PREDICTED BY IDOCK:   -1.19 KCAL/MOL
REMARK 927      BINDING AFFINITY PREDICTED BY RF-SCORE:    0.00 PKD
ROOT
HETATM    1  C   UNL     1     -10.159  11.567  65.451  1.00  0.00    -0.304 C  
HETATM    2  C   UNL     1     -11.547  12.012  65.883  1.00  0.00    -0.364 C  
HETATM    3  C   UNL     1     -11.533  11.942  67.411  1.00  0.00    -0.323 C  
HETATM    4  C   UNL     1     -10.054  12.043  67.840  1.00  0.00    -0.199 C  
HETATM    5  O   UNL     1     -12.055  10.688  67.852  1.00  0.00    -0.649 OA 
HETATM    6  H   UNL     1     -12.046  10.645  68.802  1.00  0.00     0.000 HD 
HETATM    7  C   UNL     1      -9.227  12.103  66.534  1.00  0.00    -0.216 C  
HETATM    8  C   UNL     1      -9.957  10.056  65.466  1.00  0.00    -0.367 C  
HETATM    9  C   UNL     1      -7.786   8.797  65.680  1.00  0.00    -0.091 C  
HETATM   10  C   UNL     1      -8.008  11.174  66.505  1.00  0.00    -0.158 C  
HETATM   11  C   UNL     1      -8.522   9.901  65.883  1.00  0.00    -0.137 C  
ENDROOT
BRANCH   4  12
HETATM   12  C   UNL     1      -9.786  13.271  68.677  1.00  0.00    -0.096 C  
HETATM   13  C   UNL     1      -9.740  14.503  68.146  1.00  0.00    -0.219 C  
BRANCH  13  14
HETATM   14  C   UNL     1      -9.654  15.768  68.944  1.00  0.00    -0.229 C  
HETATM   15  O   UNL     1     -10.002  15.453  70.288  1.00  0.00    -0.449 OA 
HETATM   16  C   UNL     1      -8.244  16.405  68.899  1.00  0.00    -0.235 C  
HETATM   17  H   UNL     1      -9.947  16.255  70.794  1.00  0.00     0.000 HD 
HETATM   18  C   UNL     1      -7.839  16.822  67.470  1.00  0.00    -0.187 C  
HETATM   19  C   UNL     1      -7.162  15.499  69.503  1.00  0.00    -0.201 C  
BRANCH  18  20
HETATM   20  C   UNL     1      -8.805  17.866  66.933  1.00  0.00    -0.263 C  
HETATM   21  C   UNL     1      -9.633  18.761  66.471  1.00  0.00    -0.369 C  
HETATM   22  C   UNL     1     -10.598  19.804  65.932  1.00  0.00    -0.557 C  
ENDBRANCH  18  20
ENDBRANCH  13  14
ENDBRANCH   4  12
BRANCH   9  23
HETATM   23  C   UNL     1      -8.308   7.549  65.019  1.00  0.00    -0.068 C  
BRANCH  23  24
HETATM   24  C   UNL     1      -8.342   6.350  65.971  1.00  0.00    -0.132 C  
BRANCH  24  25
HETATM   25  C   UNL     1      -9.151   6.625  67.236  1.00  0.00    -0.119 C  
HETATM   26  C   UNL     1     -10.436   5.834  67.267  1.00  0.00    -0.266 C  
HETATM   27  O   UNL     1     -10.816   5.057  66.406  1.00  0.00    -0.257 OA 
HETATM   28  O   UNL     1     -11.154   6.081  68.388  1.00  0.00    -0.314 OA 
ENDBRANCH  24  25
ENDBRANCH  23  24
ENDBRANCH   9  23
TORSDOF 6
ENDMDL
MODEL       86
REMARK 921   NORMALIZED FREE ENERGY PREDICTED BY IDOCK:   -4.84 KCAL/MOL
REMARK 922        TOTAL FREE ENERGY PREDICTED BY IDOCK:   -7.89 KCAL/MOL
REMARK 923 INTER-LIGAND FREE ENERGY PREDICTED BY IDOCK:   -6.76 KCAL/MOL
REMARK 924 INTRA-LIGAND FREE ENERGY PREDICTED BY IDOCK:   -1.13 KCAL/MOL
REMARK 927      BINDING AFFINITY PREDICTED BY RF-SCORE:    0.00 PKD
ROOT
HETATM    1  C   UNL     1      -8.079   9.397  66.577  1.00  0.00    -0.111 C  
HETATM    2  C   UNL     1      -7.406   9.693  65.246  1.00  0.00    -0.113 C  
HETATM    3  C   UNL     1      -8.537   9.700  64.217  1.00  0.00    -0.191 C  
HETATM    4  C   UNL     1      -9.836   9.998  64.997  1.00  0.00    -0.374 C  
HETATM    5  O   UNL     1      -8.655   8.415  63.604  1.00  0.00    -0.402 OA 
HETATM    6  H   UNL     1      -9.358   8.420  62.965  1.00  0.00     0.000 HD 
HETATM    7  C   UNL     1      -9.434  10.094  66.487  1.00  0.00    -0.214 C  
HETATM    8  C   UNL     1      -8.404   7.923  66.797  1.00  0.00    -0.120 C  
HETATM    9  C   UNL     1     -10.172   6.946  68.301  1.00  0.00    -0.201 C  
HETATM   10  C   UNL     1     -10.344   9.317  67.446  1.00  0.00    -0.327 C  
HETATM   11  C   UNL     1      -9.694   7.963  67.565  1.00  0.00    -0.204 C  
ENDROOT
BRANCH   4  12
HETATM   12  C   UNL     1     -10.482  11.290  64.554  1.00  0.00    -0.396 C  
HETATM   13  C   UNL     1     -10.218  12.464  65.148  1.00  0.00    -0.305 C  
BRANCH  13  14
HETATM   14  C   UNL     1     -10.688  13.793  64.645  1.00  0.00    -0.414 C  
HETATM   15  O   UNL     1     -11.450  13.563  63.466  1.00  0.00    -0.613 OA 
HETATM   16  C   UNL     1     -11.545  14.554  65.688  1.00  0.00    -0.344 C  
HETATM   17  H   UNL     1     -11.749  14.406  63.147  1.00  0.00     0.000 HD 
HETATM   18  C   UNL     1     -10.748  14.884  66.967  1.00  0.00    -0.307 C  
HETATM   19  C   UNL     1     -12.835  13.808  66.055  1.00  0.00    -0.294 C  
BRANCH  18  20
HETATM   20  C   UNL     1      -9.569  15.784  66.634  1.00  0.00    -0.266 C  
HETATM   21  C   UNL     1      -8.557  16.555  66.348  1.00  0.00    -0.347 C  
HETATM   22  C   UNL     1      -7.378  17.454  66.015  1.00  0.00    -0.265 C  
ENDBRANCH  18  20
ENDBRANCH  13  14
ENDBRANCH   4  12
BRANCH   9  23
HETATM   23  C   UNL     1      -9.485   5.614  68.440  1.00  0.00    -0.142 C  
BRANCH  23  24
HETATM   24  C   UNL     1      -9.933   4.849  69.688  1.00  0.00    -0.302 C  
BRANCH  24  25
HETATM   25  C   UNL     1      -8.780   4.564  70.648  1.00  0.00    -0.127 C  
HETATM   26  C   UNL     1      -8.689   5.599  71.743  1.00  0.00    -0.136 C  
HETATM   27  O   UNL     1      -9.429   6.559  71.879  1.00  0.00    -0.153 OA 
HETATM   28  O   UNL     1      -7.665   5.347  72.592  1.00  0.00    -0.096 OA 
ENDBRANCH  24  25
ENDBRANCH  23  24
ENDBRANCH   9  23
TORSDOF 6
ENDMDL
MODEL       87
REMARK 921   NORMALIZED FREE ENERGY PREDICTED BY IDOCK:   -4.84 KCAL/MOL
REMARK 922        TOTAL FREE ENERGY PREDICTED BY IDOCK:   -7.88 KCAL/MOL
REMARK 923 INTER-LIGAND FREE ENERGY PREDICTED BY IDOCK:   -6.88 KCAL/MOL
REMARK 924 INTRA-LIGAND FREE ENERGY PREDICTED BY IDOCK:   -0.99 KCAL/MOL
REMARK 927      BINDING AFFINITY PREDICTED BY RF-SCORE:    0.00 PKD
ROOT
HETATM    1  C   UNL     1     -11.785  12.099  65.987  1.00  0.00    -0.388 C  
HETATM    2  C   UNL     1     -11.928  11.986  64.478  1.00  0.00    -0.350 C  
HETATM    3  C   UNL     1     -10.497  11.912  63.943  1.00  0.00    -0.397 C  
HETATM    4  C   UNL     1      -9.623  11.398  65.106  1.00  0.00    -0.258 C  
HETATM    5  O   UNL     1     -10.043  13.212  63.567  1.00  0.00    -0.587 OA 
HETATM    6  H   UNL     1      -9.154  13.165  63.235  1.00  0.00     0.000 HD 
HETATM    7  C   UNL     1     -10.564  11.246  66.324  1.00  0.00    -0.315 C  
HETATM    8  C   UNL     1     -11.437  13.501  66.477  1.00  0.00    -0.365 C  
HETATM    9  C   UNL     1     -10.288  14.137  68.627  1.00  0.00    -0.243 C  
HETATM   10  C   UNL     1     -10.019  11.831  67.631  1.00  0.00    -0.204 C  
HETATM   11  C   UNL     1     -10.542  13.244  67.657  1.00  0.00    -0.242 C  
ENDROOT
BRANCH   4  12
HETATM   12  C   UNL     1      -8.975  10.071  64.788  1.00  0.00    -0.247 C  
HETATM   13  C   UNL     1      -8.524   9.245  65.746  1.00  0.00    -0.144 C  
BRANCH  13  14
HETATM   14  C   UNL     1      -8.037   7.850  65.503  1.00  0.00    -0.130 C  
HETATM   15  O   UNL     1      -7.893   7.683  64.097  1.00  0.00    -0.129 OA 
HETATM   16  C   UNL     1      -6.690   7.559  66.209  1.00  0.00    -0.057 C  
HETATM   17  H   UNL     1      -7.584   6.799  63.943  1.00  0.00     0.000 HD 
HETATM   18  C   UNL     1      -6.802   7.668  67.744  1.00  0.00    -0.068 C  
HETATM   19  C   UNL     1      -5.549   8.455  65.706  1.00  0.00    -0.039 C  
BRANCH  18  20
HETATM   20  C   UNL     1      -7.799   6.648  68.272  1.00  0.00    -0.110 C  
HETATM   21  C   UNL     1      -8.654   5.774  68.723  1.00  0.00    -0.109 C  
HETATM   22  C   UNL     1      -9.651   4.754  69.250  1.00  0.00    -0.243 C  
ENDBRANCH  18  20
ENDBRANCH  13  14
ENDBRANCH   4  12
BRANCH   9  23
HETATM   23  C   UNL     1     -10.855  15.531  68.654  1.00  0.00    -0.267 C  
BRANCH  23  24
HETATM   24  C   UNL     1     -12.158  15.621  69.454  1.00  0.00    -0.287 C  
BRANCH  24  25
HETATM   25  C   UNL     1     -12.431  14.363  70.276  1.00  0.00    -0.413 C  
HETATM   26  C   UNL     1     -13.242  14.663  71.514  1.00  0.00    -0.355 C  
HETATM   27  O   UNL     1     -13.650  15.763  71.849  1.00  0.00    -0.455 OA 
HETATM   28  O   UNL     1     -13.480  13.548  72.244  1.00  0.00    -0.479 OA 
ENDBRANCH  24  25
ENDBRANCH  23  24
ENDBRANCH   9  23
TORSDOF 6
ENDMDL
MODEL       88
REMARK 921   NORMALIZED FREE ENERGY PREDICTED BY IDOCK:   -4.81 KCAL/MOL
REMARK 922        TOTAL FREE ENERGY PREDICTED BY IDOCK:   -7.85 KCAL/MOL
REMARK 923 INTER-LIGAND FREE ENERGY PREDICTED BY IDOCK:   -6.95 KCAL/MOL
REMARK 924 INTRA-LIGAND FREE ENERGY PREDICTED BY IDOCK:   -0.90 KCAL/MOL
REMARK 927      BINDING AFFINITY PREDICTED BY RF-SCORE:    0.00 PKD
ROOT
HETATM    1  C   UNL     1      -9.907  10.539  69.710  1.00  0.00    -0.050 C  
HETATM    2  C   UNL     1      -9.537  11.096  68.344  1.00  0.00    -0.192 C  
HETATM    3  C   UNL     1     -10.861  11.537  67.718  1.00  0.00    -0.221 C  
HETATM    4  C   UNL     1     -11.838  11.780  68.888  1.00  0.00    -0.381 C  
HETATM    5  O   UNL     1     -11.386  10.497  66.892  1.00  0.00    -0.212 OA 
HETATM    6  H   UNL     1     -12.208  10.771  66.503  1.00  0.00     0.000 HD 
HETATM    7  C   UNL     1     -11.071  11.409  70.179  1.00  0.00     0.064 C  
HETATM    8  C   UNL     1     -10.461   9.119  69.675  1.00  0.00    -0.230 C  
HETATM    9  C   UNL     1     -11.966   8.013  71.365  1.00  0.00    -0.328 C  
HETATM   10  C   UNL     1     -11.855  10.528  71.158  1.00  0.00    -0.391 C  
HETATM   11  C   UNL     1     -11.486   9.118  70.773  1.00  0.00    -0.337 C  
ENDROOT
BRANCH   4  12
HETATM   12  C   UNL     1     -12.296  13.218  68.957  1.00  0.00     0.020 C  
HETATM   13  C   UNL     1     -12.527  13.841  70.123  1.00  0.00    -0.332 C  
BRANCH  13  14
HETATM   14  C   UNL     1     -12.810  15.305  70.261  1.00  0.00    -0.260 C  
HETATM   15  O   UNL     1     -14.091  15.441  70.867  1.00  0.00    -0.823 OA 
HETATM   16  C   UNL     1     -11.743  16.041  71.108  1.00  0.00    -0.487 C  
HETATM   17  H   UNL     1     -14.270  16.370  70.954  1.00  0.00     0.000 HD 
HETATM   18  C   UNL     1     -10.343  15.977  70.464  1.00  0.00     0.245 C  
HETATM   19  C   UNL     1     -11.676  15.528  72.554  1.00  0.00    -0.569 C  
BRANCH  18  20
HETATM   20  C   UNL     1     -10.358  16.653  69.103  1.00  0.00    -0.326 C  
HETATM   21  C   UNL     1     -10.370  17.232  67.935  1.00  0.00    -0.360 C  
HETATM   22  C   UNL     1     -10.385  17.908  66.573  1.00  0.00    -0.362 C  
ENDBRANCH  18  20
ENDBRANCH  13  14
ENDBRANCH   4  12
BRANCH   9  23
HETATM   23  C   UNL     1     -11.552   6.615  70.992  1.00  0.00    -0.399 C  
BRANCH  23  24
HETATM   24  C   UNL     1     -11.776   6.311  69.508  1.00  0.00    -0.013 C  
BRANCH  24  25
HETATM   25  C   UNL     1     -10.563   5.655  68.852  1.00  0.00    -0.303 C  
HETATM   26  C   UNL     1     -10.465   5.989  67.384  1.00  0.00    -0.246 C  
HETATM   27  O   UNL     1     -11.241   6.695  66.760  1.00  0.00    -0.333 OA 
HETATM   28  O   UNL     1      -9.391   5.404  66.803  1.00  0.00    -0.126 OA 
ENDBRANCH  24  25
ENDBRANCH  23  24
ENDBRANCH   9  23
TORSDOF 6
ENDMDL
MODEL       89
REMARK 921   NORMALIZED FREE ENERGY PREDICTED BY IDOCK:   -4.79 KCAL/MOL
REMARK 922        TOTAL FREE ENERGY PREDICTED BY IDOCK:   -7.82 KCAL/MOL
REMARK 923 INTER-LIGAND FREE ENERGY PREDICTED BY IDOCK:   -6.65 KCAL/MOL
REMARK 924 INTRA-LIGAND FREE ENERGY PREDICTED BY IDOCK:   -1.17 KCAL/MOL
REMARK 927      BINDING AFFINITY PREDICTED BY RF-SCORE:    0.00 PKD
ROOT
HETATM    1  C   UNL     1      -9.805   9.372  70.573  1.00  0.00    -0.331 C  
HETATM    2  C   UNL     1     -10.015   8.745  71.942  1.00  0.00    -0.401 C  
HETATM    3  C   UNL     1     -11.192   7.784  71.768  1.00  0.00    -0.256 C  
HETATM    4  C   UNL     1     -11.250   7.433  70.266  1.00  0.00    -0.268 C  
HETATM    5  O   UNL     1     -12.412   8.428  72.136  1.00  0.00    -0.335 OA 
HETATM    6  H   UNL     1     -13.144   7.831  72.027  1.00  0.00     0.000 HD 
HETATM    7  C   UNL     1     -10.134   8.257  69.584  1.00  0.00    -0.199 C  
HETATM    8  C   UNL     1     -10.784  10.495  70.246  1.00  0.00    -0.165 C  
HETATM    9  C   UNL     1     -11.488  11.306  67.967  1.00  0.00    -0.369 C  
HETATM   10  C   UNL     1     -10.564   8.978  68.301  1.00  0.00    -0.213 C  
HETATM   11  C   UNL     1     -11.008  10.341  68.768  1.00  0.00    -0.285 C  
ENDROOT
BRANCH   4  12
HETATM   12  C   UNL     1     -11.027   5.959  70.018  1.00  0.00    -0.430 C  
HETATM   13  C   UNL     1      -9.895   5.488  69.472  1.00  0.00    -0.253 C  
BRANCH  13  14
HETATM   14  C   UNL     1      -9.546   4.036  69.364  1.00  0.00    -0.187 C  
HETATM   15  O   UNL     1      -9.413   3.726  67.981  1.00  0.00    -0.174 OA 
HETATM   16  C   UNL     1      -8.239   3.680  70.114  1.00  0.00    -0.070 C  
HETATM   17  H   UNL     1      -9.192   2.805  67.913  1.00  0.00     0.000 HD 
HETATM   18  C   UNL     1      -8.349   3.940  71.631  1.00  0.00    -0.085 C  
HETATM   19  C   UNL     1      -7.012   4.410  69.548  1.00  0.00    -0.049 C  
BRANCH  18  20
HETATM   20  C   UNL     1      -9.444   3.076  72.234  1.00  0.00    -0.187 C  
HETATM   21  C   UNL     1     -10.383   2.334  72.751  1.00  0.00    -0.237 C  
HETATM   22  C   UNL     1     -11.478   1.469  73.354  1.00  0.00    -0.294 C  
ENDBRANCH  18  20
ENDBRANCH  13  14
ENDBRANCH   4  12
BRANCH   9  23
HETATM   23  C   UNL     1     -11.886  12.675  68.448  1.00  0.00    -0.347 C  
BRANCH  23  24
HETATM   24  C   UNL     1     -11.700  13.752  67.376  1.00  0.00    -0.417 C  
BRANCH  24  25
HETATM   25  C   UNL     1     -10.420  14.562  67.572  1.00  0.00    -0.253 C  
HETATM   26  C   UNL     1     -10.652  15.790  68.418  1.00  0.00    -0.264 C  
HETATM   27  O   UNL     1     -11.719  16.128  68.905  1.00  0.00    -0.357 OA 
HETATM   28  O   UNL     1      -9.518  16.508  68.588  1.00  0.00    -0.225 OA 
ENDBRANCH  24  25
ENDBRANCH  23  24
ENDBRANCH   9  23
TORSDOF 6
ENDMDL
MODEL       90
REMARK 921   NORMALIZED FREE ENERGY PREDICTED BY IDOCK:   -4.76 KCAL/MOL
REMARK 922        TOTAL FREE ENERGY PREDICTED BY IDOCK:   -7.78 KCAL/MOL
REMARK 923 INTER-LIGAND FREE ENERGY PREDICTED BY IDOCK:   -6.70 KCAL/MOL
REMARK 924 INTRA-LIGAND FREE ENERGY PREDICTED BY IDOCK:   -1.08 KCAL/MOL
REMARK 927      BINDING AFFINITY PREDICTED BY RF-SCORE:    0.00 PKD
ROOT
HETATM    1  C   UNL     1     -10.855   9.999  70.183  1.00  0.00    -0.365 C  
HETATM    2  C   UNL     1     -11.512   8.697  70.611  1.00  0.00    -0.256 C  
HETATM    3  C   UNL     1     -10.721   7.596  69.903  1.00  0.00    -0.249 C  
HETATM    4  C   UNL     1      -9.332   8.191  69.586  1.00  0.00    -0.159 C  
HETATM    5  O   UNL     1     -11.359   7.242  68.676  1.00  0.00    -0.440 OA 
HETATM    6  H   UNL     1     -10.867   6.558  68.236  1.00  0.00     0.000 HD 
HETATM    7  C   UNL     1      -9.371   9.662  70.064  1.00  0.00    -0.276 C  
HETATM    8  C   UNL     1     -11.266  10.478  68.795  1.00  0.00    -0.317 C  
HETATM    9  C   UNL     1      -9.979  11.993  67.247  1.00  0.00    -0.205 C  
HETATM   10  C   UNL     1      -8.812  10.676  69.059  1.00  0.00    -0.154 C  
HETATM   11  C   UNL     1     -10.013  11.114  68.261  1.00  0.00    -0.196 C  
ENDROOT
BRANCH   4  12
HETATM   12  C   UNL     1      -8.221   7.449  70.291  1.00  0.00    -0.132 C  
HETATM   13  C   UNL     1      -7.769   7.817  71.500  1.00  0.00    -0.087 C  
BRANCH  13  14
HETATM   14  C   UNL     1      -6.800   7.023  72.320  1.00  0.00    -0.061 C  
HETATM   15  O   UNL     1      -5.567   7.734  72.338  1.00  0.00    -0.036 OA 
HETATM   16  C   UNL     1      -7.296   6.789  73.768  1.00  0.00    -0.082 C  
HETATM   17  H   UNL     1      -4.953   7.231  72.858  1.00  0.00     0.000 HD 
HETATM   18  C   UNL     1      -8.601   5.968  73.811  1.00  0.00    -0.124 C  
HETATM   19  C   UNL     1      -7.477   8.096  74.552  1.00  0.00    -0.257 C  
BRANCH  18  20
HETATM   20  C   UNL     1      -8.379   4.593  73.201  1.00  0.00    -0.100 C  
HETATM   21  C   UNL     1      -8.189   3.414  72.678  1.00  0.00    -0.080 C  
HETATM   22  C   UNL     1      -7.967   2.040  72.067  1.00  0.00    -0.045 C  
ENDBRANCH  18  20
ENDBRANCH  13  14
ENDBRANCH   4  12
BRANCH   9  23
HETATM   23  C   UNL     1     -11.198  12.449  66.490  1.00  0.00    -0.368 C  
BRANCH  23  24
HETATM   24  C   UNL     1     -10.878  12.849  65.047  1.00  0.00    -0.323 C  
BRANCH  24  25
HETATM   25  C   UNL     1     -10.588  14.342  64.901  1.00  0.00    -0.452 C  
HETATM   26  C   UNL     1     -11.700  15.065  64.180  1.00  0.00    -0.110 C  
HETATM   27  O   UNL     1     -12.722  14.554  63.752  1.00  0.00    -0.780 OA 
HETATM   28  O   UNL     1     -11.440  16.387  64.048  1.00  0.00    -1.048 OA 
ENDBRANCH  24  25
ENDBRANCH  23  24
ENDBRANCH   9  23
TORSDOF 6
ENDMDL
MODEL       91
REMARK 921   NORMALIZED FREE ENERGY PREDICTED BY IDOCK:   -4.76 KCAL/MOL
REMARK 922        TOTAL FREE ENERGY PREDICTED BY IDOCK:   -7.77 KCAL/MOL
REMARK 923 INTER-LIGAND FREE ENERGY PREDICTED BY IDOCK:   -6.56 KCAL/MOL
REMARK 924 INTRA-LIGAND FREE ENERGY PREDICTED BY IDOCK:   -1.22 KCAL/MOL
REMARK 927      BINDING AFFINITY PREDICTED BY RF-SCORE:    0.00 PKD
ROOT
HETATM    1  C   UNL     1      -8.388   9.212  66.682  1.00  0.00    -0.122 C  
HETATM    2  C   UNL     1      -7.433   9.708  65.608  1.00  0.00    -0.101 C  
HETATM    3  C   UNL     1      -8.266   9.767  64.327  1.00  0.00    -0.160 C  
HETATM    4  C   UNL     1      -9.740   9.886  64.769  1.00  0.00    -0.305 C  
HETATM    5  O   UNL     1      -8.107   8.561  63.580  1.00  0.00    -0.156 OA 
HETATM    6  H   UNL     1      -8.625   8.597  62.784  1.00  0.00     0.000 HD 
HETATM    7  C   UNL     1      -9.736   9.826  66.315  1.00  0.00    -0.295 C  
HETATM    8  C   UNL     1      -8.620   7.705  66.662  1.00  0.00    -0.134 C  
HETATM    9  C   UNL     1     -10.611   6.443  67.550  1.00  0.00    -0.350 C  
HETATM   10  C   UNL     1     -10.781   8.884  66.922  1.00  0.00    -0.153 C  
HETATM   11  C   UNL     1     -10.060   7.569  67.070  1.00  0.00    -0.332 C  
ENDROOT
BRANCH   4  12
HETATM   12  C   UNL     1     -10.371  11.177  64.305  1.00  0.00    -0.413 C  
HETATM   13  C   UNL     1     -10.285  12.313  65.015  1.00  0.00    -0.312 C  
BRANCH  13  14
HETATM   14  C   UNL     1     -10.735  13.655  64.527  1.00  0.00    -0.407 C  
HETATM   15  O   UNL     1     -11.473  13.451  63.327  1.00  0.00    -0.589 OA 
HETATM   16  C   UNL     1     -11.608  14.404  65.564  1.00  0.00    -0.347 C  
HETATM   17  H   UNL     1     -11.759  14.303  63.018  1.00  0.00     0.000 HD 
HETATM   18  C   UNL     1     -10.836  14.705  66.866  1.00  0.00    -0.305 C  
HETATM   19  C   UNL     1     -12.911  13.660  65.891  1.00  0.00    -0.328 C  
BRANCH  18  20
HETATM   20  C   UNL     1      -9.643  15.601  66.575  1.00  0.00    -0.293 C  
HETATM   21  C   UNL     1      -8.619  16.368  66.326  1.00  0.00    -0.375 C  
HETATM   22  C   UNL     1      -7.425  17.263  66.035  1.00  0.00    -0.232 C  
ENDBRANCH  18  20
ENDBRANCH  13  14
ENDBRANCH   4  12
BRANCH   9  23
HETATM   23  C   UNL     1      -9.861   5.151  67.729  1.00  0.00    -0.196 C  
BRANCH  23  24
HETATM   24  C   UNL     1      -9.861   4.291  66.461  1.00  0.00    -0.238 C  
BRANCH  24  25
HETATM   25  C   UNL     1      -8.469   4.140  65.853  1.00  0.00    -0.109 C  
HETATM   26  C   UNL     1      -8.514   4.087  64.345  1.00  0.00    -0.105 C  
HETATM   27  O   UNL     1      -9.521   4.156  63.660  1.00  0.00    -0.148 OA 
HETATM   28  O   UNL     1      -7.280   3.950  63.807  1.00  0.00    -0.049 OA 
ENDBRANCH  24  25
ENDBRANCH  23  24
ENDBRANCH   9  23
TORSDOF 6
ENDMDL
MODEL       92
REMARK 921   NORMALIZED FREE ENERGY PREDICTED BY IDOCK:   -4.75 KCAL/MOL
REMARK 922        TOTAL FREE ENERGY PREDICTED BY IDOCK:   -7.77 KCAL/MOL
REMARK 923 INTER-LIGAND FREE ENERGY PREDICTED BY IDOCK:   -6.73 KCAL/MOL
REMARK 924 INTRA-LIGAND FREE ENERGY PREDICTED BY IDOCK:   -1.04 KCAL/MOL
REMARK 927      BINDING AFFINITY PREDICTED BY RF-SCORE:    0.00 PKD
ROOT
HETATM    1  C   UNL     1     -10.336  11.267  68.695  1.00  0.00    -0.217 C  
HETATM    2  C   UNL     1     -11.207  10.629  69.765  1.00  0.00    -0.363 C  
HETATM    3  C   UNL     1     -10.586   9.255  70.021  1.00  0.00    -0.228 C  
HETATM    4  C   UNL     1      -9.111   9.352  69.576  1.00  0.00    -0.169 C  
HETATM    5  O   UNL     1     -11.240   8.262  69.229  1.00  0.00    -0.431 OA 
HETATM    6  H   UNL     1     -10.854   7.409  69.388  1.00  0.00     0.000 HD 
HETATM    7  C   UNL     1      -8.924  10.776  69.004  1.00  0.00    -0.141 C  
HETATM    8  C   UNL     1     -10.626  10.777  67.281  1.00  0.00    -0.304 C  
HETATM    9  C   UNL     1      -9.069  10.787  65.300  1.00  0.00    -0.217 C  
HETATM   10  C   UNL     1      -8.180  10.836  67.665  1.00  0.00    -0.115 C  
HETATM   11  C   UNL     1      -9.273  10.780  66.627  1.00  0.00    -0.184 C  
ENDROOT
BRANCH   4  12
HETATM   12  C   UNL     1      -8.155   9.127  70.724  1.00  0.00    -0.207 C  
HETATM   13  C   UNL     1      -8.144   7.989  71.435  1.00  0.00    -0.118 C  
BRANCH  13  14
HETATM   14  C   UNL     1      -7.111   7.640  72.462  1.00  0.00    -0.074 C  
HETATM   15  O   UNL     1      -6.507   8.854  72.895  1.00  0.00    -0.280 OA 
HETATM   16  C   UNL     1      -7.709   6.885  73.675  1.00  0.00    -0.095 C  
HETATM   17  H   UNL     1      -5.853   8.632  73.546  1.00  0.00     0.000 HD 
HETATM   18  C   UNL     1      -8.325   5.530  73.270  1.00  0.00    -0.117 C  
HETATM   19  C   UNL     1      -8.743   7.719  74.443  1.00  0.00    -0.169 C  
BRANCH  18  20
HETATM   20  C   UNL     1      -7.259   4.623  72.676  1.00  0.00    -0.082 C  
HETATM   21  C   UNL     1      -6.344   3.846  72.167  1.00  0.00    -0.014 C  
HETATM   22  C   UNL     1      -5.278   2.941  71.573  1.00  0.00    -0.004 C  
ENDBRANCH  18  20
ENDBRANCH  13  14
ENDBRANCH   4  12
BRANCH   9  23
HETATM   23  C   UNL     1     -10.176  10.773  64.281  1.00  0.00    -0.422 C  
BRANCH  23  24
HETATM   24  C   UNL     1     -10.340  12.121  63.573  1.00  0.00    -0.473 C  
BRANCH  24  25
HETATM   25  C   UNL     1     -11.012  13.171  64.455  1.00  0.00    -0.412 C  
HETATM   26  C   UNL     1     -12.517  13.060  64.418  1.00  0.00    -0.337 C  
HETATM   27  O   UNL     1     -13.155  12.243  63.775  1.00  0.00    -0.780 OA 
HETATM   28  O   UNL     1     -13.111  13.994  65.198  1.00  0.00    -0.776 OA 
ENDBRANCH  24  25
ENDBRANCH  23  24
ENDBRANCH   9  23
TORSDOF 6
ENDMDL
MODEL       93
REMARK 921   NORMALIZED FREE ENERGY PREDICTED BY IDOCK:   -4.74 KCAL/MOL
REMARK 922        TOTAL FREE ENERGY PREDICTED BY IDOCK:   -7.75 KCAL/MOL
REMARK 923 INTER-LIGAND FREE ENERGY PREDICTED BY IDOCK:   -6.67 KCAL/MOL
REMARK 924 INTRA-LIGAND FREE ENERGY PREDICTED BY IDOCK:   -1.08 KCAL/MOL
REMARK 927      BINDING AFFINITY PREDICTED BY RF-SCORE:    0.00 PKD
ROOT
HETATM    1  C   UNL     1     -11.170  11.788  66.255  1.00  0.00    -0.370 C  
HETATM    2  C   UNL     1     -10.110  11.396  65.238  1.00  0.00    -0.315 C  
HETATM    3  C   UNL     1      -8.924  10.898  66.066  1.00  0.00    -0.186 C  
HETATM    4  C   UNL     1      -9.498  10.459  67.430  1.00  0.00    -0.170 C  
HETATM    5  O   UNL     1      -7.992  11.958  66.280  1.00  0.00    -0.381 OA 
HETATM    6  H   UNL     1      -7.255  11.648  66.794  1.00  0.00     0.000 HD 
HETATM    7  C   UNL     1     -11.011  10.777  67.387  1.00  0.00    -0.361 C  
HETATM    8  C   UNL     1     -10.940  13.149  66.903  1.00  0.00    -0.295 C  
HETATM    9  C   UNL     1     -11.784  13.953  69.136  1.00  0.00    -0.382 C  
HETATM   10  C   UNL     1     -11.551  11.488  68.633  1.00  0.00    -0.375 C  
HETATM   11  C   UNL     1     -11.437  12.955  68.307  1.00  0.00    -0.348 C  
ENDROOT
BRANCH   4  12
HETATM   12  C   UNL     1      -9.288   8.985  67.688  1.00  0.00    -0.154 C  
HETATM   13  C   UNL     1      -9.478   8.436  68.898  1.00  0.00    -0.147 C  
BRANCH  13  14
HETATM   14  C   UNL     1      -9.457   6.964  69.173  1.00  0.00    -0.142 C  
HETATM   15  O   UNL     1      -8.932   6.778  70.482  1.00  0.00    -0.150 OA 
HETATM   16  C   UNL     1     -10.861   6.319  69.070  1.00  0.00    -0.400 C  
HETATM   17  H   UNL     1      -8.919   5.844  70.657  1.00  0.00     0.000 HD 
HETATM   18  C   UNL     1     -11.454   6.439  67.651  1.00  0.00     0.210 C  
HETATM   19  C   UNL     1     -11.851   6.885  70.098  1.00  0.00    -0.266 C  
BRANCH  18  20
HETATM   20  C   UNL     1     -10.570   5.715  66.649  1.00  0.00    -0.361 C  
HETATM   21  C   UNL     1      -9.812   5.095  65.787  1.00  0.00    -0.107 C  
HETATM   22  C   UNL     1      -8.929   4.372  64.784  1.00  0.00    -0.149 C  
ENDBRANCH  18  20
ENDBRANCH  13  14
ENDBRANCH   4  12
BRANCH   9  23
HETATM   23  C   UNL     1     -11.702  15.411  68.774  1.00  0.00    -0.369 C  
BRANCH  23  24
HETATM   24  C   UNL     1     -10.357  16.036  69.152  1.00  0.00    -0.247 C  
BRANCH  24  25
HETATM   25  C   UNL     1     -10.293  17.530  68.840  1.00  0.00    -0.338 C  
HETATM   26  C   UNL     1      -8.882  17.990  68.568  1.00  0.00    -0.295 C  
HETATM   27  O   UNL     1      -7.887  17.285  68.583  1.00  0.00    -0.255 OA 
HETATM   28  O   UNL     1      -8.827  19.315  68.294  1.00  0.00    -0.313 OA 
ENDBRANCH  24  25
ENDBRANCH  23  24
ENDBRANCH   9  23
TORSDOF 6
ENDMDL
MODEL       94
REMARK 921   NORMALIZED FREE ENERGY PREDICTED BY IDOCK:   -4.73 KCAL/MOL
REMARK 922        TOTAL FREE ENERGY PREDICTED BY IDOCK:   -7.73 KCAL/MOL
REMARK 923 INTER-LIGAND FREE ENERGY PREDICTED BY IDOCK:   -6.55 KCAL/MOL
REMARK 924 INTRA-LIGAND FREE ENERGY PREDICTED BY IDOCK:   -1.18 KCAL/MOL
REMARK 927      BINDING AFFINITY PREDICTED BY RF-SCORE:    0.00 PKD
ROOT
HETATM    1  C   UNL     1     -10.938   9.477  71.570  1.00  0.00    -0.369 C  
HETATM    2  C   UNL     1     -11.783   8.322  72.084  1.00  0.00    -0.429 C  
HETATM    3  C   UNL     1     -11.500   7.161  71.130  1.00  0.00    -0.290 C  
HETATM    4  C   UNL     1     -10.126   7.449  70.488  1.00  0.00    -0.192 C  
HETATM    5  O   UNL     1     -12.488   7.118  70.099  1.00  0.00    -0.497 OA 
HETATM    6  H   UNL     1     -12.311   6.396  69.506  1.00  0.00     0.000 HD 
HETATM    7  C   UNL     1      -9.667   8.818  71.041  1.00  0.00    -0.292 C  
HETATM    8  C   UNL     1     -11.538  10.203  70.372  1.00  0.00    -0.396 C  
HETATM    9  C   UNL     1     -10.323  11.552  68.625  1.00  0.00    -0.226 C  
HETATM   10  C   UNL     1      -9.128   9.788  69.983  1.00  0.00    -0.258 C  
HETATM   11  C   UNL     1     -10.333  10.588  69.560  1.00  0.00    -0.251 C  
ENDROOT
BRANCH   4  12
HETATM   12  C   UNL     1      -9.106   6.387  70.828  1.00  0.00    -0.151 C  
HETATM   13  C   UNL     1      -9.373   5.384  71.679  1.00  0.00    -0.173 C  
BRANCH  13  14
HETATM   14  C   UNL     1      -8.470   4.214  71.919  1.00  0.00    -0.104 C  
HETATM   15  O   UNL     1      -8.055   4.261  73.279  1.00  0.00    -0.089 OA 
HETATM   16  C   UNL     1      -9.161   2.859  71.624  1.00  0.00    -0.181 C  
HETATM   17  H   UNL     1      -7.482   3.519  73.431  1.00  0.00     0.000 HD 
HETATM   18  C   UNL     1      -9.580   2.729  70.145  1.00  0.00    -0.117 C  
HETATM   19  C   UNL     1     -10.372   2.600  72.533  1.00  0.00    -0.203 C  
BRANCH  18  20
HETATM   20  C   UNL     1      -8.358   2.797  69.245  1.00  0.00    -0.087 C  
HETATM   21  C   UNL     1      -7.308   2.855  68.473  1.00  0.00    -0.049 C  
HETATM   22  C   UNL     1      -6.085   2.922  67.573  1.00  0.00    -0.028 C  
ENDBRANCH  18  20
ENDBRANCH  13  14
ENDBRANCH   4  12
BRANCH   9  23
HETATM   23  C   UNL     1     -11.530  12.368  68.247  1.00  0.00    -0.360 C  
BRANCH  23  24
HETATM   24  C   UNL     1     -11.449  13.808  68.761  1.00  0.00    -0.338 C  
BRANCH  24  25
HETATM   25  C   UNL     1     -12.223  14.013  70.062  1.00  0.00    -0.414 C  
HETATM   26  C   UNL     1     -11.949  15.364  70.676  1.00  0.00    -0.356 C  
HETATM   27  O   UNL     1     -11.206  16.217  70.218  1.00  0.00    -0.356 OA 
HETATM   28  O   UNL     1     -12.633  15.543  71.830  1.00  0.00    -0.344 OA 
ENDBRANCH  24  25
ENDBRANCH  23  24
ENDBRANCH   9  23
TORSDOF 6
ENDMDL
MODEL       95
REMARK 921   NORMALIZED FREE ENERGY PREDICTED BY IDOCK:   -4.72 KCAL/MOL
REMARK 922        TOTAL FREE ENERGY PREDICTED BY IDOCK:   -7.72 KCAL/MOL
REMARK 923 INTER-LIGAND FREE ENERGY PREDICTED BY IDOCK:   -6.77 KCAL/MOL
REMARK 924 INTRA-LIGAND FREE ENERGY PREDICTED BY IDOCK:   -0.95 KCAL/MOL
REMARK 927      BINDING AFFINITY PREDICTED BY RF-SCORE:    0.00 PKD
ROOT
HETATM    1  C   UNL     1     -11.001  13.458  67.472  1.00  0.00    -0.284 C  
HETATM    2  C   UNL     1     -10.559  14.241  68.698  1.00  0.00    -0.254 C  
HETATM    3  C   UNL     1      -9.064  14.494  68.495  1.00  0.00    -0.190 C  
HETATM    4  C   UNL     1      -8.807  14.398  66.976  1.00  0.00    -0.256 C  
HETATM    5  O   UNL     1      -8.300  13.483  69.154  1.00  0.00    -0.328 OA 
HETATM    6  H   UNL     1      -7.371  13.641  69.027  1.00  0.00     0.000 HD 
HETATM    7  C   UNL     1     -10.161  14.024  66.329  1.00  0.00    -0.300 C  
HETATM    8  C   UNL     1     -10.656  11.974  67.522  1.00  0.00    -0.250 C  
HETATM    9  C   UNL     1     -10.355  10.399  65.579  1.00  0.00    -0.265 C  
HETATM   10  C   UNL     1     -10.086  12.895  65.295  1.00  0.00    -0.254 C  
HETATM   11  C   UNL     1     -10.347  11.641  66.090  1.00  0.00    -0.280 C  
ENDROOT
BRANCH   4  12
HETATM   12  C   UNL     1      -8.305  15.702  66.401  1.00  0.00    -0.215 C  
HETATM   13  C   UNL     1      -8.410  16.865  67.064  1.00  0.00    -0.227 C  
BRANCH  13  14
HETATM   14  C   UNL     1      -7.778  18.150  66.626  1.00  0.00    -0.236 C  
HETATM   15  O   UNL     1      -7.520  18.049  65.230  1.00  0.00    -0.259 OA 
HETATM   16  C   UNL     1      -8.673  19.381  66.911  1.00  0.00    -0.335 C  
HETATM   17  H   UNL     1      -7.120  18.864  64.952  1.00  0.00     0.000 HD 
HETATM   18  C   UNL     1      -8.936  19.573  68.419  1.00  0.00    -0.397 C  
HETATM   19  C   UNL     1     -10.007  19.333  66.152  1.00  0.00    -0.466 C  
BRANCH  18  20
HETATM   20  C   UNL     1      -7.627  19.809  69.155  1.00  0.00    -0.218 C  
HETATM   21  C   UNL     1      -6.505  20.010  69.787  1.00  0.00    -0.370 C  
HETATM   22  C   UNL     1      -5.196  20.244  70.523  1.00  0.00    -0.298 C  
ENDBRANCH  18  20
ENDBRANCH  13  14
ENDBRANCH   4  12
BRANCH   9  23
HETATM   23  C   UNL     1     -10.660   9.163  66.383  1.00  0.00    -0.002 C  
BRANCH  23  24
HETATM   24  C   UNL     1      -9.435   8.262  66.562  1.00  0.00    -0.284 C  
BRANCH  24  25
HETATM   25  C   UNL     1      -9.491   7.442  67.849  1.00  0.00    -0.150 C  
HETATM   26  C   UNL     1     -10.247   6.149  67.662  1.00  0.00    -0.174 C  
HETATM   27  O   UNL     1     -10.763   5.769  66.623  1.00  0.00    -0.291 OA 
HETATM   28  O   UNL     1     -10.299   5.424  68.804  1.00  0.00    -0.191 OA 
ENDBRANCH  24  25
ENDBRANCH  23  24
ENDBRANCH   9  23
TORSDOF 6
ENDMDL
MODEL       96
REMARK 921   NORMALIZED FREE ENERGY PREDICTED BY IDOCK:   -4.72 KCAL/MOL
REMARK 922        TOTAL FREE ENERGY PREDICTED BY IDOCK:   -7.72 KCAL/MOL
REMARK 923 INTER-LIGAND FREE ENERGY PREDICTED BY IDOCK:   -6.43 KCAL/MOL
REMARK 924 INTRA-LIGAND FREE ENERGY PREDICTED BY IDOCK:   -1.29 KCAL/MOL
REMARK 927      BINDING AFFINITY PREDICTED BY RF-SCORE:    0.00 PKD
ROOT
HETATM    1  C   UNL     1      -8.752  10.581  68.659  1.00  0.00    -0.143 C  
HETATM    2  C   UNL     1      -7.498  11.440  68.606  1.00  0.00    -0.119 C  
HETATM    3  C   UNL     1      -7.574  12.180  67.270  1.00  0.00    -0.156 C  
HETATM    4  C   UNL     1      -9.065  12.209  66.871  1.00  0.00    -0.203 C  
HETATM    5  O   UNL     1      -6.846  11.468  66.270  1.00  0.00    -0.358 OA 
HETATM    6  H   UNL     1      -6.893  11.928  65.439  1.00  0.00     0.000 HD 
HETATM    7  C   UNL     1      -9.823  11.419  67.964  1.00  0.00    -0.191 C  
HETATM    8  C   UNL     1      -8.662   9.296  67.844  1.00  0.00    -0.124 C  
HETATM    9  C   UNL     1     -10.561   7.953  66.874  1.00  0.00    -0.333 C  
HETATM   10  C   UNL     1     -10.838  10.402  67.431  1.00  0.00    -0.344 C  
HETATM   11  C   UNL     1     -10.060   9.116  67.323  1.00  0.00    -0.295 C  
ENDROOT
BRANCH   4  12
HETATM   12  C   UNL     1      -9.605  13.617  66.787  1.00  0.00    -0.277 C  
HETATM   13  C   UNL     1     -10.385  14.144  67.743  1.00  0.00    -0.242 C  
BRANCH  13  14
HETATM   14  C   UNL     1     -10.803  15.581  67.801  1.00  0.00    -0.309 C  
HETATM   15  O   UNL     1     -12.223  15.620  67.727  1.00  0.00    -0.121 OA 
HETATM   16  C   UNL     1     -10.321  16.289  69.092  1.00  0.00    -0.272 C  
HETATM   17  H   UNL     1     -12.488  16.531  67.764  1.00  0.00     0.000 HD 
HETATM   18  C   UNL     1      -8.783  16.328  69.195  1.00  0.00    -0.212 C  
HETATM   19  C   UNL     1     -10.913  15.668  70.366  1.00  0.00    -0.366 C  
BRANCH  18  20
HETATM   20  C   UNL     1      -8.197  17.108  68.028  1.00  0.00    -0.216 C  
HETATM   21  C   UNL     1      -7.696  17.777  67.028  1.00  0.00    -0.233 C  
HETATM   22  C   UNL     1      -7.110  18.557  65.862  1.00  0.00    -0.287 C  
ENDBRANCH  18  20
ENDBRANCH  13  14
ENDBRANCH   4  12
BRANCH   9  23
HETATM   23  C   UNL     1      -9.777   6.670  66.814  1.00  0.00    -0.217 C  
BRANCH  23  24
HETATM   24  C   UNL     1     -10.368   5.578  67.711  1.00  0.00    -0.246 C  
BRANCH  24  25
HETATM   25  C   UNL     1     -11.158   6.147  68.887  1.00  0.00    -0.417 C  
HETATM   26  C   UNL     1     -10.608   5.683  70.214  1.00  0.00    -0.300 C  
HETATM   27  O   UNL     1      -9.648   4.945  70.369  1.00  0.00    -0.158 OA 
HETATM   28  O   UNL     1     -11.311   6.185  71.256  1.00  0.00    -0.292 OA 
ENDBRANCH  24  25
ENDBRANCH  23  24
ENDBRANCH   9  23
TORSDOF 6
ENDMDL
MODEL       97
REMARK 921   NORMALIZED FREE ENERGY PREDICTED BY IDOCK:   -4.72 KCAL/MOL
REMARK 922        TOTAL FREE ENERGY PREDICTED BY IDOCK:   -7.72 KCAL/MOL
REMARK 923 INTER-LIGAND FREE ENERGY PREDICTED BY IDOCK:   -6.53 KCAL/MOL
REMARK 924 INTRA-LIGAND FREE ENERGY PREDICTED BY IDOCK:   -1.18 KCAL/MOL
REMARK 927      BINDING AFFINITY PREDICTED BY RF-SCORE:    0.00 PKD
ROOT
HETATM    1  C   UNL     1      -9.419  12.197  68.317  1.00  0.00    -0.204 C  
HETATM    2  C   UNL     1      -9.972  10.951  68.991  1.00  0.00    -0.206 C  
HETATM    3  C   UNL     1     -11.046  10.422  68.039  1.00  0.00    -0.298 C  
HETATM    4  C   UNL     1     -10.700  10.976  66.640  1.00  0.00    -0.305 C  
HETATM    5  O   UNL     1     -12.330  10.914  68.423  1.00  0.00    -0.803 OA 
HETATM    6  H   UNL     1     -12.997  10.586  67.831  1.00  0.00     0.000 HD 
HETATM    7  C   UNL     1      -9.457  11.877  66.825  1.00  0.00    -0.207 C  
HETATM    8  C   UNL     1     -10.295  13.434  68.480  1.00  0.00    -0.240 C  
HETATM    9  C   UNL     1     -10.386  15.462  66.988  1.00  0.00    -0.280 C  
HETATM   10  C   UNL     1      -9.545  13.240  66.129  1.00  0.00    -0.211 C  
HETATM   11  C   UNL     1     -10.119  14.159  67.176  1.00  0.00    -0.258 C  
ENDROOT
BRANCH   4  12
HETATM   12  C   UNL     1     -10.396   9.875  65.652  1.00  0.00    -0.115 C  
HETATM   13  C   UNL     1      -9.611  10.071  64.581  1.00  0.00    -0.363 C  
BRANCH  13  14
HETATM   14  C   UNL     1      -9.134   8.982  63.669  1.00  0.00     0.324 C  
HETATM   15  O   UNL     1      -9.418   9.384  62.334  1.00  0.00    -0.580 OA 
HETATM   16  C   UNL     1      -7.620   8.696  63.825  1.00  0.00    -0.127 C  
HETATM   17  H   UNL     1      -9.115   8.694  61.756  1.00  0.00     0.000 HD 
HETATM   18  C   UNL     1      -7.265   8.198  65.241  1.00  0.00    -0.068 C  
HETATM   19  C   UNL     1      -6.747   9.906  63.464  1.00  0.00    -0.124 C  
BRANCH  18  20
HETATM   20  C   UNL     1      -7.986   6.893  65.536  1.00  0.00    -0.126 C  
HETATM   21  C   UNL     1      -8.603   5.772  65.789  1.00  0.00    -0.149 C  
HETATM   22  C   UNL     1      -9.323   4.467  66.084  1.00  0.00    -0.159 C  
ENDBRANCH  18  20
ENDBRANCH  13  14
ENDBRANCH   4  12
BRANCH   9  23
HETATM   23  C   UNL     1     -10.920  16.373  68.061  1.00  0.00    -0.327 C  
BRANCH  23  24
HETATM   24  C   UNL     1      -9.946  17.500  68.413  1.00  0.00    -0.335 C  
BRANCH  24  25
HETATM   25  C   UNL     1      -9.121  17.961  67.213  1.00  0.00    -0.251 C  
HETATM   26  C   UNL     1      -9.418  19.393  66.840  1.00  0.00    -0.333 C  
HETATM   27  O   UNL     1     -10.213  20.126  67.404  1.00  0.00    -0.411 OA 
HETATM   28  O   UNL     1      -8.689  19.799  65.774  1.00  0.00    -0.379 OA 
ENDBRANCH  24  25
ENDBRANCH  23  24
ENDBRANCH   9  23
TORSDOF 6
ENDMDL
MODEL       98
REMARK 921   NORMALIZED FREE ENERGY PREDICTED BY IDOCK:   -4.72 KCAL/MOL
REMARK 922        TOTAL FREE ENERGY PREDICTED BY IDOCK:   -7.72 KCAL/MOL
REMARK 923 INTER-LIGAND FREE ENERGY PREDICTED BY IDOCK:   -6.66 KCAL/MOL
REMARK 924 INTRA-LIGAND FREE ENERGY PREDICTED BY IDOCK:   -1.06 KCAL/MOL
REMARK 927      BINDING AFFINITY PREDICTED BY RF-SCORE:    0.00 PKD
ROOT
HETATM    1  C   UNL     1     -10.677  13.191  68.514  1.00  0.00    -0.277 C  
HETATM    2  C   UNL     1     -11.790  12.161  68.419  1.00  0.00    -0.360 C  
HETATM    3  C   UNL     1     -11.275  11.101  67.444  1.00  0.00    -0.294 C  
HETATM    4  C   UNL     1      -9.735  11.204  67.461  1.00  0.00    -0.193 C  
HETATM    5  O   UNL     1     -11.739  11.379  66.123  1.00  0.00    -0.266 OA 
HETATM    6  H   UNL     1     -11.418  10.721  65.517  1.00  0.00     0.000 HD 
HETATM    7  C   UNL     1      -9.389  12.379  68.407  1.00  0.00    -0.158 C  
HETATM    8  C   UNL     1     -10.629  14.168  67.344  1.00  0.00    -0.279 C  
HETATM    9  C   UNL     1      -8.644  15.477  66.513  1.00  0.00    -0.320 C  
HETATM   10  C   UNL     1      -8.346  13.358  67.856  1.00  0.00    -0.166 C  
HETATM   11  C   UNL     1      -9.159  14.420  67.161  1.00  0.00    -0.238 C  
ENDROOT
BRANCH   4  12
HETATM   12  C   UNL     1      -9.085   9.934  67.958  1.00  0.00    -0.123 C  
HETATM   13  C   UNL     1      -9.764   9.005  68.649  1.00  0.00    -0.168 C  
BRANCH  13  14
HETATM   14  C   UNL     1      -9.223   7.657  69.013  1.00  0.00    -0.140 C  
HETATM   15  O   UNL     1      -8.478   7.802  70.216  1.00  0.00    -0.129 OA 
HETATM   16  C   UNL     1     -10.340   6.601  69.207  1.00  0.00    -0.228 C  
HETATM   17  H   UNL     1      -8.136   6.946  70.447  1.00  0.00     0.000 HD 
HETATM   18  C   UNL     1     -11.144   6.359  67.912  1.00  0.00    -0.370 C  
HETATM   19  C   UNL     1     -11.296   6.951  70.356  1.00  0.00    -0.376 C  
BRANCH  18  20
HETATM   20  C   UNL     1     -10.232   5.830  66.818  1.00  0.00    -0.269 C  
HETATM   21  C   UNL     1      -9.450   5.375  65.878  1.00  0.00    -0.138 C  
HETATM   22  C   UNL     1      -8.539   4.846  64.783  1.00  0.00    -0.149 C  
ENDBRANCH  18  20
ENDBRANCH  13  14
ENDBRANCH   4  12
BRANCH   9  23
HETATM   23  C   UNL     1      -9.476  16.549  65.862  1.00  0.00    -0.254 C  
BRANCH  23  24
HETATM   24  C   UNL     1      -9.104  17.955  66.342  1.00  0.00    -0.253 C  
BRANCH  24  25
HETATM   25  C   UNL     1      -9.507  18.207  67.793  1.00  0.00    -0.269 C  
HETATM   26  C   UNL     1      -9.885  19.648  68.032  1.00  0.00    -0.415 C  
HETATM   27  O   UNL     1      -9.883  20.534  67.193  1.00  0.00    -0.454 OA 
HETATM   28  O   UNL     1     -10.239  19.871  69.320  1.00  0.00    -0.374 OA 
ENDBRANCH  24  25
ENDBRANCH  23  24
ENDBRANCH   9  23
TORSDOF 6
ENDMDL
MODEL       99
REMARK 921   NORMALIZED FREE ENERGY PREDICTED BY IDOCK:   -4.69 KCAL/MOL
REMARK 922        TOTAL FREE ENERGY PREDICTED BY IDOCK:   -7.68 KCAL/MOL
REMARK 923 INTER-LIGAND FREE ENERGY PREDICTED BY IDOCK:   -6.18 KCAL/MOL
REMARK 924 INTRA-LIGAND FREE ENERGY PREDICTED BY IDOCK:   -1.49 KCAL/MOL
REMARK 927      BINDING AFFINITY PREDICTED BY RF-SCORE:    0.00 PKD
ROOT
HETATM    1  C   UNL     1     -12.130   6.840  71.019  1.00  0.00    -0.426 C  
HETATM    2  C   UNL     1     -12.386   8.283  71.426  1.00  0.00    -0.326 C  
HETATM    3  C   UNL     1     -11.191   9.070  70.886  1.00  0.00    -0.287 C  
HETATM    4  C   UNL     1     -10.608   8.237  69.725  1.00  0.00    -0.228 C  
HETATM    5  O   UNL     1     -10.193   9.208  71.898  1.00  0.00    -0.332 OA 
HETATM    6  H   UNL     1      -9.451   9.697  71.562  1.00  0.00     0.000 HD 
HETATM    7  C   UNL     1     -11.446   6.939  69.658  1.00  0.00    -0.204 C  
HETATM    8  C   UNL     1     -11.135   6.108  71.912  1.00  0.00    -0.324 C  
HETATM    9  C   UNL     1      -9.715   4.113  71.319  1.00  0.00    -0.255 C  
HETATM   10  C   UNL     1     -10.624   5.651  69.533  1.00  0.00    -0.384 C  
HETATM   11  C   UNL     1     -10.411   5.203  70.956  1.00  0.00    -0.278 C  
ENDROOT
BRANCH   4  12
HETATM   12  C   UNL     1     -10.684   8.968  68.405  1.00  0.00    -0.145 C  
HETATM   13  C   UNL     1     -10.947  10.282  68.328  1.00  0.00    -0.315 C  
BRANCH  13  14
HETATM   14  C   UNL     1     -10.863  11.092  67.071  1.00  0.00    -0.279 C  
HETATM   15  O   UNL     1     -12.051  11.869  66.979  1.00  0.00    -0.600 OA 
HETATM   16  C   UNL     1      -9.622  12.018  67.042  1.00  0.00    -0.200 C  
HETATM   17  H   UNL     1     -11.997  12.382  66.182  1.00  0.00     0.000 HD 
HETATM   18  C   UNL     1      -8.301  11.222  67.079  1.00  0.00    -0.153 C  
HETATM   19  C   UNL     1      -9.633  13.062  68.168  1.00  0.00    -0.227 C  
BRANCH  18  20
HETATM   20  C   UNL     1      -8.197  10.318  65.861  1.00  0.00    -0.148 C  
HETATM   21  C   UNL     1      -8.109   9.544  64.816  1.00  0.00    -0.130 C  
HETATM   22  C   UNL     1      -8.005   8.641  63.598  1.00  0.00    -0.160 C  
ENDBRANCH  18  20
ENDBRANCH  13  14
ENDBRANCH   4  12
BRANCH   9  23
HETATM   23  C   UNL     1      -9.550   3.659  72.745  1.00  0.00    -0.180 C  
BRANCH  23  24
HETATM   24  C   UNL     1      -8.289   4.228  73.401  1.00  0.00    -0.090 C  
BRANCH  24  25
HETATM   25  C   UNL     1      -8.554   5.530  74.154  1.00  0.00    -0.116 C  
HETATM   26  C   UNL     1      -8.016   6.731  73.415  1.00  0.00    -0.098 C  
HETATM   27  O   UNL     1      -7.436   6.705  72.342  1.00  0.00    -0.091 OA 
HETATM   28  O   UNL     1      -8.249   7.883  74.086  1.00  0.00    -0.207 OA 
ENDBRANCH  24  25
ENDBRANCH  23  24
ENDBRANCH   9  23
TORSDOF 6
ENDMDL
MODEL      100
REMARK 921   NORMALIZED FREE ENERGY PREDICTED BY IDOCK:   -4.66 KCAL/MOL
REMARK 922        TOTAL FREE ENERGY PREDICTED BY IDOCK:   -7.64 KCAL/MOL
REMARK 923 INTER-LIGAND FREE ENERGY PREDICTED BY IDOCK:   -6.81 KCAL/MOL
REMARK 924 INTRA-LIGAND FREE ENERGY PREDICTED BY IDOCK:   -0.83 KCAL/MOL
REMARK 927      BINDING AFFINITY PREDICTED BY RF-SCORE:    0.00 PKD
ROOT
HETATM    1  C   UNL     1      -9.914  10.234  68.196  1.00  0.00    -0.168 C  
HETATM    2  C   UNL     1      -8.450   9.910  67.942  1.00  0.00    -0.121 C  
HETATM    3  C   UNL     1      -7.795   9.903  69.324  1.00  0.00    -0.117 C  
HETATM    4  C   UNL     1      -8.924   9.633  70.342  1.00  0.00    -0.239 C  
HETATM    5  O   UNL     1      -7.221  11.181  69.604  1.00  0.00    -0.288 OA 
HETATM    6  H   UNL     1      -6.815  11.176  70.463  1.00  0.00     0.000 HD 
HETATM    7  C   UNL     1     -10.235   9.553  69.525  1.00  0.00    -0.225 C  
HETATM    8  C   UNL     1     -10.194  11.714  68.430  1.00  0.00    -0.211 C  
HETATM    9  C   UNL     1     -12.130  12.735  69.676  1.00  0.00    -0.286 C  
HETATM   10  C   UNL     1     -11.403  10.355  70.109  1.00  0.00    -0.397 C  
HETATM   11  C   UNL     1     -11.305  11.702  69.441  1.00  0.00    -0.342 C  
ENDROOT
BRANCH   4  12
HETATM   12  C   UNL     1      -8.710   8.344  71.100  1.00  0.00    -0.194 C  
HETATM   13  C   UNL     1      -7.493   7.939  71.494  1.00  0.00    -0.073 C  
BRANCH  13  14
HETATM   14  C   UNL     1      -7.239   6.769  72.394  1.00  0.00    -0.086 C  
HETATM   15  O   UNL     1      -5.908   6.326  72.160  1.00  0.00    -0.035 OA 
HETATM   16  C   UNL     1      -7.424   7.119  73.891  1.00  0.00    -0.114 C  
HETATM   17  H   UNL     1      -5.747   5.584  72.731  1.00  0.00     0.000 HD 
HETATM   18  C   UNL     1      -8.870   7.550  74.214  1.00  0.00    -0.247 C  
HETATM   19  C   UNL     1      -6.440   8.194  74.376  1.00  0.00    -0.136 C  
BRANCH  18  20
HETATM   20  C   UNL     1      -9.836   6.417  73.911  1.00  0.00    -0.250 C  
HETATM   21  C   UNL     1     -10.665   5.444  73.650  1.00  0.00    -0.337 C  
HETATM   22  C   UNL     1     -11.631   4.310  73.346  1.00  0.00    -0.194 C  
ENDBRANCH  18  20
ENDBRANCH  13  14
ENDBRANCH   4  12
BRANCH   9  23
HETATM   23  C   UNL     1     -12.040  14.060  68.967  1.00  0.00    -0.358 C  
BRANCH  23  24
HETATM   24  C   UNL     1     -12.002  15.244  69.937  1.00  0.00    -0.373 C  
BRANCH  24  25
HETATM   25  C   UNL     1     -13.238  15.313  70.831  1.00  0.00    -0.506 C  
HETATM   26  C   UNL     1     -12.907  15.813  72.215  1.00  0.00    -0.447 C  
HETATM   27  O   UNL     1     -11.798  16.136  72.610  1.00  0.00    -0.492 OA 
HETATM   28  O   UNL     1     -14.003  15.870  73.008  1.00  0.00    -0.573 OA 
ENDBRANCH  24  25
ENDBRANCH  23  24
ENDBRANCH   9  23
TORSDOF 6
ENDMDL
MODEL      101
REMARK 921   NORMALIZED FREE ENERGY PREDICTED BY IDOCK:   -4.66 KCAL/MOL
REMARK 922        TOTAL FREE ENERGY PREDICTED BY IDOCK:   -7.64 KCAL/MOL
REMARK 923 INTER-LIGAND FREE ENERGY PREDICTED BY IDOCK:   -7.30 KCAL/MOL
REMARK 924 INTRA-LIGAND FREE ENERGY PREDICTED BY IDOCK:   -0.34 KCAL/MOL
REMARK 927      BINDING AFFINITY PREDICTED BY RF-SCORE:    0.00 PKD
ROOT
HETATM    1  C   UNL     1     -11.569  10.729  68.657  1.00  0.00    -0.342 C  
HETATM    2  C   UNL     1     -10.392  10.708  67.694  1.00  0.00    -0.246 C  
HETATM    3  C   UNL     1      -9.156  10.523  68.575  1.00  0.00    -0.154 C  
HETATM    4  C   UNL     1      -9.646   9.867  69.884  1.00  0.00    -0.265 C  
HETATM    5  O   UNL     1      -8.577  11.791  68.887  1.00  0.00    -0.356 OA 
HETATM    6  H   UNL     1      -7.809  11.675  69.435  1.00  0.00     0.000 HD 
HETATM    7  C   UNL     1     -11.183   9.745  69.759  1.00  0.00    -0.242 C  
HETATM    8  C   UNL     1     -11.770  12.062  69.368  1.00  0.00    -0.402 C  
HETATM    9  C   UNL     1     -12.918  12.472  71.572  1.00  0.00    -0.379 C  
HETATM   10  C   UNL     1     -11.965  10.205  70.994  1.00  0.00    -0.474 C  
HETATM   11  C   UNL     1     -12.260  11.660  70.730  1.00  0.00    -0.443 C  
ENDROOT
BRANCH   4  12
HETATM   12  C   UNL     1      -9.037   8.501  70.099  1.00  0.00    -0.154 C  
HETATM   13  C   UNL     1      -9.513   7.401  69.495  1.00  0.00    -0.155 C  
BRANCH  13  14
HETATM   14  C   UNL     1      -8.848   6.060  69.530  1.00  0.00    -0.125 C  
HETATM   15  O   UNL     1      -9.473   5.243  68.547  1.00  0.00    -0.117 OA 
HETATM   16  C   UNL     1      -7.325   6.143  69.258  1.00  0.00    -0.088 C  
HETATM   17  H   UNL     1      -9.051   4.392  68.570  1.00  0.00     0.000 HD 
HETATM   18  C   UNL     1      -6.587   6.969  70.331  1.00  0.00    -0.051 C  
HETATM   19  C   UNL     1      -7.001   6.692  67.862  1.00  0.00    -0.083 C  
BRANCH  18  20
HETATM   20  C   UNL     1      -6.749   6.323  71.697  1.00  0.00    -0.063 C  
HETATM   21  C   UNL     1      -6.888   5.770  72.870  1.00  0.00    -0.075 C  
HETATM   22  C   UNL     1      -7.050   5.125  74.237  1.00  0.00    -0.078 C  
ENDBRANCH  18  20
ENDBRANCH  13  14
ENDBRANCH   4  12
BRANCH   9  23
HETATM   23  C   UNL     1     -13.239  13.912  71.271  1.00  0.00    -0.352 C  
BRANCH  23  24
HETATM   24  C   UNL     1     -14.263  14.502  72.245  1.00  0.00    -0.563 C  
BRANCH  24  25
HETATM   25  C   UNL     1     -13.867  15.890  72.744  1.00  0.00    -0.532 C  
HETATM   26  C   UNL     1     -12.859  15.820  73.865  1.00  0.00    -0.541 C  
HETATM   27  O   UNL     1     -12.392  14.799  74.341  1.00  0.00    -0.510 OA 
HETATM   28  O   UNL     1     -12.512  17.051  74.309  1.00  0.00    -0.511 OA 
ENDBRANCH  24  25
ENDBRANCH  23  24
ENDBRANCH   9  23
TORSDOF 6
ENDMDL
MODEL      102
REMARK 921   NORMALIZED FREE ENERGY PREDICTED BY IDOCK:   -4.66 KCAL/MOL
REMARK 922        TOTAL FREE ENERGY PREDICTED BY IDOCK:   -7.64 KCAL/MOL
REMARK 923 INTER-LIGAND FREE ENERGY PREDICTED BY IDOCK:   -6.79 KCAL/MOL
REMARK 924 INTRA-LIGAND FREE ENERGY PREDICTED BY IDOCK:   -0.84 KCAL/MOL
REMARK 927      BINDING AFFINITY PREDICTED BY RF-SCORE:    0.00 PKD
ROOT
HETATM    1  C   UNL     1      -7.331   9.405  67.171  1.00  0.00    -0.087 C  
HETATM    2  C   UNL     1      -7.529   8.952  65.733  1.00  0.00    -0.089 C  
HETATM    3  C   UNL     1      -9.029   9.095  65.471  1.00  0.00    -0.205 C  
HETATM    4  C   UNL     1      -9.553  10.136  66.484  1.00  0.00    -0.236 C  
HETATM    5  O   UNL     1      -9.692   7.852  65.706  1.00  0.00    -0.417 OA 
HETATM    6  H   UNL     1     -10.624   7.942  65.543  1.00  0.00     0.000 HD 
HETATM    7  C   UNL     1      -8.344  10.530  67.365  1.00  0.00    -0.121 C  
HETATM    8  C   UNL     1      -7.700   8.354  68.212  1.00  0.00    -0.106 C  
HETATM    9  C   UNL     1      -8.381   8.734  70.607  1.00  0.00    -0.173 C  
HETATM   10  C   UNL     1      -8.630  10.551  68.871  1.00  0.00    -0.153 C  
HETATM   11  C   UNL     1      -8.267   9.167  69.342  1.00  0.00    -0.118 C  
ENDROOT
BRANCH   4  12
HETATM   12  C   UNL     1     -10.114  11.361  65.802  1.00  0.00    -0.289 C  
HETATM   13  C   UNL     1      -9.892  12.602  66.263  1.00  0.00    -0.266 C  
BRANCH  13  14
HETATM   14  C   UNL     1     -10.271  13.856  65.537  1.00  0.00    -0.331 C  
HETATM   15  O   UNL     1     -10.059  13.631  64.148  1.00  0.00    -0.757 OA 
HETATM   16  C   UNL     1     -11.743  14.267  65.788  1.00  0.00    -0.359 C  
HETATM   17  H   UNL     1     -10.300  14.427  63.688  1.00  0.00     0.000 HD 
HETATM   18  C   UNL     1     -12.015  14.582  67.273  1.00  0.00    -0.375 C  
HETATM   19  C   UNL     1     -12.746  13.218  65.286  1.00  0.00    -0.474 C  
BRANCH  18  20
HETATM   20  C   UNL     1     -11.155  15.749  67.729  1.00  0.00    -0.313 C  
HETATM   21  C   UNL     1     -10.418  16.752  68.119  1.00  0.00    -0.332 C  
HETATM   22  C   UNL     1      -9.559  17.920  68.574  1.00  0.00    -0.327 C  
ENDBRANCH  18  20
ENDBRANCH  13  14
ENDBRANCH   4  12
BRANCH   9  23
HETATM   23  C   UNL     1      -7.972   7.359  71.065  1.00  0.00    -0.097 C  
BRANCH  23  24
HETATM   24  C   UNL     1      -9.172   6.475  71.414  1.00  0.00    -0.148 C  
BRANCH  24  25
HETATM   25  C   UNL     1     -10.445   6.893  70.681  1.00  0.00    -0.233 C  
HETATM   26  C   UNL     1     -11.574   7.194  71.636  1.00  0.00    -0.276 C  
HETATM   27  O   UNL     1     -11.515   7.125  72.853  1.00  0.00    -0.248 OA 
HETATM   28  O   UNL     1     -12.702   7.562  70.985  1.00  0.00    -0.265 OA 
ENDBRANCH  24  25
ENDBRANCH  23  24
ENDBRANCH   9  23
TORSDOF 6
ENDMDL
MODEL      103
REMARK 921   NORMALIZED FREE ENERGY PREDICTED BY IDOCK:   -4.64 KCAL/MOL
REMARK 922        TOTAL FREE ENERGY PREDICTED BY IDOCK:   -7.62 KCAL/MOL
REMARK 923 INTER-LIGAND FREE ENERGY PREDICTED BY IDOCK:   -6.19 KCAL/MOL
REMARK 924 INTRA-LIGAND FREE ENERGY PREDICTED BY IDOCK:   -1.43 KCAL/MOL
REMARK 927      BINDING AFFINITY PREDICTED BY RF-SCORE:    0.00 PKD
ROOT
HETATM    1  C   UNL     1     -11.855   6.823  70.589  1.00  0.00    -0.442 C  
HETATM    2  C   UNL     1     -12.324   7.764  71.687  1.00  0.00    -0.348 C  
HETATM    3  C   UNL     1     -11.075   8.534  72.118  1.00  0.00    -0.366 C  
HETATM    4  C   UNL     1     -10.094   8.474  70.928  1.00  0.00    -0.246 C  
HETATM    5  O   UNL     1     -10.468   7.899  73.244  1.00  0.00    -0.339 OA 
HETATM    6  H   UNL     1      -9.692   8.377  73.511  1.00  0.00     0.000 HD 
HETATM    7  C   UNL     1     -10.777   7.606  69.845  1.00  0.00    -0.253 C  
HETATM    8  C   UNL     1     -11.155   5.569  71.100  1.00  0.00    -0.125 C  
HETATM    9  C   UNL     1      -9.490   4.130  69.875  1.00  0.00    -0.265 C  
HETATM   10  C   UNL     1      -9.874   6.538  69.217  1.00  0.00    -0.161 C  
HETATM   11  C   UNL     1     -10.102   5.310  70.060  1.00  0.00    -0.336 C  
ENDROOT
BRANCH   4  12
HETATM   12  C   UNL     1      -9.789   9.845  70.372  1.00  0.00    -0.185 C  
HETATM   13  C   UNL     1      -9.360  10.029  69.113  1.00  0.00    -0.200 C  
BRANCH  13  14
HETATM   14  C   UNL     1      -9.211  11.366  68.455  1.00  0.00    -0.183 C  
HETATM   15  O   UNL     1      -7.915  11.416  67.870  1.00  0.00    -0.111 OA 
HETATM   16  C   UNL     1     -10.290  11.619  67.372  1.00  0.00    -0.231 C  
HETATM   17  H   UNL     1      -7.821  12.264  67.453  1.00  0.00     0.000 HD 
HETATM   18  C   UNL     1     -11.715  11.635  67.962  1.00  0.00    -0.351 C  
HETATM   19  C   UNL     1     -10.216  10.614  66.214  1.00  0.00    -0.304 C  
BRANCH  18  20
HETATM   20  C   UNL     1     -11.850  12.756  68.980  1.00  0.00    -0.344 C  
HETATM   21  C   UNL     1     -11.968  13.717  69.853  1.00  0.00    -0.412 C  
HETATM   22  C   UNL     1     -12.104  14.837  70.871  1.00  0.00    -0.387 C  
ENDBRANCH  18  20
ENDBRANCH  13  14
ENDBRANCH   4  12
BRANCH   9  23
HETATM   23  C   UNL     1      -9.764   2.903  70.703  1.00  0.00    -0.104 C  
BRANCH  23  24
HETATM   24  C   UNL     1      -9.150   2.990  72.103  1.00  0.00    -0.143 C  
BRANCH  24  25
HETATM   25  C   UNL     1      -7.830   3.757  72.120  1.00  0.00    -0.068 C  
HETATM   26  C   UNL     1      -7.891   4.967  73.020  1.00  0.00    -0.094 C  
HETATM   27  O   UNL     1      -8.859   5.321  73.673  1.00  0.00    -0.122 OA 
HETATM   28  O   UNL     1      -6.721   5.648  73.032  1.00  0.00    -0.070 OA 
ENDBRANCH  24  25
ENDBRANCH  23  24
ENDBRANCH   9  23
TORSDOF 6
ENDMDL
MODEL      104
REMARK 921   NORMALIZED FREE ENERGY PREDICTED BY IDOCK:   -4.64 KCAL/MOL
REMARK 922        TOTAL FREE ENERGY PREDICTED BY IDOCK:   -7.62 KCAL/MOL
REMARK 923 INTER-LIGAND FREE ENERGY PREDICTED BY IDOCK:   -6.85 KCAL/MOL
REMARK 924 INTRA-LIGAND FREE ENERGY PREDICTED BY IDOCK:   -0.77 KCAL/MOL
REMARK 927      BINDING AFFINITY PREDICTED BY RF-SCORE:    0.00 PKD
ROOT
HETATM    1  C   UNL     1      -9.867   9.894  70.343  1.00  0.00    -0.185 C  
HETATM    2  C   UNL     1     -10.422   8.979  71.424  1.00  0.00    -0.395 C  
HETATM    3  C   UNL     1     -10.884   7.722  70.686  1.00  0.00    -0.237 C  
HETATM    4  C   UNL     1     -10.086   7.672  69.366  1.00  0.00    -0.196 C  
HETATM    5  O   UNL     1     -12.275   7.814  70.377  1.00  0.00    -0.484 OA 
HETATM    6  H   UNL     1     -12.562   7.032  69.919  1.00  0.00     0.000 HD 
HETATM    7  C   UNL     1      -9.216   8.950  69.336  1.00  0.00    -0.146 C  
HETATM    8  C   UNL     1     -10.933  10.645  69.554  1.00  0.00    -0.321 C  
HETATM    9  C   UNL     1     -10.744  11.587  67.225  1.00  0.00    -0.286 C  
HETATM   10  C   UNL     1      -9.242   9.711  68.005  1.00  0.00    -0.132 C  
HETATM   11  C   UNL     1     -10.356  10.714  68.168  1.00  0.00    -0.203 C  
ENDROOT
BRANCH   4  12
HETATM   12  C   UNL     1      -9.205   6.447  69.279  1.00  0.00    -0.135 C  
HETATM   13  C   UNL     1      -8.937   5.839  68.114  1.00  0.00    -0.114 C  
BRANCH  13  14
HETATM   14  C   UNL     1      -7.938   4.736  67.943  1.00  0.00    -0.089 C  
HETATM   15  O   UNL     1      -7.082   4.750  69.080  1.00  0.00    -0.050 OA 
HETATM   16  C   UNL     1      -8.605   3.345  67.800  1.00  0.00    -0.118 C  
HETATM   17  H   UNL     1      -6.449   4.051  68.972  1.00  0.00     0.000 HD 
HETATM   18  C   UNL     1      -9.499   3.255  66.546  1.00  0.00    -0.110 C  
HETATM   19  C   UNL     1      -9.409   2.942  69.044  1.00  0.00    -0.215 C  
BRANCH  18  20
HETATM   20  C   UNL     1      -8.669   3.469  65.291  1.00  0.00    -0.119 C  
HETATM   21  C   UNL     1      -7.957   3.654  64.215  1.00  0.00    -0.086 C  
HETATM   22  C   UNL     1      -7.126   3.869  62.960  1.00  0.00    -0.044 C  
ENDBRANCH  18  20
ENDBRANCH  13  14
ENDBRANCH   4  12
BRANCH   9  23
HETATM   23  C   UNL     1     -11.831  12.609  67.423  1.00  0.00    -0.393 C  
BRANCH  23  24
HETATM   24  C   UNL     1     -12.261  13.272  66.112  1.00  0.00    -0.466 C  
BRANCH  24  25
HETATM   25  C   UNL     1     -11.583  14.621  65.885  1.00  0.00    -0.327 C  
HETATM   26  C   UNL     1     -11.894  15.187  64.520  1.00  0.00    -0.330 C  
HETATM   27  O   UNL     1     -12.599  14.660  63.675  1.00  0.00    -0.773 OA 
HETATM   28  O   UNL     1     -11.290  16.381  64.319  1.00  0.00    -0.892 OA 
ENDBRANCH  24  25
ENDBRANCH  23  24
ENDBRANCH   9  23
TORSDOF 6
ENDMDL
MODEL      105
REMARK 921   NORMALIZED FREE ENERGY PREDICTED BY IDOCK:   -4.63 KCAL/MOL
REMARK 922        TOTAL FREE ENERGY PREDICTED BY IDOCK:   -7.61 KCAL/MOL
REMARK 923 INTER-LIGAND FREE ENERGY PREDICTED BY IDOCK:   -6.52 KCAL/MOL
REMARK 924 INTRA-LIGAND FREE ENERGY PREDICTED BY IDOCK:   -1.09 KCAL/MOL
REMARK 927      BINDING AFFINITY PREDICTED BY RF-SCORE:    0.00 PKD
ROOT
HETATM    1  C   UNL     1     -11.086  11.889  66.894  1.00  0.00    -0.356 C  
HETATM    2  C   UNL     1     -10.443  10.799  66.051  1.00  0.00    -0.273 C  
HETATM    3  C   UNL     1      -9.057  10.585  66.662  1.00  0.00    -0.155 C  
HETATM    4  C   UNL     1      -9.141  11.079  68.122  1.00  0.00    -0.155 C  
HETATM    5  O   UNL     1      -8.086  11.370  65.968  1.00  0.00    -0.348 OA 
HETATM    6  H   UNL     1      -7.225  11.237  66.348  1.00  0.00     0.000 HD 
HETATM    7  C   UNL     1     -10.572  11.636  68.309  1.00  0.00    -0.232 C  
HETATM    8  C   UNL     1     -10.622  13.300  66.550  1.00  0.00    -0.289 C  
HETATM    9  C   UNL     1     -10.642  15.332  68.038  1.00  0.00    -0.261 C  
HETATM   10  C   UNL     1     -10.642  12.999  69.007  1.00  0.00    -0.079 C  
HETATM   11  C   UNL     1     -10.617  13.999  67.879  1.00  0.00    -0.246 C  
ENDROOT
BRANCH   4  12
HETATM   12  C   UNL     1      -8.887   9.969  69.114  1.00  0.00    -0.171 C  
HETATM   13  C   UNL     1      -9.723   9.712  70.132  1.00  0.00    -0.301 C  
BRANCH  13  14
HETATM   14  C   UNL     1      -9.617   8.523  71.036  1.00  0.00    -0.192 C  
HETATM   15  O   UNL     1      -8.959   8.945  72.226  1.00  0.00    -0.388 OA 
HETATM   16  C   UNL     1     -10.998   7.915  71.384  1.00  0.00    -0.264 C  
HETATM   17  H   UNL     1      -8.892   8.191  72.800  1.00  0.00     0.000 HD 
HETATM   18  C   UNL     1     -11.732   7.385  70.134  1.00  0.00    -0.028 C  
HETATM   19  C   UNL     1     -11.905   8.893  72.144  1.00  0.00    -0.417 C  
BRANCH  18  20
HETATM   20  C   UNL     1     -10.922   6.279  69.478  1.00  0.00    -0.445 C  
HETATM   21  C   UNL     1     -10.228   5.330  68.914  1.00  0.00    -0.248 C  
HETATM   22  C   UNL     1      -9.419   4.224  68.257  1.00  0.00    -0.212 C  
ENDBRANCH  18  20
ENDBRANCH  13  14
ENDBRANCH   4  12
BRANCH   9  23
HETATM   23  C   UNL     1     -10.658  16.313  66.896  1.00  0.00    -0.270 C  
BRANCH  23  24
HETATM   24  C   UNL     1      -9.271  16.525  66.283  1.00  0.00    -0.345 C  
BRANCH  24  25
HETATM   25  C   UNL     1      -8.810  17.979  66.358  1.00  0.00    -0.251 C  
HETATM   26  C   UNL     1      -7.330  18.088  66.631  1.00  0.00    -0.221 C  
HETATM   27  O   UNL     1      -6.561  17.152  66.778  1.00  0.00    -0.180 OA 
HETATM   28  O   UNL     1      -6.923  19.378  66.701  1.00  0.00    -0.196 OA 
ENDBRANCH  24  25
ENDBRANCH  23  24
ENDBRANCH   9  23
TORSDOF 6
ENDMDL
MODEL      106
REMARK 921   NORMALIZED FREE ENERGY PREDICTED BY IDOCK:   -4.62 KCAL/MOL
REMARK 922        TOTAL FREE ENERGY PREDICTED BY IDOCK:   -7.58 KCAL/MOL
REMARK 923 INTER-LIGAND FREE ENERGY PREDICTED BY IDOCK:   -6.43 KCAL/MOL
REMARK 924 INTRA-LIGAND FREE ENERGY PREDICTED BY IDOCK:   -1.15 KCAL/MOL
REMARK 927      BINDING AFFINITY PREDICTED BY RF-SCORE:    0.00 PKD
ROOT
HETATM    1  C   UNL     1     -10.474   8.667  69.538  1.00  0.00    -0.222 C  
HETATM    2  C   UNL     1      -9.606   9.211  70.661  1.00  0.00    -0.312 C  
HETATM    3  C   UNL     1      -8.348   9.746  69.973  1.00  0.00    -0.192 C  
HETATM    4  C   UNL     1      -8.743  10.043  68.511  1.00  0.00    -0.123 C  
HETATM    5  O   UNL     1      -7.323   8.752  69.979  1.00  0.00    -0.049 OA 
HETATM    6  H   UNL     1      -6.542   9.084  69.551  1.00  0.00     0.000 HD 
HETATM    7  C   UNL     1     -10.220   9.608  68.363  1.00  0.00    -0.214 C  
HETATM    8  C   UNL     1     -10.057   7.288  69.040  1.00  0.00    -0.186 C  
HETATM    9  C   UNL     1     -10.505   6.268  66.780  1.00  0.00    -0.311 C  
HETATM   10  C   UNL     1     -10.520   8.773  67.114  1.00  0.00    -0.354 C  
HETATM   11  C   UNL     1     -10.354   7.345  67.568  1.00  0.00    -0.320 C  
ENDROOT
BRANCH   4  12
HETATM   12  C   UNL     1      -8.601  11.508  68.169  1.00  0.00    -0.156 C  
HETATM   13  C   UNL     1      -9.591  12.209  67.596  1.00  0.00    -0.190 C  
BRANCH  13  14
HETATM   14  C   UNL     1      -9.573  13.693  67.396  1.00  0.00    -0.226 C  
HETATM   15  O   UNL     1      -8.432  14.007  66.607  1.00  0.00    -0.429 OA 
HETATM   16  C   UNL     1     -10.856  14.215  66.702  1.00  0.00    -0.299 C  
HETATM   17  H   UNL     1      -8.421  14.948  66.480  1.00  0.00     0.000 HD 
HETATM   18  C   UNL     1     -12.121  13.953  67.544  1.00  0.00    -0.366 C  
HETATM   19  C   UNL     1     -11.042  13.642  65.290  1.00  0.00    -0.307 C  
BRANCH  18  20
HETATM   20  C   UNL     1     -12.024  14.676  68.878  1.00  0.00    -0.309 C  
HETATM   21  C   UNL     1     -11.943  15.296  70.022  1.00  0.00    -0.375 C  
HETATM   22  C   UNL     1     -11.847  16.019  71.356  1.00  0.00    -0.531 C  
ENDBRANCH  18  20
ENDBRANCH  13  14
ENDBRANCH   4  12
BRANCH   9  23
HETATM   23  C   UNL     1     -10.376   4.849  67.265  1.00  0.00    -0.154 C  
BRANCH  23  24
HETATM   24  C   UNL     1      -9.400   4.026  66.420  1.00  0.00    -0.186 C  
BRANCH  24  25
HETATM   25  C   UNL     1      -9.034   4.714  65.106  1.00  0.00    -0.150 C  
HETATM   26  C   UNL     1      -9.613   3.996  63.912  1.00  0.00    -0.157 C  
HETATM   27  O   UNL     1     -10.297   2.986  63.950  1.00  0.00    -0.181 OA 
HETATM   28  O   UNL     1      -9.284   4.605  62.748  1.00  0.00    -0.135 OA 
ENDBRANCH  24  25
ENDBRANCH  23  24
ENDBRANCH   9  23
TORSDOF 6
ENDMDL
MODEL      107
REMARK 921   NORMALIZED FREE ENERGY PREDICTED BY IDOCK:   -4.61 KCAL/MOL
REMARK 922        TOTAL FREE ENERGY PREDICTED BY IDOCK:   -7.58 KCAL/MOL
REMARK 923 INTER-LIGAND FREE ENERGY PREDICTED BY IDOCK:   -6.43 KCAL/MOL
REMARK 924 INTRA-LIGAND FREE ENERGY PREDICTED BY IDOCK:   -1.15 KCAL/MOL
REMARK 927      BINDING AFFINITY PREDICTED BY RF-SCORE:    0.00 PKD
ROOT
HETATM    1  C   UNL     1      -8.424  11.255  67.836  1.00  0.00    -0.133 C  
HETATM    2  C   UNL     1      -7.919  11.034  69.253  1.00  0.00    -0.034 C  
HETATM    3  C   UNL     1      -8.579   9.735  69.717  1.00  0.00    -0.201 C  
HETATM    4  C   UNL     1      -8.947   8.951  68.439  1.00  0.00    -0.134 C  
HETATM    5  O   UNL     1      -9.777  10.021  70.440  1.00  0.00    -0.381 OA 
HETATM    6  H   UNL     1     -10.187   9.214  70.728  1.00  0.00     0.000 HD 
HETATM    7  C   UNL     1      -8.547   9.852  67.247  1.00  0.00    -0.125 C  
HETATM    8  C   UNL     1      -9.830  11.842  67.760  1.00  0.00    -0.186 C  
HETATM    9  C   UNL     1     -11.473  11.656  65.860  1.00  0.00    -0.189 C  
HETATM   10  C   UNL     1      -9.611   9.973  66.151  1.00  0.00    -0.265 C  
HETATM   11  C   UNL     1     -10.414  11.188  66.540  1.00  0.00    -0.305 C  
ENDROOT
BRANCH   4  12
HETATM   12  C   UNL     1      -8.220   7.630  68.353  1.00  0.00    -0.125 C  
HETATM   13  C   UNL     1      -7.955   6.886  69.438  1.00  0.00    -0.115 C  
BRANCH  13  14
HETATM   14  C   UNL     1      -7.399   5.496  69.398  1.00  0.00    -0.066 C  
HETATM   15  O   UNL     1      -6.146   5.514  70.071  1.00  0.00    -0.020 OA 
HETATM   16  C   UNL     1      -8.340   4.459  70.060  1.00  0.00    -0.075 C  
HETATM   17  H   UNL     1      -5.793   4.633  70.046  1.00  0.00     0.000 HD 
HETATM   18  C   UNL     1      -9.696   4.354  69.332  1.00  0.00    -0.267 C  
HETATM   19  C   UNL     1      -8.571   4.735  71.553  1.00  0.00    -0.125 C  
BRANCH  18  20
HETATM   20  C   UNL     1      -9.488   3.898  67.897  1.00  0.00    -0.227 C  
HETATM   21  C   UNL     1      -9.311   3.505  66.666  1.00  0.00    -0.194 C  
HETATM   22  C   UNL     1      -9.105   3.048  65.232  1.00  0.00    -0.149 C  
ENDBRANCH  18  20
ENDBRANCH  13  14
ENDBRANCH   4  12
BRANCH   9  23
HETATM   23  C   UNL     1     -12.236  12.896  66.244  1.00  0.00    -0.340 C  
BRANCH  23  24
HETATM   24  C   UNL     1     -12.000  14.055  65.271  1.00  0.00    -0.384 C  
BRANCH  24  25
HETATM   25  C   UNL     1     -11.042  15.105  65.828  1.00  0.00    -0.330 C  
HETATM   26  C   UNL     1     -10.966  16.326  64.943  1.00  0.00    -0.307 C  
HETATM   27  O   UNL     1     -11.582  16.491  63.903  1.00  0.00    -1.175 OA 
HETATM   28  O   UNL     1     -10.113  17.255  65.437  1.00  0.00    -0.574 OA 
ENDBRANCH  24  25
ENDBRANCH  23  24
ENDBRANCH   9  23
TORSDOF 6
ENDMDL
MODEL      108
REMARK 921   NORMALIZED FREE ENERGY PREDICTED BY IDOCK:   -4.61 KCAL/MOL
REMARK 922        TOTAL FREE ENERGY PREDICTED BY IDOCK:   -7.57 KCAL/MOL
REMARK 923 INTER-LIGAND FREE ENERGY PREDICTED BY IDOCK:   -6.28 KCAL/MOL
REMARK 924 INTRA-LIGAND FREE ENERGY PREDICTED BY IDOCK:   -1.29 KCAL/MOL
REMARK 927      BINDING AFFINITY PREDICTED BY RF-SCORE:    0.00 PKD
ROOT
HETATM    1  C   UNL     1      -9.501   9.415  69.714  1.00  0.00    -0.216 C  
HETATM    2  C   UNL     1      -9.259   9.342  68.215  1.00  0.00    -0.133 C  
HETATM    3  C   UNL     1     -10.631   9.563  67.576  1.00  0.00    -0.275 C  
HETATM    4  C   UNL     1     -11.482  10.320  68.618  1.00  0.00    -0.178 C  
HETATM    5  O   UNL     1     -11.254   8.308  67.300  1.00  0.00    -0.319 OA 
HETATM    6  H   UNL     1     -12.107   8.445  66.903  1.00  0.00     0.000 HD 
HETATM    7  C   UNL     1     -10.596  10.466  69.878  1.00  0.00    -0.299 C  
HETATM    8  C   UNL     1     -10.081   8.140  70.315  1.00  0.00    -0.192 C  
HETATM    9  C   UNL     1     -11.428   7.911  72.431  1.00  0.00    -0.433 C  
HETATM   10  C   UNL     1     -11.294  10.110  71.195  1.00  0.00    -0.326 C  
HETATM   11  C   UNL     1     -10.991   8.648  71.397  1.00  0.00    -0.341 C  
ENDROOT
BRANCH   4  12
HETATM   12  C   UNL     1     -11.905  11.683  68.125  1.00  0.00    -0.315 C  
HETATM   13  C   UNL     1     -11.687  12.801  68.835  1.00  0.00    -0.370 C  
BRANCH  13  14
HETATM   14  C   UNL     1     -11.923  14.189  68.325  1.00  0.00    -0.332 C  
HETATM   15  O   UNL     1     -12.614  14.909  69.340  1.00  0.00    -0.575 OA 
HETATM   16  C   UNL     1     -10.608  14.921  67.959  1.00  0.00    -0.248 C  
HETATM   17  H   UNL     1     -12.763  15.790  69.016  1.00  0.00     0.000 HD 
HETATM   18  C   UNL     1      -9.847  14.214  66.819  1.00  0.00    -0.275 C  
HETATM   19  C   UNL     1      -9.679  15.111  69.166  1.00  0.00    -0.232 C  
BRANCH  18  20
HETATM   20  C   UNL     1     -10.694  14.188  65.557  1.00  0.00    -0.330 C  
HETATM   21  C   UNL     1     -11.421  14.164  64.475  1.00  0.00    -0.380 C  
HETATM   22  C   UNL     1     -12.268  14.137  63.213  1.00  0.00     0.486 C  
ENDBRANCH  18  20
ENDBRANCH  13  14
ENDBRANCH   4  12
BRANCH   9  23
HETATM   23  C   UNL     1     -11.078   6.461  72.636  1.00  0.00    -0.294 C  
BRANCH  23  24
HETATM   24  C   UNL     1     -10.355   6.213  73.962  1.00  0.00    -0.311 C  
BRANCH  24  25
HETATM   25  C   UNL     1      -9.482   7.392  74.386  1.00  0.00     0.021 C  
HETATM   26  C   UNL     1      -8.109   7.333  73.762  1.00  0.00    -0.119 C  
HETATM   27  O   UNL     1      -7.709   6.465  73.003  1.00  0.00    -0.098 OA 
HETATM   28  O   UNL     1      -7.336   8.377  74.141  1.00  0.00    -0.197 OA 
ENDBRANCH  24  25
ENDBRANCH  23  24
ENDBRANCH   9  23
TORSDOF 6
ENDMDL
MODEL      109
REMARK 921   NORMALIZED FREE ENERGY PREDICTED BY IDOCK:   -4.61 KCAL/MOL
REMARK 922        TOTAL FREE ENERGY PREDICTED BY IDOCK:   -7.57 KCAL/MOL
REMARK 923 INTER-LIGAND FREE ENERGY PREDICTED BY IDOCK:   -6.46 KCAL/MOL
REMARK 924 INTRA-LIGAND FREE ENERGY PREDICTED BY IDOCK:   -1.11 KCAL/MOL
REMARK 927      BINDING AFFINITY PREDICTED BY RF-SCORE:    0.00 PKD
ROOT
HETATM    1  C   UNL     1      -9.066   9.267  70.959  1.00  0.00    -0.253 C  
HETATM    2  C   UNL     1      -8.078   9.837  69.953  1.00  0.00    -0.192 C  
HETATM    3  C   UNL     1      -8.795   9.772  68.604  1.00  0.00    -0.126 C  
HETATM    4  C   UNL     1     -10.307   9.741  68.914  1.00  0.00    -0.225 C  
HETATM    5  O   UNL     1      -8.444   8.571  67.916  1.00  0.00    -0.128 OA 
HETATM    6  H   UNL     1      -8.890   8.531  67.078  1.00  0.00     0.000 HD 
HETATM    7  C   UNL     1     -10.434   9.722  70.456  1.00  0.00    -0.366 C  
HETATM    8  C   UNL     1      -9.134   7.744  70.971  1.00  0.00    -0.152 C  
HETATM    9  C   UNL     1     -11.051   6.297  71.730  1.00  0.00    -0.321 C  
HETATM   10  C   UNL     1     -11.423   8.688  71.004  1.00  0.00    -0.324 C  
HETATM   11  C   UNL     1     -10.582   7.463  71.259  1.00  0.00    -0.231 C  
ENDROOT
BRANCH   4  12
HETATM   12  C   UNL     1     -11.028  10.944  68.353  1.00  0.00    -0.288 C  
HETATM   13  C   UNL     1     -11.052  12.126  68.989  1.00  0.00    -0.290 C  
BRANCH  13  14
HETATM   14  C   UNL     1     -11.596  13.392  68.404  1.00  0.00    -0.332 C  
HETATM   15  O   UNL     1     -12.382  14.027  69.406  1.00  0.00    -0.417 OA 
HETATM   16  C   UNL     1     -10.481  14.351  67.920  1.00  0.00    -0.239 C  
HETATM   17  H   UNL     1     -12.726  14.831  69.035  1.00  0.00     0.000 HD 
HETATM   18  C   UNL     1      -9.634  13.735  66.788  1.00  0.00    -0.283 C  
HETATM   19  C   UNL     1      -9.565  14.820  69.060  1.00  0.00    -0.178 C  
BRANCH  18  20
HETATM   20  C   UNL     1     -10.506  13.439  65.579  1.00  0.00    -0.297 C  
HETATM   21  C   UNL     1     -11.255  13.187  64.542  1.00  0.00    -0.383 C  
HETATM   22  C   UNL     1     -12.128  12.893  63.333  1.00  0.00    -0.610 C  
ENDBRANCH  18  20
ENDBRANCH  13  14
ENDBRANCH   4  12
BRANCH   9  23
HETATM   23  C   UNL     1     -10.187   5.099  72.017  1.00  0.00    -0.260 C  
BRANCH  23  24
HETATM   24  C   UNL     1      -9.647   4.444  70.742  1.00  0.00    -0.259 C  
BRANCH  24  25
HETATM   25  C   UNL     1     -10.481   4.783  69.509  1.00  0.00     0.119 C  
HETATM   26  C   UNL     1      -9.628   5.294  68.374  1.00  0.00    -0.134 C  
HETATM   27  O   UNL     1      -8.416   5.432  68.399  1.00  0.00    -0.097 OA 
HETATM   28  O   UNL     1     -10.368   5.598  67.282  1.00  0.00    -0.192 OA 
ENDBRANCH  24  25
ENDBRANCH  23  24
ENDBRANCH   9  23
TORSDOF 6
ENDMDL
MODEL      110
REMARK 921   NORMALIZED FREE ENERGY PREDICTED BY IDOCK:   -4.60 KCAL/MOL
REMARK 922        TOTAL FREE ENERGY PREDICTED BY IDOCK:   -7.56 KCAL/MOL
REMARK 923 INTER-LIGAND FREE ENERGY PREDICTED BY IDOCK:   -6.46 KCAL/MOL
REMARK 924 INTRA-LIGAND FREE ENERGY PREDICTED BY IDOCK:   -1.11 KCAL/MOL
REMARK 927      BINDING AFFINITY PREDICTED BY RF-SCORE:    0.00 PKD
ROOT
HETATM    1  C   UNL     1      -7.864  10.499  67.398  1.00  0.00    -0.106 C  
HETATM    2  C   UNL     1      -8.036  10.737  65.906  1.00  0.00    -0.148 C  
HETATM    3  C   UNL     1      -9.543  10.651  65.658  1.00  0.00    -0.218 C  
HETATM    4  C   UNL     1     -10.226  10.956  67.008  1.00  0.00    -0.256 C  
HETATM    5  O   UNL     1      -9.902   9.331  65.250  1.00  0.00    -0.453 OA 
HETATM    6  H   UNL     1     -10.838   9.278  65.096  1.00  0.00     0.000 HD 
HETATM    7  C   UNL     1      -9.088  11.150  68.037  1.00  0.00    -0.153 C  
HETATM    8  C   UNL     1      -7.935   9.032  67.807  1.00  0.00    -0.101 C  
HETATM    9  C   UNL     1      -8.550   8.092  70.062  1.00  0.00    -0.129 C  
HETATM   10  C   UNL     1      -9.289  10.404  69.361  1.00  0.00    -0.186 C  
HETATM   11  C   UNL     1      -8.603   9.078  69.152  1.00  0.00    -0.133 C  
ENDROOT
BRANCH   4  12
HETATM   12  C   UNL     1     -11.081  12.201  66.945  1.00  0.00    -0.348 C  
HETATM   13  C   UNL     1     -10.656  13.385  67.412  1.00  0.00    -0.254 C  
BRANCH  13  14
HETATM   14  C   UNL     1     -11.381  14.681  67.220  1.00  0.00    -0.353 C  
HETATM   15  O   UNL     1     -12.660  14.382  66.671  1.00  0.00    -0.534 OA 
HETATM   16  C   UNL     1     -11.546  15.472  68.541  1.00  0.00    -0.379 C  
HETATM   17  H   UNL     1     -13.120  15.204  66.549  1.00  0.00     0.000 HD 
HETATM   18  C   UNL     1     -10.188  15.876  69.151  1.00  0.00    -0.234 C  
HETATM   19  C   UNL     1     -12.382  14.718  69.585  1.00  0.00    -0.253 C  
BRANCH  18  20
HETATM   20  C   UNL     1      -9.430  16.782  68.194  1.00  0.00    -0.234 C  
HETATM   21  C   UNL     1      -8.778  17.559  67.374  1.00  0.00    -0.231 C  
HETATM   22  C   UNL     1      -8.019  18.465  66.418  1.00  0.00    -0.288 C  
ENDBRANCH  18  20
ENDBRANCH  13  14
ENDBRANCH   4  12
BRANCH   9  23
HETATM   23  C   UNL     1      -7.824   6.791  69.849  1.00  0.00    -0.115 C  
BRANCH  23  24
HETATM   24  C   UNL     1      -8.737   5.574  70.019  1.00  0.00    -0.132 C  
BRANCH  24  25
HETATM   25  C   UNL     1      -9.608   5.662  71.269  1.00  0.00    -0.198 C  
HETATM   26  C   UNL     1     -11.046   5.977  70.935  1.00  0.00    -0.284 C  
HETATM   27  O   UNL     1     -11.496   6.146  69.813  1.00  0.00    -0.433 OA 
HETATM   28  O   UNL     1     -11.817   6.059  72.044  1.00  0.00    -0.303 OA 
ENDBRANCH  24  25
ENDBRANCH  23  24
ENDBRANCH   9  23
TORSDOF 6
ENDMDL
MODEL      111
REMARK 921   NORMALIZED FREE ENERGY PREDICTED BY IDOCK:   -4.59 KCAL/MOL
REMARK 922        TOTAL FREE ENERGY PREDICTED BY IDOCK:   -7.55 KCAL/MOL
REMARK 923 INTER-LIGAND FREE ENERGY PREDICTED BY IDOCK:   -6.56 KCAL/MOL
REMARK 924 INTRA-LIGAND FREE ENERGY PREDICTED BY IDOCK:   -1.00 KCAL/MOL
REMARK 927      BINDING AFFINITY PREDICTED BY RF-SCORE:    0.00 PKD
ROOT
HETATM    1  C   UNL     1     -10.855   9.999  70.183  1.00  0.00    -0.365 C  
HETATM    2  C   UNL     1     -11.512   8.697  70.611  1.00  0.00    -0.256 C  
HETATM    3  C   UNL     1     -10.721   7.596  69.903  1.00  0.00    -0.249 C  
HETATM    4  C   UNL     1      -9.332   8.191  69.586  1.00  0.00    -0.159 C  
HETATM    5  O   UNL     1     -11.359   7.242  68.676  1.00  0.00    -0.440 OA 
HETATM    6  H   UNL     1     -10.867   6.558  68.236  1.00  0.00     0.000 HD 
HETATM    7  C   UNL     1      -9.371   9.662  70.064  1.00  0.00    -0.276 C  
HETATM    8  C   UNL     1     -11.266  10.478  68.795  1.00  0.00    -0.317 C  
HETATM    9  C   UNL     1      -9.979  11.993  67.247  1.00  0.00    -0.205 C  
HETATM   10  C   UNL     1      -8.812  10.676  69.059  1.00  0.00    -0.154 C  
HETATM   11  C   UNL     1     -10.013  11.114  68.261  1.00  0.00    -0.196 C  
ENDROOT
BRANCH   4  12
HETATM   12  C   UNL     1      -8.221   7.449  70.291  1.00  0.00    -0.132 C  
HETATM   13  C   UNL     1      -8.271   7.160  71.601  1.00  0.00    -0.103 C  
BRANCH  13  14
HETATM   14  C   UNL     1      -7.290   6.281  72.313  1.00  0.00    -0.092 C  
HETATM   15  O   UNL     1      -6.509   7.110  73.166  1.00  0.00    -0.064 OA 
HETATM   16  C   UNL     1      -7.980   5.170  73.142  1.00  0.00    -0.104 C  
HETATM   17  H   UNL     1      -5.887   6.552  73.618  1.00  0.00     0.000 HD 
HETATM   18  C   UNL     1      -8.794   4.203  72.257  1.00  0.00    -0.124 C  
HETATM   19  C   UNL     1      -8.872   5.729  74.259  1.00  0.00    -0.122 C  
BRANCH  18  20
HETATM   20  C   UNL     1      -7.880   3.501  71.266  1.00  0.00    -0.059 C  
HETATM   21  C   UNL     1      -7.097   2.899  70.414  1.00  0.00    -0.033 C  
HETATM   22  C   UNL     1      -6.184   2.198  69.422  1.00  0.00    -0.025 C  
ENDBRANCH  18  20
ENDBRANCH  13  14
ENDBRANCH   4  12
BRANCH   9  23
HETATM   23  C   UNL     1     -11.198  12.449  66.490  1.00  0.00    -0.368 C  
BRANCH  23  24
HETATM   24  C   UNL     1     -10.878  12.849  65.047  1.00  0.00    -0.323 C  
BRANCH  24  25
HETATM   25  C   UNL     1     -10.588  14.342  64.901  1.00  0.00    -0.452 C  
HETATM   26  C   UNL     1     -11.700  15.065  64.180  1.00  0.00    -0.110 C  
HETATM   27  O   UNL     1     -12.722  14.554  63.752  1.00  0.00    -0.780 OA 
HETATM   28  O   UNL     1     -11.440  16.387  64.048  1.00  0.00    -1.048 OA 
ENDBRANCH  24  25
ENDBRANCH  23  24
ENDBRANCH   9  23
TORSDOF 6
ENDMDL
MODEL      112
REMARK 921   NORMALIZED FREE ENERGY PREDICTED BY IDOCK:   -4.58 KCAL/MOL
REMARK 922        TOTAL FREE ENERGY PREDICTED BY IDOCK:   -7.53 KCAL/MOL
REMARK 923 INTER-LIGAND FREE ENERGY PREDICTED BY IDOCK:   -6.25 KCAL/MOL
REMARK 924 INTRA-LIGAND FREE ENERGY PREDICTED BY IDOCK:   -1.28 KCAL/MOL
REMARK 927      BINDING AFFINITY PREDICTED BY RF-SCORE:    0.00 PKD
ROOT
HETATM    1  C   UNL     1     -10.885   8.938  67.705  1.00  0.00    -0.106 C  
HETATM    2  C   UNL     1     -11.047   9.855  68.907  1.00  0.00    -0.181 C  
HETATM    3  C   UNL     1      -9.766  10.689  68.952  1.00  0.00    -0.202 C  
HETATM    4  C   UNL     1      -9.188  10.680  67.521  1.00  0.00    -0.151 C  
HETATM    5  O   UNL     1      -8.817  10.089  69.834  1.00  0.00    -0.274 OA 
HETATM    6  H   UNL     1      -8.021  10.607  69.861  1.00  0.00     0.000 HD 
HETATM    7  C   UNL     1     -10.122   9.776  66.682  1.00  0.00    -0.303 C  
HETATM    8  C   UNL     1     -10.000   7.723  67.962  1.00  0.00    -0.210 C  
HETATM    9  C   UNL     1      -8.713   6.372  66.271  1.00  0.00    -0.146 C  
HETATM   10  C   UNL     1      -9.398   8.757  65.795  1.00  0.00    -0.259 C  
HETATM   11  C   UNL     1      -9.299   7.519  66.649  1.00  0.00    -0.222 C  
ENDROOT
BRANCH   4  12
HETATM   12  C   UNL     1      -9.135  12.065  66.919  1.00  0.00    -0.196 C  
HETATM   13  C   UNL     1     -10.005  12.472  65.982  1.00  0.00    -0.269 C  
BRANCH  13  14
HETATM   14  C   UNL     1     -10.112  13.879  65.479  1.00  0.00    -0.298 C  
HETATM   15  O   UNL     1     -10.144  13.827  64.057  1.00  0.00    -0.649 OA 
HETATM   16  C   UNL     1     -11.373  14.606  66.010  1.00  0.00    -0.344 C  
HETATM   17  H   UNL     1     -10.212  14.719  63.739  1.00  0.00     0.000 HD 
HETATM   18  C   UNL     1     -11.361  14.744  67.546  1.00  0.00    -0.355 C  
HETATM   19  C   UNL     1     -12.679  13.938  65.557  1.00  0.00    -0.536 C  
BRANCH  18  20
HETATM   20  C   UNL     1     -10.164  15.569  67.991  1.00  0.00    -0.229 C  
HETATM   21  C   UNL     1      -9.139  16.277  68.373  1.00  0.00    -0.203 C  
HETATM   22  C   UNL     1      -7.943  17.103  68.819  1.00  0.00    -0.255 C  
ENDBRANCH  18  20
ENDBRANCH  13  14
ENDBRANCH   4  12
BRANCH   9  23
HETATM   23  C   UNL     1      -8.662   5.134  67.125  1.00  0.00    -0.103 C  
BRANCH  23  24
HETATM   24  C   UNL     1      -9.707   4.093  66.714  1.00  0.00    -0.234 C  
BRANCH  24  25
HETATM   25  C   UNL     1     -10.099   4.202  65.241  1.00  0.00    -0.213 C  
HETATM   26  C   UNL     1      -9.249   3.315  64.364  1.00  0.00    -0.134 C  
HETATM   27  O   UNL     1      -8.350   2.584  64.748  1.00  0.00    -0.086 OA 
HETATM   28  O   UNL     1      -9.594   3.414  63.059  1.00  0.00    -0.095 OA 
ENDBRANCH  24  25
ENDBRANCH  23  24
ENDBRANCH   9  23
TORSDOF 6
ENDMDL
MODEL      113
REMARK 921   NORMALIZED FREE ENERGY PREDICTED BY IDOCK:   -4.58 KCAL/MOL
REMARK 922        TOTAL FREE ENERGY PREDICTED BY IDOCK:   -7.53 KCAL/MOL
REMARK 923 INTER-LIGAND FREE ENERGY PREDICTED BY IDOCK:   -6.54 KCAL/MOL
REMARK 924 INTRA-LIGAND FREE ENERGY PREDICTED BY IDOCK:   -0.98 KCAL/MOL
REMARK 927      BINDING AFFINITY PREDICTED BY RF-SCORE:    0.00 PKD
ROOT
HETATM    1  C   UNL     1     -11.775  11.108  68.132  1.00  0.00    -0.304 C  
HETATM    2  C   UNL     1     -10.833  10.899  66.958  1.00  0.00    -0.323 C  
HETATM    3  C   UNL     1      -9.440  10.776  67.578  1.00  0.00    -0.154 C  
HETATM    4  C   UNL     1      -9.651  10.329  69.040  1.00  0.00    -0.210 C  
HETATM    5  O   UNL     1      -8.785  12.045  67.576  1.00  0.00    -0.153 OA 
HETATM    6  H   UNL     1      -7.920  11.968  67.961  1.00  0.00     0.000 HD 
HETATM    7  C   UNL     1     -11.181  10.266  69.258  1.00  0.00    -0.281 C  
HETATM    8  C   UNL     1     -11.795  12.534  68.670  1.00  0.00    -0.340 C  
HETATM    9  C   UNL     1     -12.437  13.296  70.983  1.00  0.00    -0.422 C  
HETATM   10  C   UNL     1     -11.671  10.928  70.550  1.00  0.00    -0.441 C  
HETATM   11  C   UNL     1     -11.990  12.346  70.148  1.00  0.00    -0.376 C  
ENDROOT
BRANCH   4  12
HETATM   12  C   UNL     1      -9.035   8.978  69.317  1.00  0.00    -0.144 C  
HETATM   13  C   UNL     1      -9.424   7.868  68.671  1.00  0.00    -0.149 C  
BRANCH  13  14
HETATM   14  C   UNL     1      -8.735   6.542  68.775  1.00  0.00    -0.123 C  
HETATM   15  O   UNL     1      -7.877   6.590  69.908  1.00  0.00    -0.109 OA 
HETATM   16  C   UNL     1      -9.731   5.363  68.915  1.00  0.00    -0.205 C  
HETATM   17  H   UNL     1      -7.440   5.749  69.974  1.00  0.00     0.000 HD 
HETATM   18  C   UNL     1     -10.649   5.227  67.683  1.00  0.00    -0.126 C  
HETATM   19  C   UNL     1     -10.581   5.453  70.190  1.00  0.00    -0.344 C  
BRANCH  18  20
HETATM   20  C   UNL     1      -9.822   4.951  66.438  1.00  0.00    -0.226 C  
HETATM   21  C   UNL     1      -9.112   4.714  65.370  1.00  0.00    -0.149 C  
HETATM   22  C   UNL     1      -8.285   4.439  64.125  1.00  0.00    -0.102 C  
ENDBRANCH  18  20
ENDBRANCH  13  14
ENDBRANCH   4  12
BRANCH   9  23
HETATM   23  C   UNL     1     -12.789  14.695  70.552  1.00  0.00    -0.371 C  
BRANCH  23  24
HETATM   24  C   UNL     1     -11.557  15.520  70.172  1.00  0.00    -0.355 C  
BRANCH  24  25
HETATM   25  C   UNL     1     -11.679  16.157  68.789  1.00  0.00    -0.231 C  
HETATM   26  C   UNL     1     -10.392  16.814  68.354  1.00  0.00    -0.319 C  
HETATM   27  O   UNL     1      -9.357  16.851  69.000  1.00  0.00    -0.255 OA 
HETATM   28  O   UNL     1     -10.502  17.380  67.129  1.00  0.00    -0.332 OA 
ENDBRANCH  24  25
ENDBRANCH  23  24
ENDBRANCH   9  23
TORSDOF 6
ENDMDL
MODEL      114
REMARK 921   NORMALIZED FREE ENERGY PREDICTED BY IDOCK:   -4.57 KCAL/MOL
REMARK 922        TOTAL FREE ENERGY PREDICTED BY IDOCK:   -7.52 KCAL/MOL
REMARK 923 INTER-LIGAND FREE ENERGY PREDICTED BY IDOCK:   -6.30 KCAL/MOL
REMARK 924 INTRA-LIGAND FREE ENERGY PREDICTED BY IDOCK:   -1.22 KCAL/MOL
REMARK 927      BINDING AFFINITY PREDICTED BY RF-SCORE:    0.00 PKD
ROOT
HETATM    1  C   UNL     1     -10.211  12.411  68.056  1.00  0.00    -0.219 C  
HETATM    2  C   UNL     1     -10.037  12.271  66.553  1.00  0.00    -0.232 C  
HETATM    3  C   UNL     1     -11.110  13.172  65.938  1.00  0.00    -0.278 C  
HETATM    4  C   UNL     1     -11.464  14.223  67.012  1.00  0.00    -0.377 C  
HETATM    5  O   UNL     1     -12.280  12.411  65.637  1.00  0.00    -0.599 OA 
HETATM    6  H   UNL     1     -12.946  12.971  65.256  1.00  0.00     0.000 HD 
HETATM    7  C   UNL     1     -10.628  13.865  68.263  1.00  0.00    -0.263 C  
HETATM    8  C   UNL     1     -11.357  11.585  68.631  1.00  0.00    -0.330 C  
HETATM    9  C   UNL     1     -12.639  12.004  70.758  1.00  0.00    -0.312 C  
HETATM   10  C   UNL     1     -11.412  13.871  69.580  1.00  0.00    -0.332 C  
HETATM   11  C   UNL     1     -11.888  12.450  69.739  1.00  0.00    -0.387 C  
ENDROOT
BRANCH   4  12
HETATM   12  C   UNL     1     -11.141  15.628  66.560  1.00  0.00    -0.135 C  
HETATM   13  C   UNL     1     -10.489  16.500  67.345  1.00  0.00    -0.310 C  
BRANCH  13  14
HETATM   14  C   UNL     1      -9.989  17.838  66.893  1.00  0.00    -0.332 C  
HETATM   15  O   UNL     1     -11.108  18.580  66.423  1.00  0.00     0.067 OA 
HETATM   16  C   UNL     1      -9.275  18.619  68.024  1.00  0.00    -0.329 C  
HETATM   17  H   UNL     1     -10.791  19.428  66.136  1.00  0.00     0.000 HD 
HETATM   18  C   UNL     1      -8.016  17.887  68.532  1.00  0.00    -0.302 C  
HETATM   19  C   UNL     1     -10.203  18.938  69.204  1.00  0.00    -0.100 C  
BRANCH  18  20
HETATM   20  C   UNL     1      -7.006  17.733  67.406  1.00  0.00    -0.197 C  
HETATM   21  C   UNL     1      -6.140  17.602  66.440  1.00  0.00    -0.250 C  
HETATM   22  C   UNL     1      -5.130  17.450  65.314  1.00  0.00     0.614 C  
ENDBRANCH  18  20
ENDBRANCH  13  14
ENDBRANCH   4  12
BRANCH   9  23
HETATM   23  C   UNL     1     -13.069  10.571  70.920  1.00  0.00    -0.390 C  
BRANCH  23  24
HETATM   24  C   UNL     1     -12.277   9.839  72.008  1.00  0.00    -0.271 C  
BRANCH  24  25
HETATM   25  C   UNL     1     -11.874   8.426  71.591  1.00  0.00    -0.357 C  
HETATM   26  C   UNL     1     -10.437   8.361  71.133  1.00  0.00    -0.212 C  
HETATM   27  O   UNL     1      -9.661   9.301  71.088  1.00  0.00    -0.273 OA 
HETATM   28  O   UNL     1     -10.082   7.108  70.761  1.00  0.00    -0.190 OA 
ENDBRANCH  24  25
ENDBRANCH  23  24
ENDBRANCH   9  23
TORSDOF 6
ENDMDL
MODEL      115
REMARK 921   NORMALIZED FREE ENERGY PREDICTED BY IDOCK:   -4.55 KCAL/MOL
REMARK 922        TOTAL FREE ENERGY PREDICTED BY IDOCK:   -7.49 KCAL/MOL
REMARK 923 INTER-LIGAND FREE ENERGY PREDICTED BY IDOCK:   -6.12 KCAL/MOL
REMARK 924 INTRA-LIGAND FREE ENERGY PREDICTED BY IDOCK:   -1.37 KCAL/MOL
REMARK 927      BINDING AFFINITY PREDICTED BY RF-SCORE:    0.00 PKD
ROOT
HETATM    1  C   UNL     1      -9.261   7.200  66.721  1.00  0.00    -0.188 C  
HETATM    2  C   UNL     1     -10.696   7.700  66.764  1.00  0.00    -0.143 C  
HETATM    3  C   UNL     1     -10.622   9.076  67.428  1.00  0.00    -0.239 C  
HETATM    4  C   UNL     1      -9.180   9.586  67.217  1.00  0.00    -0.154 C  
HETATM    5  O   UNL     1     -10.867   8.961  68.830  1.00  0.00    -0.399 OA 
HETATM    6  H   UNL     1     -10.821   9.817  69.242  1.00  0.00     0.000 HD 
HETATM    7  C   UNL     1      -8.422   8.453  66.485  1.00  0.00    -0.116 C  
HETATM    8  C   UNL     1      -8.760   6.630  68.043  1.00  0.00    -0.117 C  
HETATM    9  C   UNL     1      -6.374   6.445  68.832  1.00  0.00    -0.038 C  
HETATM   10  C   UNL     1      -7.044   8.125  67.068  1.00  0.00    -0.079 C  
HETATM   11  C   UNL     1      -7.311   7.027  68.066  1.00  0.00    -0.097 C  
ENDROOT
BRANCH   4  12
HETATM   12  C   UNL     1      -9.138  10.851  66.393  1.00  0.00    -0.188 C  
HETATM   13  C   UNL     1     -10.154  11.222  65.598  1.00  0.00    -0.295 C  
BRANCH  13  14
HETATM   14  C   UNL     1     -10.245  12.542  64.898  1.00  0.00    -0.278 C  
HETATM   15  O   UNL     1      -9.511  12.437  63.683  1.00  0.00    -0.655 OA 
HETATM   16  C   UNL     1     -11.706  12.959  64.598  1.00  0.00    -0.407 C  
HETATM   17  H   UNL     1      -9.569  13.274  63.239  1.00  0.00     0.000 HD 
HETATM   18  C   UNL     1     -12.533  13.147  65.887  1.00  0.00    -0.386 C  
HETATM   19  C   UNL     1     -12.422  11.979  63.658  1.00  0.00    -0.637 C  
BRANCH  18  20
HETATM   20  C   UNL     1     -11.933  14.252  66.741  1.00  0.00    -0.462 C  
HETATM   21  C   UNL     1     -11.419  15.200  67.474  1.00  0.00    -0.306 C  
HETATM   22  C   UNL     1     -10.819  16.304  68.329  1.00  0.00    -0.340 C  
ENDBRANCH  18  20
ENDBRANCH  13  14
ENDBRANCH   4  12
BRANCH   9  23
HETATM   23  C   UNL     1      -6.656   5.321  69.793  1.00  0.00    -0.042 C  
BRANCH  23  24
HETATM   24  C   UNL     1      -6.829   5.809  71.234  1.00  0.00    -0.062 C  
BRANCH  24  25
HETATM   25  C   UNL     1      -8.289   6.076  71.594  1.00  0.00    -0.127 C  
HETATM   26  C   UNL     1      -8.603   7.552  71.620  1.00  0.00    -0.115 C  
HETATM   27  O   UNL     1      -7.813   8.452  71.387  1.00  0.00    -0.095 OA 
HETATM   28  O   UNL     1      -9.896   7.788  71.943  1.00  0.00    -0.162 OA 
ENDBRANCH  24  25
ENDBRANCH  23  24
ENDBRANCH   9  23
TORSDOF 6
ENDMDL
MODEL      116
REMARK 921   NORMALIZED FREE ENERGY PREDICTED BY IDOCK:   -4.55 KCAL/MOL
REMARK 922        TOTAL FREE ENERGY PREDICTED BY IDOCK:   -7.49 KCAL/MOL
REMARK 923 INTER-LIGAND FREE ENERGY PREDICTED BY IDOCK:   -6.13 KCAL/MOL
REMARK 924 INTRA-LIGAND FREE ENERGY PREDICTED BY IDOCK:   -1.36 KCAL/MOL
REMARK 927      BINDING AFFINITY PREDICTED BY RF-SCORE:    0.00 PKD
ROOT
HETATM    1  C   UNL     1      -7.862  10.610  66.694  1.00  0.00    -0.135 C  
HETATM    2  C   UNL     1      -7.383  11.288  67.968  1.00  0.00    -0.092 C  
HETATM    3  C   UNL     1      -8.565  11.204  68.936  1.00  0.00    -0.087 C  
HETATM    4  C   UNL     1      -9.436  10.021  68.461  1.00  0.00    -0.150 C  
HETATM    5  O   UNL     1      -9.342  12.400  68.870  1.00  0.00    -0.394 OA 
HETATM    6  H   UNL     1     -10.076  12.348  69.471  1.00  0.00     0.000 HD 
HETATM    7  C   UNL     1      -8.768   9.479  67.175  1.00  0.00    -0.137 C  
HETATM    8  C   UNL     1      -8.752  11.486  65.819  1.00  0.00    -0.007 C  
HETATM    9  C   UNL     1     -10.461  10.737  64.127  1.00  0.00    -0.309 C  
HETATM   10  C   UNL     1      -9.733   9.221  66.013  1.00  0.00    -0.359 C  
HETATM   11  C   UNL     1      -9.730  10.510  65.230  1.00  0.00    -0.328 C  
ENDROOT
BRANCH   4  12
HETATM   12  C   UNL     1      -9.522   8.926  69.497  1.00  0.00    -0.159 C  
HETATM   13  C   UNL     1     -10.171   7.773  69.269  1.00  0.00    -0.211 C  
BRANCH  13  14
HETATM   14  C   UNL     1     -10.142   6.588  70.185  1.00  0.00    -0.174 C  
HETATM   15  O   UNL     1     -11.485   6.297  70.555  1.00  0.00    -0.357 OA 
HETATM   16  C   UNL     1      -9.493   5.344  69.528  1.00  0.00    -0.182 C  
HETATM   17  H   UNL     1     -11.466   5.546  71.135  1.00  0.00     0.000 HD 
HETATM   18  C   UNL     1      -8.015   5.585  69.160  1.00  0.00    -0.095 C  
HETATM   19  C   UNL     1     -10.264   4.854  68.294  1.00  0.00    -0.102 C  
BRANCH  18  20
HETATM   20  C   UNL     1      -7.204   5.889  70.410  1.00  0.00    -0.072 C  
HETATM   21  C   UNL     1      -6.508   6.149  71.481  1.00  0.00    -0.050 C  
HETATM   22  C   UNL     1      -5.696   6.453  72.730  1.00  0.00    -0.038 C  
ENDBRANCH  18  20
ENDBRANCH  13  14
ENDBRANCH   4  12
BRANCH   9  23
HETATM   23  C   UNL     1     -10.412  12.017  63.337  1.00  0.00    -0.474 C  
BRANCH  23  24
HETATM   24  C   UNL     1     -11.749  12.764  63.344  1.00  0.00    -0.556 C  
BRANCH  24  25
HETATM   25  C   UNL     1     -12.358  12.865  64.741  1.00  0.00    -0.516 C  
HETATM   26  C   UNL     1     -11.787  14.023  65.523  1.00  0.00    -0.365 C  
HETATM   27  O   UNL     1     -10.942  14.806  65.122  1.00  0.00    -0.344 OA 
HETATM   28  O   UNL     1     -12.326  14.110  66.762  1.00  0.00    -0.438 OA 
ENDBRANCH  24  25
ENDBRANCH  23  24
ENDBRANCH   9  23
TORSDOF 6
ENDMDL
MODEL      117
REMARK 921   NORMALIZED FREE ENERGY PREDICTED BY IDOCK:   -4.54 KCAL/MOL
REMARK 922        TOTAL FREE ENERGY PREDICTED BY IDOCK:   -7.48 KCAL/MOL
REMARK 923 INTER-LIGAND FREE ENERGY PREDICTED BY IDOCK:   -6.65 KCAL/MOL
REMARK 924 INTRA-LIGAND FREE ENERGY PREDICTED BY IDOCK:   -0.83 KCAL/MOL
REMARK 927      BINDING AFFINITY PREDICTED BY RF-SCORE:    0.00 PKD
ROOT
HETATM    1  C   UNL     1      -8.648  11.102  67.743  1.00  0.00    -0.131 C  
HETATM    2  C   UNL     1      -7.168  10.916  68.040  1.00  0.00    -0.086 C  
HETATM    3  C   UNL     1      -7.097  10.572  69.528  1.00  0.00    -0.124 C  
HETATM    4  C   UNL     1      -8.478   9.998  69.910  1.00  0.00    -0.171 C  
HETATM    5  O   UNL     1      -6.863  11.753  70.296  1.00  0.00    -0.447 OA 
HETATM    6  H   UNL     1      -6.819  11.539  71.221  1.00  0.00     0.000 HD 
HETATM    7  C   UNL     1      -9.351  10.083  68.636  1.00  0.00    -0.156 C  
HETATM    8  C   UNL     1      -9.204  12.456  68.170  1.00  0.00    -0.205 C  
HETATM    9  C   UNL     1     -11.594  13.033  68.716  1.00  0.00    -0.350 C  
HETATM   10  C   UNL     1     -10.756  10.654  68.860  1.00  0.00    -0.254 C  
HETATM   11  C   UNL     1     -10.603  12.133  68.611  1.00  0.00    -0.248 C  
ENDROOT
BRANCH   4  12
HETATM   12  C   UNL     1      -8.389   8.565  70.379  1.00  0.00    -0.124 C  
HETATM   13  C   UNL     1      -8.669   7.529  69.573  1.00  0.00    -0.137 C  
BRANCH  13  14
HETATM   14  C   UNL     1      -8.431   6.093  69.924  1.00  0.00    -0.129 C  
HETATM   15  O   UNL     1      -7.758   6.062  71.178  1.00  0.00    -0.104 OA 
HETATM   16  C   UNL     1      -9.744   5.276  70.009  1.00  0.00    -0.263 C  
HETATM   17  H   UNL     1      -7.608   5.151  71.401  1.00  0.00     0.000 HD 
HETATM   18  C   UNL     1     -10.486   5.225  68.657  1.00  0.00    -0.148 C  
HETATM   19  C   UNL     1     -10.691   5.784  71.105  1.00  0.00    -0.327 C  
BRANCH  18  20
HETATM   20  C   UNL     1      -9.621   4.549  67.607  1.00  0.00    -0.207 C  
HETATM   21  C   UNL     1      -8.878   3.968  66.706  1.00  0.00    -0.125 C  
HETATM   22  C   UNL     1      -8.012   3.291  65.656  1.00  0.00    -0.086 C  
ENDBRANCH  18  20
ENDBRANCH  13  14
ENDBRANCH   4  12
BRANCH   9  23
HETATM   23  C   UNL     1     -11.430  14.500  68.422  1.00  0.00    -0.328 C  
BRANCH  23  24
HETATM   24  C   UNL     1     -10.923  14.762  67.001  1.00  0.00    -0.324 C  
BRANCH  24  25
HETATM   25  C   UNL     1     -11.904  14.289  65.930  1.00  0.00    -0.386 C  
HETATM   26  C   UNL     1     -11.776  15.087  64.655  1.00  0.00    -0.382 C  
HETATM   27  O   UNL     1     -10.994  16.004  64.464  1.00  0.00    -0.592 OA 
HETATM   28  O   UNL     1     -12.648  14.669  63.708  1.00  0.00    -0.820 OA 
ENDBRANCH  24  25
ENDBRANCH  23  24
ENDBRANCH   9  23
TORSDOF 6
ENDMDL
MODEL      118
REMARK 921   NORMALIZED FREE ENERGY PREDICTED BY IDOCK:   -4.53 KCAL/MOL
REMARK 922        TOTAL FREE ENERGY PREDICTED BY IDOCK:   -7.47 KCAL/MOL
REMARK 923 INTER-LIGAND FREE ENERGY PREDICTED BY IDOCK:   -6.12 KCAL/MOL
REMARK 924 INTRA-LIGAND FREE ENERGY PREDICTED BY IDOCK:   -1.35 KCAL/MOL
REMARK 927      BINDING AFFINITY PREDICTED BY RF-SCORE:    0.00 PKD
ROOT
HETATM    1  C   UNL     1      -7.876  11.102  66.253  1.00  0.00    -0.109 C  
HETATM    2  C   UNL     1      -7.461  11.532  67.651  1.00  0.00    -0.110 C  
HETATM    3  C   UNL     1      -8.333  10.709  68.600  1.00  0.00    -0.137 C  
HETATM    4  C   UNL     1      -8.776   9.458  67.813  1.00  0.00    -0.116 C  
HETATM    5  O   UNL     1      -9.495  11.452  68.971  1.00  0.00    -0.385 OA 
HETATM    6  H   UNL     1     -10.037  10.940  69.561  1.00  0.00     0.000 HD 
HETATM    7  C   UNL     1      -8.198   9.615  66.387  1.00  0.00    -0.119 C  
HETATM    8  C   UNL     1      -9.168  11.745  65.761  1.00  0.00    -0.148 C  
HETATM    9  C   UNL     1     -10.754  10.866  64.012  1.00  0.00    -0.208 C  
HETATM   10  C   UNL     1      -9.191   9.321  65.257  1.00  0.00    -0.275 C  
HETATM   11  C   UNL     1      -9.806  10.660  64.940  1.00  0.00    -0.363 C  
ENDROOT
BRANCH   4  12
HETATM   12  C   UNL     1      -8.263   8.181  68.438  1.00  0.00    -0.129 C  
HETATM   13  C   UNL     1      -8.943   7.529  69.394  1.00  0.00    -0.139 C  
BRANCH  13  14
HETATM   14  C   UNL     1      -8.575   6.177  69.923  1.00  0.00    -0.132 C  
HETATM   15  O   UNL     1      -7.820   6.371  71.113  1.00  0.00    -0.109 OA 
HETATM   16  C   UNL     1      -9.814   5.297  70.221  1.00  0.00    -0.284 C  
HETATM   17  H   UNL     1      -7.587   5.514  71.448  1.00  0.00     0.000 HD 
HETATM   18  C   UNL     1     -10.639   5.004  68.950  1.00  0.00     0.070 C  
HETATM   19  C   UNL     1     -10.722   5.896  71.304  1.00  0.00    -0.325 C  
BRANCH  18  20
HETATM   20  C   UNL     1      -9.797   4.240  67.941  1.00  0.00    -0.120 C  
HETATM   21  C   UNL     1      -9.076   3.585  67.074  1.00  0.00    -0.188 C  
HETATM   22  C   UNL     1      -8.236   2.822  66.064  1.00  0.00    -0.086 C  
ENDBRANCH  18  20
ENDBRANCH  13  14
ENDBRANCH   4  12
BRANCH   9  23
HETATM   23  C   UNL     1     -11.325  12.219  63.682  1.00  0.00    -0.547 C  
BRANCH  23  24
HETATM   24  C   UNL     1     -12.535  12.575  64.549  1.00  0.00    -0.539 C  
BRANCH  24  25
HETATM   25  C   UNL     1     -12.372  13.914  65.266  1.00  0.00    -0.485 C  
HETATM   26  C   UNL     1     -12.172  13.738  66.752  1.00  0.00    -0.397 C  
HETATM   27  O   UNL     1     -12.138  12.673  67.345  1.00  0.00    -0.432 OA 
HETATM   28  O   UNL     1     -12.031  14.926  67.386  1.00  0.00    -0.309 OA 
ENDBRANCH  24  25
ENDBRANCH  23  24
ENDBRANCH   9  23
TORSDOF 6
ENDMDL
MODEL      119
REMARK 921   NORMALIZED FREE ENERGY PREDICTED BY IDOCK:   -4.53 KCAL/MOL
REMARK 922        TOTAL FREE ENERGY PREDICTED BY IDOCK:   -7.47 KCAL/MOL
REMARK 923 INTER-LIGAND FREE ENERGY PREDICTED BY IDOCK:   -6.23 KCAL/MOL
REMARK 924 INTRA-LIGAND FREE ENERGY PREDICTED BY IDOCK:   -1.24 KCAL/MOL
REMARK 927      BINDING AFFINITY PREDICTED BY RF-SCORE:    0.00 PKD
ROOT
HETATM    1  C   UNL     1      -8.086   7.453  68.642  1.00  0.00    -0.125 C  
HETATM    2  C   UNL     1      -8.890   7.058  67.414  1.00  0.00    -0.119 C  
HETATM    3  C   UNL     1      -9.923   8.172  67.235  1.00  0.00    -0.218 C  
HETATM    4  C   UNL     1      -9.349   9.418  67.943  1.00  0.00    -0.142 C  
HETATM    5  O   UNL     1     -11.152   7.811  67.867  1.00  0.00    -0.472 OA 
HETATM    6  H   UNL     1     -11.793   8.503  67.757  1.00  0.00     0.000 HD 
HETATM    7  C   UNL     1      -8.010   8.977  68.580  1.00  0.00    -0.102 C  
HETATM    8  C   UNL     1      -8.775   7.143  69.965  1.00  0.00    -0.141 C  
HETATM    9  C   UNL     1      -8.396   8.252  72.195  1.00  0.00    -0.232 C  
HETATM   10  C   UNL     1      -7.815   9.424  70.033  1.00  0.00    -0.135 C  
HETATM   11  C   UNL     1      -8.352   8.278  70.853  1.00  0.00    -0.139 C  
ENDROOT
BRANCH   4  12
HETATM   12  C   UNL     1      -9.111  10.559  66.983  1.00  0.00    -0.156 C  
HETATM   13  C   UNL     1     -10.067  11.010  66.156  1.00  0.00    -0.286 C  
BRANCH  13  14
HETATM   14  C   UNL     1      -9.947  12.242  65.313  1.00  0.00    -0.230 C  
HETATM   15  O   UNL     1     -10.266  11.881  63.974  1.00  0.00    -0.306 OA 
HETATM   16  C   UNL     1     -10.880  13.383  65.790  1.00  0.00    -0.283 C  
HETATM   17  H   UNL     1     -10.190  12.663  63.440  1.00  0.00     0.000 HD 
HETATM   18  C   UNL     1     -10.538  13.856  67.218  1.00  0.00    -0.276 C  
HETATM   19  C   UNL     1     -12.367  13.008  65.707  1.00  0.00    -0.477 C  
BRANCH  18  20
HETATM   20  C   UNL     1      -9.122  14.406  67.265  1.00  0.00    -0.221 C  
HETATM   21  C   UNL     1      -7.906  14.876  67.305  1.00  0.00    -0.235 C  
HETATM   22  C   UNL     1      -6.489  15.424  67.352  1.00  0.00    -0.115 C  
ENDBRANCH  18  20
ENDBRANCH  13  14
ENDBRANCH   4  12
BRANCH   9  23
HETATM   23  C   UNL     1      -8.897   7.080  72.995  1.00  0.00    -0.148 C  
BRANCH  23  24
HETATM   24  C   UNL     1     -10.222   7.376  73.705  1.00  0.00    -0.380 C  
BRANCH  24  25
HETATM   25  C   UNL     1     -11.286   7.926  72.758  1.00  0.00    -0.453 C  
HETATM   26  C   UNL     1     -11.975   6.828  71.985  1.00  0.00    -0.317 C  
HETATM   27  O   UNL     1     -11.740   5.634  72.079  1.00  0.00    -0.174 OA 
HETATM   28  O   UNL     1     -12.917   7.316  71.143  1.00  0.00    -0.346 OA 
ENDBRANCH  24  25
ENDBRANCH  23  24
ENDBRANCH   9  23
TORSDOF 6
ENDMDL
MODEL      120
REMARK 921   NORMALIZED FREE ENERGY PREDICTED BY IDOCK:   -4.52 KCAL/MOL
REMARK 922        TOTAL FREE ENERGY PREDICTED BY IDOCK:   -7.45 KCAL/MOL
REMARK 923 INTER-LIGAND FREE ENERGY PREDICTED BY IDOCK:   -6.24 KCAL/MOL
REMARK 924 INTRA-LIGAND FREE ENERGY PREDICTED BY IDOCK:   -1.21 KCAL/MOL
REMARK 927      BINDING AFFINITY PREDICTED BY RF-SCORE:    0.00 PKD
ROOT
HETATM    1  C   UNL     1      -9.768  16.375  67.205  1.00  0.00    -0.239 C  
HETATM    2  C   UNL     1     -11.201  16.307  66.702  1.00  0.00     0.246 C  
HETATM    3  C   UNL     1     -11.158  15.368  65.495  1.00  0.00    -0.298 C  
HETATM    4  C   UNL     1      -9.907  14.483  65.675  1.00  0.00    -0.337 C  
HETATM    5  O   UNL     1     -11.019  16.121  64.290  1.00  0.00    -1.016 OA 
HETATM    6  H   UNL     1     -10.992  15.537  63.540  1.00  0.00     0.000 HD 
HETATM    7  C   UNL     1      -9.207  14.977  66.963  1.00  0.00    -0.246 C  
HETATM    8  C   UNL     1      -8.869  17.309  66.403  1.00  0.00    -0.278 C  
HETATM    9  C   UNL     1      -6.360  17.222  66.189  1.00  0.00    -0.140 C  
HETATM   10  C   UNL     1      -7.692  15.173  66.832  1.00  0.00    -0.051 C  
HETATM   11  C   UNL     1      -7.535  16.618  66.433  1.00  0.00    -0.260 C  
ENDROOT
BRANCH   4  12
HETATM   12  C   UNL     1     -10.259  13.020  65.809  1.00  0.00    -0.297 C  
HETATM   13  C   UNL     1      -9.323  12.065  65.919  1.00  0.00    -0.164 C  
BRANCH  13  14
HETATM   14  C   UNL     1      -9.610  10.628  66.229  1.00  0.00    -0.185 C  
HETATM   15  O   UNL     1      -9.774   9.945  64.992  1.00  0.00    -0.296 OA 
HETATM   16  C   UNL     1      -8.483   9.961  67.056  1.00  0.00    -0.121 C  
HETATM   17  H   UNL     1      -9.955   9.034  65.188  1.00  0.00     0.000 HD 
HETATM   18  C   UNL     1      -8.302  10.625  68.436  1.00  0.00    -0.127 C  
HETATM   19  C   UNL     1      -7.140   9.930  66.313  1.00  0.00    -0.101 C  
BRANCH  18  20
HETATM   20  C   UNL     1      -9.577  10.494  69.254  1.00  0.00    -0.199 C  
HETATM   21  C   UNL     1     -10.670  10.381  69.955  1.00  0.00    -0.321 C  
HETATM   22  C   UNL     1     -11.945  10.248  70.773  1.00  0.00    -0.456 C  
ENDBRANCH  18  20
ENDBRANCH  13  14
ENDBRANCH   4  12
BRANCH   9  23
HETATM   23  C   UNL     1      -6.223  18.677  65.833  1.00  0.00    -0.251 C  
BRANCH  23  24
HETATM   24  C   UNL     1      -6.387  19.598  67.045  1.00  0.00    -0.199 C  
BRANCH  24  25
HETATM   25  C   UNL     1      -5.600  19.115  68.261  1.00  0.00    -0.204 C  
HETATM   26  C   UNL     1      -6.457  19.055  69.502  1.00  0.00    -0.266 C  
HETATM   27  O   UNL     1      -7.640  19.347  69.565  1.00  0.00    -0.206 OA 
HETATM   28  O   UNL     1      -5.757  18.631  70.580  1.00  0.00    -0.229 OA 
ENDBRANCH  24  25
ENDBRANCH  23  24
ENDBRANCH   9  23
TORSDOF 6
ENDMDL
MODEL      121
REMARK 921   NORMALIZED FREE ENERGY PREDICTED BY IDOCK:   -4.51 KCAL/MOL
REMARK 922        TOTAL FREE ENERGY PREDICTED BY IDOCK:   -7.44 KCAL/MOL
REMARK 923 INTER-LIGAND FREE ENERGY PREDICTED BY IDOCK:   -6.59 KCAL/MOL
REMARK 924 INTRA-LIGAND FREE ENERGY PREDICTED BY IDOCK:   -0.85 KCAL/MOL
REMARK 927      BINDING AFFINITY PREDICTED BY RF-SCORE:    0.00 PKD
ROOT
HETATM    1  C   UNL     1      -8.011  11.192  66.331  1.00  0.00    -0.147 C  
HETATM    2  C   UNL     1      -7.474  11.743  67.642  1.00  0.00    -0.123 C  
HETATM    3  C   UNL     1      -8.382  11.158  68.725  1.00  0.00    -0.136 C  
HETATM    4  C   UNL     1      -9.006   9.879  68.127  1.00  0.00    -0.118 C  
HETATM    5  O   UNL     1      -9.430  12.076  69.039  1.00  0.00    -0.406 OA 
HETATM    6  H   UNL     1      -9.994  11.713  69.711  1.00  0.00     0.000 HD 
HETATM    7  C   UNL     1      -8.492   9.784  66.672  1.00  0.00    -0.126 C  
HETATM    8  C   UNL     1      -9.246  11.918  65.808  1.00  0.00    -0.110 C  
HETATM    9  C   UNL     1     -11.014  11.022  64.253  1.00  0.00    -0.148 C  
HETATM   10  C   UNL     1      -9.572   9.470  65.631  1.00  0.00    -0.346 C  
HETATM   11  C   UNL     1     -10.046  10.823  65.163  1.00  0.00    -0.363 C  
ENDROOT
BRANCH   4  12
HETATM   12  C   UNL     1      -8.610   8.640  68.896  1.00  0.00    -0.130 C  
HETATM   13  C   UNL     1      -7.677   8.664  69.860  1.00  0.00    -0.084 C  
BRANCH  13  14
HETATM   14  C   UNL     1      -7.369   7.515  70.770  1.00  0.00    -0.068 C  
HETATM   15  O   UNL     1      -6.129   6.955  70.352  1.00  0.00    -0.024 OA 
HETATM   16  C   UNL     1      -7.283   7.939  72.257  1.00  0.00    -0.096 C  
HETATM   17  H   UNL     1      -5.934   6.227  70.930  1.00  0.00     0.000 HD 
HETATM   18  C   UNL     1      -8.622   8.499  72.781  1.00  0.00    -0.168 C  
HETATM   19  C   UNL     1      -6.157   8.948  72.523  1.00  0.00    -0.035 C  
BRANCH  18  20
HETATM   20  C   UNL     1      -9.706   7.438  72.694  1.00  0.00    -0.212 C  
HETATM   21  C   UNL     1     -10.635   6.526  72.621  1.00  0.00    -0.248 C  
HETATM   22  C   UNL     1     -11.719   5.463  72.536  1.00  0.00    -0.176 C  
ENDBRANCH  18  20
ENDBRANCH  13  14
ENDBRANCH   4  12
BRANCH   9  23
HETATM   23  C   UNL     1     -11.443  12.381  63.769  1.00  0.00    -0.544 C  
BRANCH  23  24
HETATM   24  C   UNL     1     -11.961  13.272  64.901  1.00  0.00    -0.417 C  
BRANCH  24  25
HETATM   25  C   UNL     1     -12.251  14.699  64.441  1.00  0.00    -0.473 C  
HETATM   26  C   UNL     1     -11.083  15.622  64.688  1.00  0.00    -0.373 C  
HETATM   27  O   UNL     1     -10.018  15.303  65.191  1.00  0.00    -0.318 OA 
HETATM   28  O   UNL     1     -11.343  16.887  64.283  1.00  0.00    -1.202 OA 
ENDBRANCH  24  25
ENDBRANCH  23  24
ENDBRANCH   9  23
TORSDOF 6
ENDMDL
MODEL      122
REMARK 921   NORMALIZED FREE ENERGY PREDICTED BY IDOCK:   -4.51 KCAL/MOL
REMARK 922        TOTAL FREE ENERGY PREDICTED BY IDOCK:   -7.44 KCAL/MOL
REMARK 923 INTER-LIGAND FREE ENERGY PREDICTED BY IDOCK:   -6.47 KCAL/MOL
REMARK 924 INTRA-LIGAND FREE ENERGY PREDICTED BY IDOCK:   -0.97 KCAL/MOL
REMARK 927      BINDING AFFINITY PREDICTED BY RF-SCORE:    0.00 PKD
ROOT
HETATM    1  C   UNL     1      -7.413   7.825  67.144  1.00  0.00    -0.096 C  
HETATM    2  C   UNL     1      -8.225   7.491  65.903  1.00  0.00    -0.134 C  
HETATM    3  C   UNL     1      -9.444   8.412  65.960  1.00  0.00    -0.154 C  
HETATM    4  C   UNL     1      -9.042   9.613  66.843  1.00  0.00    -0.160 C  
HETATM    5  O   UNL     1     -10.543   7.739  66.575  1.00  0.00    -0.470 OA 
HETATM    6  H   UNL     1     -11.300   8.312  66.611  1.00  0.00     0.000 HD 
HETATM    7  C   UNL     1      -7.605   9.327  67.337  1.00  0.00    -0.088 C  
HETATM    8  C   UNL     1      -7.940   7.189  68.425  1.00  0.00    -0.124 C  
HETATM    9  C   UNL     1      -7.596   7.981  70.791  1.00  0.00    -0.077 C  
HETATM   10  C   UNL     1      -7.384   9.566  68.835  1.00  0.00    -0.073 C  
HETATM   11  C   UNL     1      -7.655   8.228  69.472  1.00  0.00    -0.095 C  
ENDROOT
BRANCH   4  12
HETATM   12  C   UNL     1      -9.074  10.916  66.079  1.00  0.00    -0.208 C  
HETATM   13  C   UNL     1     -10.032  11.197  65.181  1.00  0.00    -0.323 C  
BRANCH  13  14
HETATM   14  C   UNL     1     -10.216  12.531  64.526  1.00  0.00    -0.307 C  
HETATM   15  O   UNL     1      -9.520  12.502  63.285  1.00  0.00    -0.527 OA 
HETATM   16  C   UNL     1     -11.707  12.877  64.289  1.00  0.00    -0.445 C  
HETATM   17  H   UNL     1      -9.637  13.348  62.871  1.00  0.00     0.000 HD 
HETATM   18  C   UNL     1     -12.498  12.981  65.609  1.00  0.00    -0.452 C  
HETATM   19  C   UNL     1     -12.402  11.889  63.341  1.00  0.00    -0.577 C  
BRANCH  18  20
HETATM   20  C   UNL     1     -11.928  14.091  66.477  1.00  0.00    -0.470 C  
HETATM   21  C   UNL     1     -11.438  15.042  67.223  1.00  0.00    -0.312 C  
HETATM   22  C   UNL     1     -10.868  16.151  68.092  1.00  0.00    -0.329 C  
ENDBRANCH  18  20
ENDBRANCH  13  14
ENDBRANCH   4  12
BRANCH   9  23
HETATM   23  C   UNL     1      -7.829   6.626  71.403  1.00  0.00    -0.099 C  
BRANCH  23  24
HETATM   24  C   UNL     1      -9.110   6.572  72.241  1.00  0.00    -0.138 C  
BRANCH  24  25
HETATM   25  C   UNL     1      -9.749   5.185  72.249  1.00  0.00    -0.201 C  
HETATM   26  C   UNL     1     -10.628   4.976  73.457  1.00  0.00    -0.256 C  
HETATM   27  O   UNL     1     -10.830   5.792  74.342  1.00  0.00    -0.114 OA 
HETATM   28  O   UNL     1     -11.192   3.745  73.465  1.00  0.00    -0.243 OA 
ENDBRANCH  24  25
ENDBRANCH  23  24
ENDBRANCH   9  23
TORSDOF 6
ENDMDL
MODEL      123
REMARK 921   NORMALIZED FREE ENERGY PREDICTED BY IDOCK:   -4.50 KCAL/MOL
REMARK 922        TOTAL FREE ENERGY PREDICTED BY IDOCK:   -7.43 KCAL/MOL
REMARK 923 INTER-LIGAND FREE ENERGY PREDICTED BY IDOCK:   -6.39 KCAL/MOL
REMARK 924 INTRA-LIGAND FREE ENERGY PREDICTED BY IDOCK:   -1.04 KCAL/MOL
REMARK 927      BINDING AFFINITY PREDICTED BY RF-SCORE:    0.00 PKD
ROOT
HETATM    1  C   UNL     1      -8.239   8.978  68.221  1.00  0.00    -0.116 C  
HETATM    2  C   UNL     1      -7.877   9.403  66.807  1.00  0.00    -0.105 C  
HETATM    3  C   UNL     1      -8.934  10.436  66.414  1.00  0.00    -0.149 C  
HETATM    4  C   UNL     1      -9.493  11.011  67.733  1.00  0.00    -0.169 C  
HETATM    5  O   UNL     1      -9.998   9.807  65.701  1.00  0.00    -0.301 OA 
HETATM    6  H   UNL     1     -10.655  10.449  65.458  1.00  0.00     0.000 HD 
HETATM    7  C   UNL     1      -8.787  10.243  68.875  1.00  0.00    -0.157 C  
HETATM    8  C   UNL     1      -9.379   7.967  68.295  1.00  0.00    -0.143 C  
HETATM    9  C   UNL     1     -10.934   7.543  70.231  1.00  0.00    -0.264 C  
HETATM   10  C   UNL     1      -9.720   9.745  69.984  1.00  0.00    -0.292 C  
HETATM   11  C   UNL     1     -10.103   8.352  69.554  1.00  0.00    -0.200 C  
ENDROOT
BRANCH   4  12
HETATM   12  C   UNL     1      -9.226  12.492  67.867  1.00  0.00    -0.200 C  
HETATM   13  C   UNL     1     -10.012  13.299  68.596  1.00  0.00    -0.127 C  
BRANCH  13  14
HETATM   14  C   UNL     1      -9.702  14.730  68.907  1.00  0.00    -0.215 C  
HETATM   15  O   UNL     1      -8.414  15.017  68.376  1.00  0.00    -0.142 OA 
HETATM   16  C   UNL     1     -10.748  15.708  68.315  1.00  0.00    -0.283 C  
HETATM   17  H   UNL     1      -8.217  15.925  68.573  1.00  0.00     0.000 HD 
HETATM   18  C   UNL     1     -12.156  15.481  68.903  1.00  0.00    -0.219 C  
HETATM   19  C   UNL     1     -10.809  15.655  66.782  1.00  0.00    -0.277 C  
BRANCH  18  20
HETATM   20  C   UNL     1     -12.143  15.716  70.405  1.00  0.00    -0.425 C  
HETATM   21  C   UNL     1     -12.134  15.917  71.693  1.00  0.00    -0.554 C  
HETATM   22  C   UNL     1     -12.122  16.151  73.195  1.00  0.00    -0.621 C  
ENDBRANCH  18  20
ENDBRANCH  13  14
ENDBRANCH   4  12
BRANCH   9  23
HETATM   23  C   UNL     1     -11.270   6.139  69.805  1.00  0.00    -0.494 C  
BRANCH  23  24
HETATM   24  C   UNL     1     -10.320   5.099  70.408  1.00  0.00    -0.326 C  
BRANCH  24  25
HETATM   25  C   UNL     1      -9.586   4.286  69.343  1.00  0.00    -0.267 C  
HETATM   26  C   UNL     1      -9.325   2.870  69.795  1.00  0.00    -0.137 C  
HETATM   27  O   UNL     1      -9.647   2.395  70.871  1.00  0.00    -0.145 OA 
HETATM   28  O   UNL     1      -8.671   2.151  68.852  1.00  0.00    -0.067 OA 
ENDBRANCH  24  25
ENDBRANCH  23  24
ENDBRANCH   9  23
TORSDOF 6
ENDMDL
MODEL      124
REMARK 921   NORMALIZED FREE ENERGY PREDICTED BY IDOCK:   -4.44 KCAL/MOL
REMARK 922        TOTAL FREE ENERGY PREDICTED BY IDOCK:   -7.34 KCAL/MOL
REMARK 923 INTER-LIGAND FREE ENERGY PREDICTED BY IDOCK:   -6.39 KCAL/MOL
REMARK 924 INTRA-LIGAND FREE ENERGY PREDICTED BY IDOCK:   -0.95 KCAL/MOL
REMARK 927      BINDING AFFINITY PREDICTED BY RF-SCORE:    0.00 PKD
ROOT
HETATM    1  C   UNL     1      -9.554  11.180  65.301  1.00  0.00    -0.268 C  
HETATM    2  C   UNL     1     -10.240  12.058  64.266  1.00  0.00    -0.347 C  
HETATM    3  C   UNL     1     -11.369  12.761  65.022  1.00  0.00    -0.309 C  
HETATM    4  C   UNL     1     -10.967  12.755  66.513  1.00  0.00    -0.291 C  
HETATM    5  O   UNL     1     -12.590  12.035  64.873  1.00  0.00    -0.418 OA 
HETATM    6  H   UNL     1     -13.290  12.472  65.343  1.00  0.00     0.000 HD 
HETATM    7  C   UNL     1      -9.630  11.981  66.598  1.00  0.00    -0.225 C  
HETATM    8  C   UNL     1     -10.285   9.876  65.596  1.00  0.00    -0.229 C  
HETATM    9  C   UNL     1     -10.152   8.477  67.686  1.00  0.00    -0.271 C  
HETATM   10  C   UNL     1      -9.567  10.934  67.716  1.00  0.00    -0.176 C  
HETATM   11  C   UNL     1     -10.032   9.658  67.061  1.00  0.00    -0.263 C  
ENDROOT
BRANCH   4  12
HETATM   12  C   UNL     1     -10.790  14.151  67.060  1.00  0.00    -0.295 C  
HETATM   13  C   UNL     1     -11.561  14.637  68.046  1.00  0.00    -0.366 C  
BRANCH  13  14
HETATM   14  C   UNL     1     -11.321  15.939  68.746  1.00  0.00    -0.378 C  
HETATM   15  O   UNL     1     -12.578  16.413  69.217  1.00  0.00    -0.244 OA 
HETATM   16  C   UNL     1     -10.330  15.806  69.928  1.00  0.00    -0.313 C  
HETATM   17  H   UNL     1     -12.426  17.238  69.661  1.00  0.00     0.000 HD 
HETATM   18  C   UNL     1      -8.930  15.353  69.465  1.00  0.00    -0.229 C  
HETATM   19  C   UNL     1     -10.843  14.869  71.031  1.00  0.00     0.070 C  
BRANCH  18  20
HETATM   20  C   UNL     1      -8.334  16.375  68.512  1.00  0.00    -0.202 C  
HETATM   21  C   UNL     1      -7.822  17.252  67.694  1.00  0.00    -0.192 C  
HETATM   22  C   UNL     1      -7.226  18.274  66.739  1.00  0.00    -0.237 C  
ENDBRANCH  18  20
ENDBRANCH  13  14
ENDBRANCH   4  12
BRANCH   9  23
HETATM   23  C   UNL     1     -10.578   7.205  67.003  1.00  0.00    -0.413 C  
BRANCH  23  24
HETATM   24  C   UNL     1      -9.389   6.363  66.532  1.00  0.00    -0.181 C  
BRANCH  24  25
HETATM   25  C   UNL     1      -9.663   4.863  66.608  1.00  0.00    -0.197 C  
HETATM   26  C   UNL     1      -9.131   4.255  67.882  1.00  0.00    -0.131 C  
HETATM   27  O   UNL     1      -8.548   4.857  68.770  1.00  0.00    -0.089 OA 
HETATM   28  O   UNL     1      -9.371   2.924  67.946  1.00  0.00    -0.195 OA 
ENDBRANCH  24  25
ENDBRANCH  23  24
ENDBRANCH   9  23
TORSDOF 6
ENDMDL
MODEL      125
REMARK 921   NORMALIZED FREE ENERGY PREDICTED BY IDOCK:   -4.43 KCAL/MOL
REMARK 922        TOTAL FREE ENERGY PREDICTED BY IDOCK:   -7.33 KCAL/MOL
REMARK 923 INTER-LIGAND FREE ENERGY PREDICTED BY IDOCK:   -6.34 KCAL/MOL
REMARK 924 INTRA-LIGAND FREE ENERGY PREDICTED BY IDOCK:   -1.00 KCAL/MOL
REMARK 927      BINDING AFFINITY PREDICTED BY RF-SCORE:    0.00 PKD
ROOT
HETATM    1  C   UNL     1     -12.150  11.107  69.149  1.00  0.00    -0.352 C  
HETATM    2  C   UNL     1     -12.620  12.553  69.119  1.00  0.00     0.619 C  
HETATM    3  C   UNL     1     -11.340  13.391  69.095  1.00  0.00    -0.280 C  
HETATM    4  C   UNL     1     -10.232  12.478  68.528  1.00  0.00    -0.210 C  
HETATM    5  O   UNL     1     -10.981  13.780  70.420  1.00  0.00    -0.252 OA 
HETATM    6  H   UNL     1     -10.185  14.301  70.405  1.00  0.00     0.000 HD 
HETATM    7  C   UNL     1     -10.884  11.095  68.295  1.00  0.00    -0.258 C  
HETATM    8  C   UNL     1     -11.705  10.624  70.525  1.00  0.00    -0.451 C  
HETATM    9  C   UNL     1     -10.115   8.744  71.056  1.00  0.00    -0.301 C  
HETATM   10  C   UNL     1     -10.067   9.906  68.813  1.00  0.00    -0.186 C  
HETATM   11  C   UNL     1     -10.573   9.686  70.215  1.00  0.00    -0.333 C  
ENDROOT
BRANCH   4  12
HETATM   12  C   UNL     1      -9.667  13.007  67.230  1.00  0.00    -0.225 C  
HETATM   13  C   UNL     1     -10.446  13.535  66.273  1.00  0.00    -0.290 C  
BRANCH  13  14
HETATM   14  C   UNL     1      -9.933  14.230  65.050  1.00  0.00    -0.173 C  
HETATM   15  O   UNL     1     -10.067  13.330  63.955  1.00  0.00    -0.742 OA 
HETATM   16  C   UNL     1     -10.694  15.545  64.750  1.00  0.00    -0.329 C  
HETATM   17  H   UNL     1      -9.741  13.772  63.180  1.00  0.00     0.000 HD 
HETATM   18  C   UNL     1     -10.533  16.582  65.880  1.00  0.00    -0.335 C  
HETATM   19  C   UNL     1     -12.184  15.316  64.461  1.00  0.00    -0.203 C  
BRANCH  18  20
HETATM   20  C   UNL     1      -9.069  16.956  66.047  1.00  0.00    -0.199 C  
HETATM   21  C   UNL     1      -7.813  17.277  66.188  1.00  0.00    -0.305 C  
HETATM   22  C   UNL     1      -6.350  17.652  66.354  1.00  0.00    -0.265 C  
ENDBRANCH  18  20
ENDBRANCH  13  14
ENDBRANCH   4  12
BRANCH   9  23
HETATM   23  C   UNL     1     -10.664   8.513  72.438  1.00  0.00    -0.376 C  
BRANCH  23  24
HETATM   24  C   UNL     1      -9.971   7.353  73.159  1.00  0.00    -0.318 C  
BRANCH  24  25
HETATM   25  C   UNL     1      -8.769   7.808  73.984  1.00  0.00    -0.316 C  
HETATM   26  C   UNL     1      -7.561   6.934  73.750  1.00  0.00    -0.083 C  
HETATM   27  O   UNL     1      -7.511   5.974  72.999  1.00  0.00    -0.093 OA 
HETATM   28  O   UNL     1      -6.497   7.336  74.485  1.00  0.00    -0.082 OA 
ENDBRANCH  24  25
ENDBRANCH  23  24
ENDBRANCH   9  23
TORSDOF 6
ENDMDL
MODEL      126
REMARK 921   NORMALIZED FREE ENERGY PREDICTED BY IDOCK:   -4.42 KCAL/MOL
REMARK 922        TOTAL FREE ENERGY PREDICTED BY IDOCK:   -7.31 KCAL/MOL
REMARK 923 INTER-LIGAND FREE ENERGY PREDICTED BY IDOCK:   -6.42 KCAL/MOL
REMARK 924 INTRA-LIGAND FREE ENERGY PREDICTED BY IDOCK:   -0.90 KCAL/MOL
REMARK 927      BINDING AFFINITY PREDICTED BY RF-SCORE:    0.00 PKD
ROOT
HETATM    1  C   UNL     1      -9.060   9.337  70.498  1.00  0.00    -0.307 C  
HETATM    2  C   UNL     1      -8.061  10.233  69.783  1.00  0.00    -0.125 C  
HETATM    3  C   UNL     1      -8.715  10.574  68.443  1.00  0.00    -0.137 C  
HETATM    4  C   UNL     1     -10.235  10.391  68.640  1.00  0.00    -0.196 C  
HETATM    5  O   UNL     1      -8.271   9.669  67.432  1.00  0.00    -0.113 OA 
HETATM    6  H   UNL     1      -8.678   9.881  66.600  1.00  0.00     0.000 HD 
HETATM    7  C   UNL     1     -10.427   9.878  70.086  1.00  0.00    -0.339 C  
HETATM    8  C   UNL     1      -9.048   7.888  70.025  1.00  0.00    -0.152 C  
HETATM    9  C   UNL     1     -10.916   6.205  70.175  1.00  0.00    -0.426 C  
HETATM   10  C   UNL     1     -11.382   8.687  70.222  1.00  0.00    -0.146 C  
HETATM   11  C   UNL     1     -10.490   7.477  70.125  1.00  0.00    -0.226 C  
ENDROOT
BRANCH   4  12
HETATM   12  C   UNL     1     -10.994  11.683  68.447  1.00  0.00    -0.265 C  
HETATM   13  C   UNL     1     -10.376  12.872  68.371  1.00  0.00    -0.249 C  
BRANCH  13  14
HETATM   14  C   UNL     1     -11.052  14.158  68.007  1.00  0.00    -0.267 C  
HETATM   15  O   UNL     1     -12.390  13.849  67.632  1.00  0.00    -0.471 OA 
HETATM   16  C   UNL     1     -11.052  15.180  69.171  1.00  0.00    -0.263 C  
HETATM   17  H   UNL     1     -12.819  14.664  67.402  1.00  0.00     0.000 HD 
HETATM   18  C   UNL     1      -9.624  15.597  69.579  1.00  0.00    -0.279 C  
HETATM   19  C   UNL     1     -11.821  14.680  70.402  1.00  0.00    -0.365 C  
BRANCH  18  20
HETATM   20  C   UNL     1      -8.918  16.267  68.413  1.00  0.00    -0.203 C  
HETATM   21  C   UNL     1      -8.310  16.842  67.412  1.00  0.00    -0.201 C  
HETATM   22  C   UNL     1      -7.602  17.512  66.246  1.00  0.00    -0.343 C  
ENDBRANCH  18  20
ENDBRANCH  13  14
ENDBRANCH   4  12
BRANCH   9  23
HETATM   23  C   UNL     1     -10.002   5.010  70.118  1.00  0.00    -0.328 C  
BRANCH  23  24
HETATM   24  C   UNL     1      -9.162   4.973  68.839  1.00  0.00    -0.155 C  
BRANCH  24  25
HETATM   25  C   UNL     1      -9.855   4.227  67.701  1.00  0.00    -0.150 C  
HETATM   26  C   UNL     1     -10.174   5.138  66.540  1.00  0.00    -0.264 C  
HETATM   27  O   UNL     1      -9.923   6.330  66.480  1.00  0.00    -0.166 OA 
HETATM   28  O   UNL     1     -10.791   4.476  65.533  1.00  0.00    -0.280 OA 
ENDBRANCH  24  25
ENDBRANCH  23  24
ENDBRANCH   9  23
TORSDOF 6
ENDMDL
MODEL      127
REMARK 921   NORMALIZED FREE ENERGY PREDICTED BY IDOCK:   -4.41 KCAL/MOL
REMARK 922        TOTAL FREE ENERGY PREDICTED BY IDOCK:   -7.30 KCAL/MOL
REMARK 923 INTER-LIGAND FREE ENERGY PREDICTED BY IDOCK:   -5.88 KCAL/MOL
REMARK 924 INTRA-LIGAND FREE ENERGY PREDICTED BY IDOCK:   -1.42 KCAL/MOL
REMARK 927      BINDING AFFINITY PREDICTED BY RF-SCORE:    0.00 PKD
ROOT
HETATM    1  C   UNL     1      -9.750  12.668  66.570  1.00  0.00    -0.256 C  
HETATM    2  C   UNL     1     -10.684  13.753  66.059  1.00  0.00    -0.284 C  
HETATM    3  C   UNL     1     -11.029  14.596  67.288  1.00  0.00    -0.317 C  
HETATM    4  C   UNL     1      -9.887  14.377  68.303  1.00  0.00    -0.229 C  
HETATM    5  O   UNL     1     -12.252  14.144  67.869  1.00  0.00    -0.543 OA 
HETATM    6  H   UNL     1     -12.466  14.668  68.633  1.00  0.00     0.000 HD 
HETATM    7  C   UNL     1      -8.926  13.348  67.660  1.00  0.00    -0.202 C  
HETATM    8  C   UNL     1     -10.458  11.513  67.270  1.00  0.00    -0.246 C  
HETATM    9  C   UNL     1      -9.503   9.935  68.985  1.00  0.00    -0.185 C  
HETATM   10  C   UNL     1      -8.486  12.214  68.592  1.00  0.00    -0.005 C  
HETATM   11  C   UNL     1      -9.495  11.120  68.354  1.00  0.00    -0.189 C  
ENDROOT
BRANCH   4  12
HETATM   12  C   UNL     1      -9.143  15.656  68.607  1.00  0.00    -0.205 C  
HETATM   13  C   UNL     1      -7.802  15.709  68.663  1.00  0.00    -0.152 C  
BRANCH  13  14
HETATM   14  C   UNL     1      -7.009  16.973  68.785  1.00  0.00    -0.211 C  
HETATM   15  O   UNL     1      -6.101  16.809  69.869  1.00  0.00    -0.222 OA 
HETATM   16  C   UNL     1      -6.229  17.314  67.491  1.00  0.00    -0.169 C  
HETATM   17  H   UNL     1      -5.598  17.610  69.946  1.00  0.00     0.000 HD 
HETATM   18  C   UNL     1      -7.170  17.563  66.294  1.00  0.00    -0.351 C  
HETATM   19  C   UNL     1      -5.190  16.245  67.124  1.00  0.00    -0.024 C  
BRANCH  18  20
HETATM   20  C   UNL     1      -8.081  18.746  66.577  1.00  0.00    -0.302 C  
HETATM   21  C   UNL     1      -8.863  19.761  66.818  1.00  0.00    -0.410 C  
HETATM   22  C   UNL     1      -9.775  20.944  67.101  1.00  0.00    -0.331 C  
ENDBRANCH  18  20
ENDBRANCH  13  14
ENDBRANCH   4  12
BRANCH   9  23
HETATM   23  C   UNL     1     -10.495   8.840  68.701  1.00  0.00    -0.213 C  
BRANCH  23  24
HETATM   24  C   UNL     1      -9.864   7.647  67.978  1.00  0.00    -0.188 C  
BRANCH  24  25
HETATM   25  C   UNL     1      -9.760   7.862  66.469  1.00  0.00    -0.279 C  
HETATM   26  C   UNL     1      -8.332   8.069  66.026  1.00  0.00    -0.126 C  
HETATM   27  O   UNL     1      -7.353   8.071  66.754  1.00  0.00    -0.086 OA 
HETATM   28  O   UNL     1      -8.242   8.263  64.689  1.00  0.00    -0.157 OA 
ENDBRANCH  24  25
ENDBRANCH  23  24
ENDBRANCH   9  23
TORSDOF 6
ENDMDL
MODEL      128
REMARK 921   NORMALIZED FREE ENERGY PREDICTED BY IDOCK:   -4.40 KCAL/MOL
REMARK 922        TOTAL FREE ENERGY PREDICTED BY IDOCK:   -7.29 KCAL/MOL
REMARK 923 INTER-LIGAND FREE ENERGY PREDICTED BY IDOCK:   -6.10 KCAL/MOL
REMARK 924 INTRA-LIGAND FREE ENERGY PREDICTED BY IDOCK:   -1.20 KCAL/MOL
REMARK 927      BINDING AFFINITY PREDICTED BY RF-SCORE:    0.00 PKD
ROOT
HETATM    1  C   UNL     1     -10.627   8.844  67.804  1.00  0.00    -0.266 C  
HETATM    2  C   UNL     1      -9.903   7.733  67.061  1.00  0.00    -0.286 C  
HETATM    3  C   UNL     1      -8.519   7.653  67.707  1.00  0.00    -0.122 C  
HETATM    4  C   UNL     1      -8.662   8.255  69.121  1.00  0.00    -0.143 C  
HETATM    5  O   UNL     1      -7.583   8.438  66.967  1.00  0.00    -0.090 OA 
HETATM    6  H   UNL     1      -6.724   8.389  67.369  1.00  0.00     0.000 HD 
HETATM    7  C   UNL     1     -10.127   8.736  69.242  1.00  0.00    -0.206 C  
HETATM    8  C   UNL     1     -10.242  10.249  67.354  1.00  0.00    -0.265 C  
HETATM    9  C   UNL     1     -10.413  12.388  68.675  1.00  0.00    -0.224 C  
HETATM   10  C   UNL     1     -10.292  10.143  69.827  1.00  0.00    -0.297 C  
HETATM   11  C   UNL     1     -10.305  11.050  68.624  1.00  0.00    -0.209 C  
ENDROOT
BRANCH   4  12
HETATM   12  C   UNL     1      -8.361   7.244  70.202  1.00  0.00    -0.137 C  
HETATM   13  C   UNL     1      -9.219   6.987  71.202  1.00  0.00    -0.157 C  
BRANCH  13  14
HETATM   14  C   UNL     1      -9.055   5.879  72.196  1.00  0.00    -0.143 C  
HETATM   15  O   UNL     1      -8.999   6.467  73.491  1.00  0.00    -0.124 OA 
HETATM   16  C   UNL     1     -10.209   4.847  72.133  1.00  0.00    -0.257 C  
HETATM   17  H   UNL     1      -8.896   5.764  74.121  1.00  0.00     0.000 HD 
HETATM   18  C   UNL     1     -10.278   4.134  70.767  1.00  0.00     0.039 C  
HETATM   19  C   UNL     1     -11.575   5.462  72.469  1.00  0.00    -0.225 C  
BRANCH  18  20
HETATM   20  C   UNL     1      -8.993   3.364  70.510  1.00  0.00    -0.162 C  
HETATM   21  C   UNL     1      -7.891   2.703  70.290  1.00  0.00    -0.048 C  
HETATM   22  C   UNL     1      -6.606   1.932  70.033  1.00  0.00    -0.029 C  
ENDBRANCH  18  20
ENDBRANCH  13  14
ENDBRANCH   4  12
BRANCH   9  23
HETATM   23  C   UNL     1     -10.465  13.272  67.458  1.00  0.00    -0.237 C  
BRANCH  23  24
HETATM   24  C   UNL     1     -11.883  13.760  67.147  1.00  0.00    -0.441 C  
BRANCH  24  25
HETATM   25  C   UNL     1     -11.954  14.583  65.863  1.00  0.00    -0.315 C  
HETATM   26  C   UNL     1     -12.718  13.868  64.775  1.00  0.00    -0.211 C  
HETATM   27  O   UNL     1     -13.233  12.767  64.873  1.00  0.00    -0.808 OA 
HETATM   28  O   UNL     1     -12.777  14.598  63.636  1.00  0.00    -0.735 OA 
ENDBRANCH  24  25
ENDBRANCH  23  24
ENDBRANCH   9  23
TORSDOF 6
ENDMDL
MODEL      129
REMARK 921   NORMALIZED FREE ENERGY PREDICTED BY IDOCK:   -4.39 KCAL/MOL
REMARK 922        TOTAL FREE ENERGY PREDICTED BY IDOCK:   -7.27 KCAL/MOL
REMARK 923 INTER-LIGAND FREE ENERGY PREDICTED BY IDOCK:   -5.93 KCAL/MOL
REMARK 924 INTRA-LIGAND FREE ENERGY PREDICTED BY IDOCK:   -1.34 KCAL/MOL
REMARK 927      BINDING AFFINITY PREDICTED BY RF-SCORE:    0.00 PKD
ROOT
HETATM    1  C   UNL     1     -10.578   9.185  67.373  1.00  0.00    -0.315 C  
HETATM    2  C   UNL     1     -10.701   9.410  68.872  1.00  0.00    -0.203 C  
HETATM    3  C   UNL     1      -9.474  10.238  69.256  1.00  0.00    -0.215 C  
HETATM    4  C   UNL     1      -9.011  10.955  67.970  1.00  0.00    -0.145 C  
HETATM    5  O   UNL     1      -8.423   9.383  69.708  1.00  0.00    -0.133 OA 
HETATM    6  H   UNL     1      -7.661   9.898  69.946  1.00  0.00     0.000 HD 
HETATM    7  C   UNL     1      -9.950  10.471  66.841  1.00  0.00    -0.246 C  
HETATM    8  C   UNL     1      -9.603   8.079  66.987  1.00  0.00    -0.252 C  
HETATM    9  C   UNL     1      -8.372   7.805  64.806  1.00  0.00    -0.051 C  
HETATM   10  C   UNL     1      -9.238  10.060  65.548  1.00  0.00    -0.247 C  
HETATM   11  C   UNL     1      -8.996   8.580  65.707  1.00  0.00    -0.229 C  
ENDROOT
BRANCH   4  12
HETATM   12  C   UNL     1      -9.090  12.459  68.097  1.00  0.00    -0.200 C  
HETATM   13  C   UNL     1      -9.112  13.268  67.026  1.00  0.00    -0.232 C  
BRANCH  13  14
HETATM   14  C   UNL     1      -9.365  14.743  67.083  1.00  0.00    -0.224 C  
HETATM   15  O   UNL     1      -8.347  15.384  66.323  1.00  0.00    -0.387 OA 
HETATM   16  C   UNL     1     -10.760  15.129  66.531  1.00  0.00    -0.310 C  
HETATM   17  H   UNL     1      -8.508  16.319  66.359  1.00  0.00     0.000 HD 
HETATM   18  C   UNL     1     -11.905  14.508  67.357  1.00  0.00    -0.416 C  
HETATM   19  C   UNL     1     -10.932  14.769  65.048  1.00  0.00    -0.426 C  
BRANCH  18  20
HETATM   20  C   UNL     1     -11.852  15.009  68.790  1.00  0.00    -0.331 C  
HETATM   21  C   UNL     1     -11.806  15.441  70.020  1.00  0.00    -0.368 C  
HETATM   22  C   UNL     1     -11.754  15.943  71.453  1.00  0.00    -0.530 C  
ENDBRANCH  18  20
ENDBRANCH  13  14
ENDBRANCH   4  12
BRANCH   9  23
HETATM   23  C   UNL     1      -8.178   6.321  64.967  1.00  0.00    -0.132 C  
BRANCH  23  24
HETATM   24  C   UNL     1      -6.934   5.976  65.790  1.00  0.00    -0.061 C  
BRANCH  24  25
HETATM   25  C   UNL     1      -7.171   4.819  66.758  1.00  0.00    -0.080 C  
HETATM   26  C   UNL     1      -7.124   5.269  68.198  1.00  0.00    -0.066 C  
HETATM   27  O   UNL     1      -6.926   6.411  68.582  1.00  0.00    -0.074 OA 
HETATM   28  O   UNL     1      -7.332   4.242  69.055  1.00  0.00    -0.054 OA 
ENDBRANCH  24  25
ENDBRANCH  23  24
ENDBRANCH   9  23
TORSDOF 6
ENDMDL
MODEL      130
REMARK 921   NORMALIZED FREE ENERGY PREDICTED BY IDOCK:   -4.38 KCAL/MOL
REMARK 922        TOTAL FREE ENERGY PREDICTED BY IDOCK:   -7.26 KCAL/MOL
REMARK 923 INTER-LIGAND FREE ENERGY PREDICTED BY IDOCK:   -6.24 KCAL/MOL
REMARK 924 INTRA-LIGAND FREE ENERGY PREDICTED BY IDOCK:   -1.02 KCAL/MOL
REMARK 927      BINDING AFFINITY PREDICTED BY RF-SCORE:    0.00 PKD
ROOT
HETATM    1  C   UNL     1      -9.063   9.097  69.798  1.00  0.00    -0.173 C  
HETATM    2  C   UNL     1      -7.676   9.573  70.199  1.00  0.00    -0.161 C  
HETATM    3  C   UNL     1      -7.157  10.356  68.991  1.00  0.00    -0.076 C  
HETATM    4  C   UNL     1      -8.400  10.814  68.200  1.00  0.00    -0.120 C  
HETATM    5  O   UNL     1      -6.368   9.507  68.156  1.00  0.00    -0.056 OA 
HETATM    6  H   UNL     1      -6.046   9.994  67.406  1.00  0.00     0.000 HD 
HETATM    7  C   UNL     1      -9.626  10.225  68.937  1.00  0.00    -0.193 C  
HETATM    8  C   UNL     1      -9.064   7.869  68.894  1.00  0.00    -0.141 C  
HETATM    9  C   UNL     1     -10.860   7.146  67.283  1.00  0.00    -0.382 C  
HETATM   10  C   UNL     1     -10.658   9.552  68.026  1.00  0.00    -0.282 C  
HETATM   11  C   UNL     1     -10.239   8.105  67.988  1.00  0.00    -0.263 C  
ENDROOT
BRANCH   4  12
HETATM   12  C   UNL     1      -8.512  12.319  68.136  1.00  0.00    -0.176 C  
HETATM   13  C   UNL     1      -9.159  12.948  67.142  1.00  0.00    -0.220 C  
BRANCH  13  14
HETATM   14  C   UNL     1      -9.452  14.416  67.117  1.00  0.00    -0.222 C  
HETATM   15  O   UNL     1      -8.418  15.049  66.372  1.00  0.00    -0.425 OA 
HETATM   16  C   UNL     1     -10.830  14.737  66.488  1.00  0.00    -0.319 C  
HETATM   17  H   UNL     1      -8.605  15.980  66.356  1.00  0.00     0.000 HD 
HETATM   18  C   UNL     1     -11.995  14.124  67.292  1.00  0.00    -0.449 C  
HETATM   19  C   UNL     1     -10.927  14.304  65.018  1.00  0.00    -0.394 C  
BRANCH  18  20
HETATM   20  C   UNL     1     -12.018  14.693  68.701  1.00  0.00    -0.305 C  
HETATM   21  C   UNL     1     -12.037  15.182  69.910  1.00  0.00    -0.373 C  
HETATM   22  C   UNL     1     -12.060  15.752  71.319  1.00  0.00    -0.487 C  
ENDBRANCH  18  20
ENDBRANCH  13  14
ENDBRANCH   4  12
BRANCH   9  23
HETATM   23  C   UNL     1     -10.449   5.698  67.292  1.00  0.00    -0.322 C  
BRANCH  23  24
HETATM   24  C   UNL     1      -9.494   5.351  66.146  1.00  0.00    -0.171 C  
BRANCH  24  25
HETATM   25  C   UNL     1      -9.588   3.886  65.725  1.00  0.00    -0.182 C  
HETATM   26  C   UNL     1      -8.837   2.978  66.669  1.00  0.00    -0.147 C  
HETATM   27  O   UNL     1      -8.220   3.334  67.660  1.00  0.00    -0.079 OA 
HETATM   28  O   UNL     1      -8.918   1.680  66.293  1.00  0.00    -0.120 OA 
ENDBRANCH  24  25
ENDBRANCH  23  24
ENDBRANCH   9  23
TORSDOF 6
ENDMDL
MODEL      131
REMARK 921   NORMALIZED FREE ENERGY PREDICTED BY IDOCK:   -4.38 KCAL/MOL
REMARK 922        TOTAL FREE ENERGY PREDICTED BY IDOCK:   -7.26 KCAL/MOL
REMARK 923 INTER-LIGAND FREE ENERGY PREDICTED BY IDOCK:   -6.00 KCAL/MOL
REMARK 924 INTRA-LIGAND FREE ENERGY PREDICTED BY IDOCK:   -1.26 KCAL/MOL
REMARK 927      BINDING AFFINITY PREDICTED BY RF-SCORE:    0.00 PKD
ROOT
HETATM    1  C   UNL     1      -9.620  12.239  68.780  1.00  0.00     0.049 C  
HETATM    2  C   UNL     1     -10.543  11.325  69.570  1.00  0.00    -0.083 C  
HETATM    3  C   UNL     1     -10.924  10.205  68.601  1.00  0.00    -0.230 C  
HETATM    4  C   UNL     1      -9.810  10.152  67.535  1.00  0.00    -0.211 C  
HETATM    5  O   UNL     1     -12.162  10.510  67.957  1.00  0.00    -0.491 OA 
HETATM    6  H   UNL     1     -12.398   9.813  67.355  1.00  0.00     0.000 HD 
HETATM    7  C   UNL     1      -8.829  11.298  67.874  1.00  0.00    -0.142 C  
HETATM    8  C   UNL     1     -10.343  13.188  67.832  1.00  0.00    -0.232 C  
HETATM    9  C   UNL     1      -9.430  14.277  65.752  1.00  0.00    -0.098 C  
HETATM   10  C   UNL     1      -8.411  12.159  66.676  1.00  0.00    -0.088 C  
HETATM   11  C   UNL     1      -9.410  13.288  66.659  1.00  0.00    -0.247 C  
ENDROOT
BRANCH   4  12
HETATM   12  C   UNL     1      -9.079   8.830  67.541  1.00  0.00    -0.146 C  
HETATM   13  C   UNL     1      -8.909   8.111  68.662  1.00  0.00    -0.134 C  
BRANCH  13  14
HETATM   14  C   UNL     1      -8.352   6.721  68.701  1.00  0.00    -0.120 C  
HETATM   15  O   UNL     1      -7.076   6.786  69.328  1.00  0.00    -0.081 OA 
HETATM   16  C   UNL     1      -9.267   5.734  69.467  1.00  0.00    -0.150 C  
HETATM   17  H   UNL     1      -6.723   5.905  69.353  1.00  0.00     0.000 HD 
HETATM   18  C   UNL     1     -10.647   5.579  68.795  1.00  0.00    -0.236 C  
HETATM   19  C   UNL     1      -9.447   6.115  70.943  1.00  0.00    -0.187 C  
BRANCH  18  20
HETATM   20  C   UNL     1     -10.488   5.022  67.390  1.00  0.00    -0.121 C  
HETATM   21  C   UNL     1     -10.353   4.544  66.184  1.00  0.00    -0.258 C  
HETATM   22  C   UNL     1     -10.195   3.988  64.778  1.00  0.00    -0.223 C  
ENDBRANCH  18  20
ENDBRANCH  13  14
ENDBRANCH   4  12
BRANCH   9  23
HETATM   23  C   UNL     1     -10.411  15.419  65.778  1.00  0.00    -0.371 C  
BRANCH  23  24
HETATM   24  C   UNL     1     -11.864  14.948  65.674  1.00  0.00    -0.131 C  
BRANCH  24  25
HETATM   25  C   UNL     1     -12.189  14.337  64.312  1.00  0.00    -0.451 C  
HETATM   26  C   UNL     1     -12.502  12.864  64.414  1.00  0.00    -0.375 C  
HETATM   27  O   UNL     1     -12.507  12.206  65.441  1.00  0.00    -0.523 OA 
HETATM   28  O   UNL     1     -12.786  12.323  63.205  1.00  0.00    -0.719 OA 
ENDBRANCH  24  25
ENDBRANCH  23  24
ENDBRANCH   9  23
TORSDOF 6
ENDMDL
MODEL      132
REMARK 921   NORMALIZED FREE ENERGY PREDICTED BY IDOCK:   -4.33 KCAL/MOL
REMARK 922        TOTAL FREE ENERGY PREDICTED BY IDOCK:   -7.20 KCAL/MOL
REMARK 923 INTER-LIGAND FREE ENERGY PREDICTED BY IDOCK:   -6.19 KCAL/MOL
REMARK 924 INTRA-LIGAND FREE ENERGY PREDICTED BY IDOCK:   -1.01 KCAL/MOL
REMARK 927      BINDING AFFINITY PREDICTED BY RF-SCORE:    0.00 PKD
ROOT
HETATM    1  C   UNL     1     -10.253  13.360  66.180  1.00  0.00    -0.301 C  
HETATM    2  C   UNL     1     -11.293  14.467  66.108  1.00  0.00    -0.350 C  
HETATM    3  C   UNL     1     -11.367  15.041  67.524  1.00  0.00    -0.333 C  
HETATM    4  C   UNL     1     -10.023  14.700  68.204  1.00  0.00    -0.224 C  
HETATM    5  O   UNL     1     -12.422  14.416  68.255  1.00  0.00    -0.587 OA 
HETATM    6  H   UNL     1     -12.467  14.773  69.135  1.00  0.00     0.000 HD 
HETATM    7  C   UNL     1      -9.216  13.869  67.178  1.00  0.00    -0.242 C  
HETATM    8  C   UNL     1     -10.770  12.055  66.774  1.00  0.00    -0.280 C  
HETATM    9  C   UNL     1      -9.432  10.239  67.895  1.00  0.00    -0.154 C  
HETATM   10  C   UNL     1      -8.563  12.606  67.750  1.00  0.00    -0.179 C  
HETATM   11  C   UNL     1      -9.583  11.521  67.525  1.00  0.00    -0.179 C  
ENDROOT
BRANCH   4  12
HETATM   12  C   UNL     1      -9.249  15.939  68.586  1.00  0.00    -0.209 C  
HETATM   13  C   UNL     1      -8.462  16.589  67.715  1.00  0.00    -0.180 C  
BRANCH  13  14
HETATM   14  C   UNL     1      -7.813  17.912  67.982  1.00  0.00    -0.251 C  
HETATM   15  O   UNL     1      -8.534  18.541  69.036  1.00  0.00    -0.201 OA 
HETATM   16  C   UNL     1      -6.320  17.774  68.372  1.00  0.00    -0.196 C  
HETATM   17  H   UNL     1      -8.122  19.379  69.206  1.00  0.00     0.000 HD 
HETATM   18  C   UNL     1      -5.478  17.152  67.240  1.00  0.00    -0.168 C  
HETATM   19  C   UNL     1      -6.116  16.980  69.670  1.00  0.00    -0.231 C  
BRANCH  18  20
HETATM   20  C   UNL     1      -5.524  18.036  66.004  1.00  0.00    -0.233 C  
HETATM   21  C   UNL     1      -5.562  18.794  64.944  1.00  0.00    -0.279 C  
HETATM   22  C   UNL     1      -5.606  19.678  63.708  1.00  0.00    -0.326 C  
ENDBRANCH  18  20
ENDBRANCH  13  14
ENDBRANCH   4  12
BRANCH   9  23
HETATM   23  C   UNL     1     -10.447   9.161  67.623  1.00  0.00    -0.323 C  
BRANCH  23  24
HETATM   24  C   UNL     1     -10.711   8.279  68.847  1.00  0.00    -0.089 C  
BRANCH  24  25
HETATM   25  C   UNL     1      -9.438   7.965  69.630  1.00  0.00    -0.160 C  
HETATM   26  C   UNL     1      -9.738   7.285  70.945  1.00  0.00    -0.170 C  
HETATM   27  O   UNL     1     -10.848   7.004  71.364  1.00  0.00    -0.227 OA 
HETATM   28  O   UNL     1      -8.609   7.010  71.640  1.00  0.00    -0.116 OA 
ENDBRANCH  24  25
ENDBRANCH  23  24
ENDBRANCH   9  23
TORSDOF 6
ENDMDL
MODEL      133
REMARK 921   NORMALIZED FREE ENERGY PREDICTED BY IDOCK:   -4.30 KCAL/MOL
REMARK 922        TOTAL FREE ENERGY PREDICTED BY IDOCK:   -7.16 KCAL/MOL
REMARK 923 INTER-LIGAND FREE ENERGY PREDICTED BY IDOCK:   -6.07 KCAL/MOL
REMARK 924 INTRA-LIGAND FREE ENERGY PREDICTED BY IDOCK:   -1.09 KCAL/MOL
REMARK 927      BINDING AFFINITY PREDICTED BY RF-SCORE:    0.00 PKD
ROOT
HETATM    1  C   UNL     1     -10.587   9.010  69.069  1.00  0.00    -0.209 C  
HETATM    2  C   UNL     1      -9.278   9.173  68.313  1.00  0.00    -0.135 C  
HETATM    3  C   UNL     1      -8.204   9.306  69.394  1.00  0.00    -0.114 C  
HETATM    4  C   UNL     1      -8.780   8.649  70.666  1.00  0.00    -0.188 C  
HETATM    5  O   UNL     1      -7.947  10.684  69.667  1.00  0.00    -0.327 OA 
HETATM    6  H   UNL     1      -7.280  10.767  70.339  1.00  0.00     0.000 HD 
HETATM    7  C   UNL     1     -10.218   8.201  70.310  1.00  0.00    -0.200 C  
HETATM    8  C   UNL     1     -11.165  10.315  69.604  1.00  0.00    -0.322 C  
HETATM    9  C   UNL     1     -12.742  10.618  71.545  1.00  0.00    -0.549 C  
HETATM   10  C   UNL     1     -11.279   8.568  71.354  1.00  0.00    -0.327 C  
HETATM   11  C   UNL     1     -11.800   9.908  70.903  1.00  0.00    -0.443 C  
ENDROOT
BRANCH   4  12
HETATM   12  C   UNL     1      -7.965   7.457  71.110  1.00  0.00    -0.100 C  
HETATM   13  C   UNL     1      -8.231   6.210  70.690  1.00  0.00    -0.121 C  
BRANCH  13  14
HETATM   14  C   UNL     1      -7.358   5.022  70.954  1.00  0.00    -0.068 C  
HETATM   15  O   UNL     1      -6.206   5.481  71.651  1.00  0.00    -0.035 OA 
HETATM   16  C   UNL     1      -8.076   3.928  71.782  1.00  0.00    -0.078 C  
HETATM   17  H   UNL     1      -5.652   4.728  71.818  1.00  0.00     0.000 HD 
HETATM   18  C   UNL     1      -9.302   3.351  71.044  1.00  0.00    -0.212 C  
HETATM   19  C   UNL     1      -8.489   4.415  73.178  1.00  0.00    -0.094 C  
BRANCH  18  20
HETATM   20  C   UNL     1      -8.873   2.697  69.741  1.00  0.00    -0.142 C  
HETATM   21  C   UNL     1      -8.505   2.138  68.622  1.00  0.00    -0.086 C  
HETATM   22  C   UNL     1      -8.075   1.486  67.318  1.00  0.00    -0.066 C  
ENDBRANCH  18  20
ENDBRANCH  13  14
ENDBRANCH   4  12
BRANCH   9  23
HETATM   23  C   UNL     1     -13.278  11.937  71.055  1.00  0.00     0.148 C  
BRANCH  23  24
HETATM   24  C   UNL     1     -13.180  13.041  72.111  1.00  0.00    -0.558 C  
BRANCH  24  25
HETATM   25  C   UNL     1     -12.533  14.315  71.572  1.00  0.00    -0.435 C  
HETATM   26  C   UNL     1     -12.356  15.358  72.649  1.00  0.00    -0.396 C  
HETATM   27  O   UNL     1     -12.677  15.234  73.820  1.00  0.00    -0.520 OA 
HETATM   28  O   UNL     1     -11.786  16.488  72.169  1.00  0.00    -0.491 OA 
ENDBRANCH  24  25
ENDBRANCH  23  24
ENDBRANCH   9  23
TORSDOF 6
ENDMDL
MODEL      134
REMARK 921   NORMALIZED FREE ENERGY PREDICTED BY IDOCK:   -4.29 KCAL/MOL
REMARK 922        TOTAL FREE ENERGY PREDICTED BY IDOCK:   -7.14 KCAL/MOL
REMARK 923 INTER-LIGAND FREE ENERGY PREDICTED BY IDOCK:   -6.15 KCAL/MOL
REMARK 924 INTRA-LIGAND FREE ENERGY PREDICTED BY IDOCK:   -1.00 KCAL/MOL
REMARK 927      BINDING AFFINITY PREDICTED BY RF-SCORE:    0.00 PKD
ROOT
HETATM    1  C   UNL     1     -10.717   8.934  67.530  1.00  0.00    -0.223 C  
HETATM    2  C   UNL     1     -11.190   9.982  68.525  1.00  0.00    -0.180 C  
HETATM    3  C   UNL     1     -10.071  11.024  68.572  1.00  0.00    -0.190 C  
HETATM    4  C   UNL     1      -9.298  10.895  67.242  1.00  0.00    -0.168 C  
HETATM    5  O   UNL     1      -9.179  10.742  69.650  1.00  0.00    -0.403 OA 
HETATM    6  H   UNL     1      -8.484  11.390  69.679  1.00  0.00     0.000 HD 
HETATM    7  C   UNL     1      -9.952   9.724  66.472  1.00  0.00    -0.304 C  
HETATM    8  C   UNL     1      -9.704   7.947  68.099  1.00  0.00    -0.177 C  
HETATM    9  C   UNL     1      -7.995   6.596  66.834  1.00  0.00    -0.109 C  
HETATM   10  C   UNL     1      -8.960   8.722  65.869  1.00  0.00    -0.240 C  
HETATM   11  C   UNL     1      -8.798   7.668  66.934  1.00  0.00    -0.142 C  
ENDROOT
BRANCH   4  12
HETATM   12  C   UNL     1      -9.371  12.158  66.416  1.00  0.00    -0.225 C  
HETATM   13  C   UNL     1     -10.356  12.380  65.532  1.00  0.00    -0.298 C  
BRANCH  13  14
HETATM   14  C   UNL     1     -10.578  13.678  64.819  1.00  0.00    -0.422 C  
HETATM   15  O   UNL     1     -11.121  13.378  63.538  1.00  0.00    -0.502 OA 
HETATM   16  C   UNL     1     -11.531  14.626  65.588  1.00  0.00    -0.340 C  
HETATM   17  H   UNL     1     -11.262  14.201  63.086  1.00  0.00     0.000 HD 
HETATM   18  C   UNL     1     -10.962  15.033  66.963  1.00  0.00    -0.318 C  
HETATM   19  C   UNL     1     -12.940  14.039  65.761  1.00  0.00    -0.297 C  
BRANCH  18  20
HETATM   20  C   UNL     1      -9.652  15.783  66.789  1.00  0.00    -0.253 C  
HETATM   21  C   UNL     1      -8.528  16.428  66.639  1.00  0.00    -0.306 C  
HETATM   22  C   UNL     1      -7.219  17.180  66.464  1.00  0.00    -0.308 C  
ENDBRANCH  18  20
ENDBRANCH  13  14
ENDBRANCH   4  12
BRANCH   9  23
HETATM   23  C   UNL     1      -7.879   5.533  67.893  1.00  0.00    -0.096 C  
BRANCH  23  24
HETATM   24  C   UNL     1      -9.080   4.583  67.906  1.00  0.00    -0.147 C  
BRANCH  24  25
HETATM   25  C   UNL     1      -9.480   4.159  69.318  1.00  0.00    -0.258 C  
HETATM   26  C   UNL     1      -8.897   2.818  69.691  1.00  0.00    -0.088 C  
HETATM   27  O   UNL     1      -8.187   2.127  68.979  1.00  0.00    -0.051 OA 
HETATM   28  O   UNL     1      -9.255   2.442  70.941  1.00  0.00    -0.103 OA 
ENDBRANCH  24  25
ENDBRANCH  23  24
ENDBRANCH   9  23
TORSDOF 6
ENDMDL
MODEL      135
REMARK 921   NORMALIZED FREE ENERGY PREDICTED BY IDOCK:   -4.29 KCAL/MOL
REMARK 922        TOTAL FREE ENERGY PREDICTED BY IDOCK:   -7.14 KCAL/MOL
REMARK 923 INTER-LIGAND FREE ENERGY PREDICTED BY IDOCK:   -6.11 KCAL/MOL
REMARK 924 INTRA-LIGAND FREE ENERGY PREDICTED BY IDOCK:   -1.03 KCAL/MOL
REMARK 927      BINDING AFFINITY PREDICTED BY RF-SCORE:    0.00 PKD
ROOT
HETATM    1  C   UNL     1     -10.955   7.555  67.611  1.00  0.00    -0.093 C  
HETATM    2  C   UNL     1     -10.338   6.183  67.831  1.00  0.00    -0.250 C  
HETATM    3  C   UNL     1      -9.124   6.428  68.728  1.00  0.00    -0.125 C  
HETATM    4  C   UNL     1      -9.387   7.757  69.467  1.00  0.00    -0.149 C  
HETATM    5  O   UNL     1      -7.945   6.571  67.934  1.00  0.00    -0.107 OA 
HETATM    6  H   UNL     1      -7.191   6.723  68.491  1.00  0.00     0.000 HD 
HETATM    7  C   UNL     1     -10.734   8.293  68.928  1.00  0.00    -0.089 C  
HETATM    8  C   UNL     1     -10.241   8.398  66.559  1.00  0.00    -0.277 C  
HETATM    9  C   UNL     1     -10.226  10.908  66.350  1.00  0.00    -0.289 C  
HETATM   10  C   UNL     1     -10.728   9.780  68.555  1.00  0.00    -0.252 C  
HETATM   11  C   UNL     1     -10.365   9.797  67.092  1.00  0.00    -0.311 C  
ENDROOT
BRANCH   4  12
HETATM   12  C   UNL     1      -9.469   7.569  70.964  1.00  0.00    -0.162 C  
HETATM   13  C   UNL     1     -10.214   6.604  71.525  1.00  0.00    -0.218 C  
BRANCH  13  14
HETATM   14  C   UNL     1     -10.197   6.259  72.982  1.00  0.00    -0.197 C  
HETATM   15  O   UNL     1     -10.911   7.277  73.674  1.00  0.00    -0.509 OA 
HETATM   16  C   UNL     1     -10.833   4.877  73.274  1.00  0.00    -0.355 C  
HETATM   17  H   UNL     1     -10.900   7.058  74.598  1.00  0.00     0.000 HD 
HETATM   18  C   UNL     1     -10.061   3.726  72.595  1.00  0.00    -0.228 C  
HETATM   19  C   UNL     1     -12.316   4.811  72.884  1.00  0.00     0.428 C  
BRANCH  18  20
HETATM   20  C   UNL     1      -8.636   3.668  73.119  1.00  0.00    -0.090 C  
HETATM   21  C   UNL     1      -7.412   3.616  73.568  1.00  0.00    -0.062 C  
HETATM   22  C   UNL     1      -5.987   3.557  74.091  1.00  0.00    -0.011 C  
ENDBRANCH  18  20
ENDBRANCH  13  14
ENDBRANCH   4  12
BRANCH   9  23
HETATM   23  C   UNL     1      -9.904  10.901  64.880  1.00  0.00    -0.339 C  
BRANCH  23  24
HETATM   24  C   UNL     1     -11.023  11.511  64.031  1.00  0.00    -0.454 C  
BRANCH  24  25
HETATM   25  C   UNL     1     -11.014  13.038  64.054  1.00  0.00    -0.422 C  
HETATM   26  C   UNL     1     -12.288  13.602  64.635  1.00  0.00    -0.371 C  
HETATM   27  O   UNL     1     -13.232  12.949  65.048  1.00  0.00    -0.765 OA 
HETATM   28  O   UNL     1     -12.279  14.955  64.652  1.00  0.00    -0.418 OA 
ENDBRANCH  24  25
ENDBRANCH  23  24
ENDBRANCH   9  23
TORSDOF 6
ENDMDL
MODEL      136
REMARK 921   NORMALIZED FREE ENERGY PREDICTED BY IDOCK:   -4.26 KCAL/MOL
REMARK 922        TOTAL FREE ENERGY PREDICTED BY IDOCK:   -7.10 KCAL/MOL
REMARK 923 INTER-LIGAND FREE ENERGY PREDICTED BY IDOCK:   -6.16 KCAL/MOL
REMARK 924 INTRA-LIGAND FREE ENERGY PREDICTED BY IDOCK:   -0.94 KCAL/MOL
REMARK 927      BINDING AFFINITY PREDICTED BY RF-SCORE:    0.00 PKD
ROOT
HETATM    1  C   UNL     1     -10.108  11.647  65.478  1.00  0.00    -0.285 C  
HETATM    2  C   UNL     1     -11.492  12.133  65.879  1.00  0.00    -0.418 C  
HETATM    3  C   UNL     1     -11.507  12.086  67.408  1.00  0.00    -0.336 C  
HETATM    4  C   UNL     1     -10.033  12.157  67.861  1.00  0.00    -0.200 C  
HETATM    5  O   UNL     1     -12.066  10.852  67.859  1.00  0.00    -0.736 OA 
HETATM    6  H   UNL     1     -12.074  10.823  68.808  1.00  0.00     0.000 HD 
HETATM    7  C   UNL     1      -9.182  12.177  66.569  1.00  0.00    -0.216 C  
HETATM    8  C   UNL     1      -9.943  10.132  65.519  1.00  0.00    -0.363 C  
HETATM    9  C   UNL     1      -7.807   8.824  65.791  1.00  0.00    -0.099 C  
HETATM   10  C   UNL     1      -7.986  11.219  66.576  1.00  0.00    -0.145 C  
HETATM   11  C   UNL     1      -8.520   9.949  65.965  1.00  0.00    -0.135 C  
ENDROOT
BRANCH   4  12
HETATM   12  C   UNL     1      -9.749  13.392  68.684  1.00  0.00    -0.084 C  
HETATM   13  C   UNL     1      -9.732  14.622  68.147  1.00  0.00    -0.220 C  
BRANCH  13  14
HETATM   14  C   UNL     1      -9.632  15.890  68.937  1.00  0.00    -0.230 C  
HETATM   15  O   UNL     1      -9.974  15.586  70.284  1.00  0.00    -0.369 OA 
HETATM   16  C   UNL     1      -8.217  16.517  68.879  1.00  0.00    -0.241 C  
HETATM   17  H   UNL     1      -9.910  16.391  70.785  1.00  0.00     0.000 HD 
HETATM   18  C   UNL     1      -7.818  16.922  67.445  1.00  0.00    -0.192 C  
HETATM   19  C   UNL     1      -7.138  15.607  69.482  1.00  0.00    -0.195 C  
BRANCH  18  20
HETATM   20  C   UNL     1      -8.779  17.970  66.907  1.00  0.00    -0.261 C  
HETATM   21  C   UNL     1      -9.605  18.868  66.447  1.00  0.00    -0.377 C  
HETATM   22  C   UNL     1     -10.567  19.915  65.910  1.00  0.00    -0.523 C  
ENDBRANCH  18  20
ENDBRANCH  13  14
ENDBRANCH   4  12
BRANCH   9  23
HETATM   23  C   UNL     1      -8.349   7.580  65.140  1.00  0.00    -0.092 C  
BRANCH  23  24
HETATM   24  C   UNL     1      -7.312   6.881  64.256  1.00  0.00    -0.085 C  
BRANCH  24  25
HETATM   25  C   UNL     1      -7.215   5.382  64.535  1.00  0.00    -0.055 C  
HETATM   26  C   UNL     1      -8.108   4.579  63.621  1.00  0.00    -0.098 C  
HETATM   27  O   UNL     1      -8.831   5.035  62.751  1.00  0.00    -0.129 OA 
HETATM   28  O   UNL     1      -8.023   3.251  63.871  1.00  0.00    -0.080 OA 
ENDBRANCH  24  25
ENDBRANCH  23  24
ENDBRANCH   9  23
TORSDOF 6
ENDMDL
MODEL      137
REMARK 921   NORMALIZED FREE ENERGY PREDICTED BY IDOCK:   -4.25 KCAL/MOL
REMARK 922        TOTAL FREE ENERGY PREDICTED BY IDOCK:   -7.08 KCAL/MOL
REMARK 923 INTER-LIGAND FREE ENERGY PREDICTED BY IDOCK:   -6.42 KCAL/MOL
REMARK 924 INTRA-LIGAND FREE ENERGY PREDICTED BY IDOCK:   -0.66 KCAL/MOL
REMARK 927      BINDING AFFINITY PREDICTED BY RF-SCORE:    0.00 PKD
ROOT
HETATM    1  C   UNL     1      -9.934  11.726  67.480  1.00  0.00    -0.204 C  
HETATM    2  C   UNL     1     -10.293  11.187  68.855  1.00  0.00    -0.220 C  
HETATM    3  C   UNL     1     -11.250  10.023  68.593  1.00  0.00    -0.121 C  
HETATM    4  C   UNL     1     -10.970   9.544  67.152  1.00  0.00    -0.019 C  
HETATM    5  O   UNL     1     -12.604  10.469  68.673  1.00  0.00    -0.488 OA 
HETATM    6  H   UNL     1     -13.198   9.746  68.509  1.00  0.00     0.000 HD 
HETATM    7  C   UNL     1      -9.891  10.493  66.581  1.00  0.00    -0.246 C  
HETATM    8  C   UNL     1     -10.999  12.628  66.866  1.00  0.00    -0.297 C  
HETATM    9  C   UNL     1     -11.385  13.112  64.424  1.00  0.00    -0.400 C  
HETATM   10  C   UNL     1     -10.183  11.019  65.171  1.00  0.00    -0.352 C  
HETATM   11  C   UNL     1     -10.916  12.316  65.399  1.00  0.00    -0.341 C  
ENDROOT
BRANCH   4  12
HETATM   12  C   UNL     1     -10.474   8.117  67.113  1.00  0.00    -0.396 C  
HETATM   13  C   UNL     1      -9.486   7.725  66.293  1.00  0.00    -0.201 C  
BRANCH  13  14
HETATM   14  C   UNL     1      -8.837   6.376  66.334  1.00  0.00    -0.141 C  
HETATM   15  O   UNL     1      -8.778   5.886  64.999  1.00  0.00    -0.297 OA 
HETATM   16  C   UNL     1      -7.415   6.418  66.945  1.00  0.00    -0.084 C  
HETATM   17  H   UNL     1      -8.366   5.031  65.025  1.00  0.00     0.000 HD 
HETATM   18  C   UNL     1      -7.427   6.886  68.415  1.00  0.00    -0.098 C  
HETATM   19  C   UNL     1      -6.444   7.284  66.131  1.00  0.00    -0.045 C  
BRANCH  18  20
HETATM   20  C   UNL     1      -8.237   5.922  69.267  1.00  0.00    -0.113 C  
HETATM   21  C   UNL     1      -8.933   5.096  69.997  1.00  0.00    -0.153 C  
HETATM   22  C   UNL     1      -9.743   4.132  70.848  1.00  0.00    -0.259 C  
ENDBRANCH  18  20
ENDBRANCH  13  14
ENDBRANCH   4  12
BRANCH   9  23
HETATM   23  C   UNL     1     -12.078  14.424  64.673  1.00  0.00    -0.485 C  
BRANCH  23  24
HETATM   24  C   UNL     1     -11.099  15.598  64.762  1.00  0.00    -0.426 C  
BRANCH  24  25
HETATM   25  C   UNL     1      -9.739  15.189  65.324  1.00  0.00    -0.147 C  
HETATM   26  C   UNL     1      -8.978  16.370  65.876  1.00  0.00    -0.159 C  
HETATM   27  O   UNL     1      -9.369  17.525  65.891  1.00  0.00    -0.516 OA 
HETATM   28  O   UNL     1      -7.771  16.006  66.371  1.00  0.00    -0.214 OA 
ENDBRANCH  24  25
ENDBRANCH  23  24
ENDBRANCH   9  23
TORSDOF 6
ENDMDL
MODEL      138
REMARK 921   NORMALIZED FREE ENERGY PREDICTED BY IDOCK:   -4.24 KCAL/MOL
REMARK 922        TOTAL FREE ENERGY PREDICTED BY IDOCK:   -7.08 KCAL/MOL
REMARK 923 INTER-LIGAND FREE ENERGY PREDICTED BY IDOCK:   -6.21 KCAL/MOL
REMARK 924 INTRA-LIGAND FREE ENERGY PREDICTED BY IDOCK:   -0.87 KCAL/MOL
REMARK 927      BINDING AFFINITY PREDICTED BY RF-SCORE:    0.00 PKD
ROOT
HETATM    1  C   UNL     1      -9.975  10.689  67.356  1.00  0.00    -0.213 C  
HETATM    2  C   UNL     1     -10.290   9.654  68.424  1.00  0.00    -0.233 C  
HETATM    3  C   UNL     1     -10.047   8.300  67.755  1.00  0.00    -0.206 C  
HETATM    4  C   UNL     1      -9.072   8.559  66.587  1.00  0.00    -0.203 C  
HETATM    5  O   UNL     1     -11.269   7.784  67.227  1.00  0.00    -0.457 OA 
HETATM    6  H   UNL     1     -11.117   6.943  66.811  1.00  0.00     0.000 HD 
HETATM    7  C   UNL     1      -8.820  10.085  66.562  1.00  0.00    -0.154 C  
HETATM    8  C   UNL     1     -11.092  10.894  66.338  1.00  0.00    -0.077 C  
HETATM    9  C   UNL     1     -10.885  11.766  63.984  1.00  0.00    -0.446 C  
HETATM   10  C   UNL     1      -8.913  10.727  65.174  1.00  0.00    -0.215 C  
HETATM   11  C   UNL     1     -10.351  11.166  65.060  1.00  0.00    -0.362 C  
ENDROOT
BRANCH   4  12
HETATM   12  C   UNL     1      -7.764   7.824  66.763  1.00  0.00    -0.099 C  
HETATM   13  C   UNL     1      -7.572   6.929  67.745  1.00  0.00    -0.107 C  
BRANCH  13  14
HETATM   14  C   UNL     1      -6.369   6.046  67.864  1.00  0.00    -0.037 C  
HETATM   15  O   UNL     1      -5.242   6.882  68.099  1.00  0.00    -0.010 OA 
HETATM   16  C   UNL     1      -6.503   5.007  69.004  1.00  0.00    -0.036 C  
HETATM   17  H   UNL     1      -4.479   6.322  68.175  1.00  0.00     0.000 HD 
HETATM   18  C   UNL     1      -7.676   4.033  68.769  1.00  0.00    -0.054 C  
HETATM   19  C   UNL     1      -6.636   5.658  70.388  1.00  0.00    -0.046 C  
BRANCH  18  20
HETATM   20  C   UNL     1      -7.457   3.245  67.488  1.00  0.00    -0.062 C  
HETATM   21  C   UNL     1      -7.268   2.570  66.388  1.00  0.00    -0.065 C  
HETATM   22  C   UNL     1      -7.048   1.783  65.107  1.00  0.00    -0.048 C  
ENDBRANCH  18  20
ENDBRANCH  13  14
ENDBRANCH   4  12
BRANCH   9  23
HETATM   23  C   UNL     1     -12.314  12.233  63.907  1.00  0.00    -0.606 C  
BRANCH  23  24
HETATM   24  C   UNL     1     -12.608  13.386  64.871  1.00  0.00    -0.416 C  
BRANCH  24  25
HETATM   25  C   UNL     1     -12.481  14.756  64.207  1.00  0.00    -0.224 C  
HETATM   26  C   UNL     1     -11.291  15.527  64.726  1.00  0.00    -0.357 C  
HETATM   27  O   UNL     1     -10.503  15.136  65.571  1.00  0.00    -0.321 OA 
HETATM   28  O   UNL     1     -11.182  16.742  64.139  1.00  0.00    -1.155 OA 
ENDBRANCH  24  25
ENDBRANCH  23  24
ENDBRANCH   9  23
TORSDOF 6
ENDMDL
MODEL      139
REMARK 921   NORMALIZED FREE ENERGY PREDICTED BY IDOCK:   -4.24 KCAL/MOL
REMARK 922        TOTAL FREE ENERGY PREDICTED BY IDOCK:   -7.08 KCAL/MOL
REMARK 923 INTER-LIGAND FREE ENERGY PREDICTED BY IDOCK:   -6.11 KCAL/MOL
REMARK 924 INTRA-LIGAND FREE ENERGY PREDICTED BY IDOCK:   -0.97 KCAL/MOL
REMARK 927      BINDING AFFINITY PREDICTED BY RF-SCORE:    0.00 PKD
ROOT
HETATM    1  C   UNL     1     -10.020  11.347  65.582  1.00  0.00    -0.282 C  
HETATM    2  C   UNL     1     -11.390  11.791  66.070  1.00  0.00    -0.335 C  
HETATM    3  C   UNL     1     -11.340  11.646  67.591  1.00  0.00    -0.295 C  
HETATM    4  C   UNL     1      -9.850  11.704  67.988  1.00  0.00    -0.193 C  
HETATM    5  O   UNL     1     -11.871  10.380  67.984  1.00  0.00    -0.746 OA 
HETATM    6  H   UNL     1     -11.840  10.290  68.930  1.00  0.00     0.000 HD 
HETATM    7  C   UNL     1      -9.053  11.816  66.667  1.00  0.00    -0.194 C  
HETATM    8  C   UNL     1      -9.840   9.834  65.519  1.00  0.00    -0.378 C  
HETATM    9  C   UNL     1      -7.685   8.535  65.619  1.00  0.00    -0.095 C  
HETATM   10  C   UNL     1      -7.850  10.872  66.563  1.00  0.00    -0.152 C  
HETATM   11  C   UNL     1      -8.399   9.638  65.893  1.00  0.00    -0.124 C  
ENDROOT
BRANCH   4  12
HETATM   12  C   UNL     1      -9.543  12.887  68.876  1.00  0.00     0.215 C  
HETATM   13  C   UNL     1      -9.547  14.148  68.417  1.00  0.00    -0.225 C  
BRANCH  13  14
HETATM   14  C   UNL     1      -9.424  15.365  69.281  1.00  0.00    -0.261 C  
HETATM   15  O   UNL     1      -8.086  15.837  69.172  1.00  0.00    -0.207 OA 
HETATM   16  C   UNL     1     -10.414  16.485  68.875  1.00  0.00    -0.304 C  
HETATM   17  H   UNL     1      -8.009  16.609  69.720  1.00  0.00     0.000 HD 
HETATM   18  C   UNL     1     -11.885  16.046  69.031  1.00  0.00    -0.258 C  
HETATM   19  C   UNL     1     -10.174  17.003  67.450  1.00  0.00    -0.314 C  
BRANCH  18  20
HETATM   20  C   UNL     1     -12.182  15.709  70.483  1.00  0.00    -0.437 C  
HETATM   21  C   UNL     1     -12.438  15.421  71.729  1.00  0.00    -0.451 C  
HETATM   22  C   UNL     1     -12.737  15.085  73.181  1.00  0.00    -0.595 C  
ENDBRANCH  18  20
ENDBRANCH  13  14
ENDBRANCH   4  12
BRANCH   9  23
HETATM   23  C   UNL     1      -8.242   7.329  64.911  1.00  0.00    -0.075 C  
BRANCH  23  24
HETATM   24  C   UNL     1      -7.249   6.720  63.917  1.00  0.00    -0.068 C  
BRANCH  24  25
HETATM   25  C   UNL     1      -7.152   5.200  64.039  1.00  0.00    -0.049 C  
HETATM   26  C   UNL     1      -8.241   4.501  63.262  1.00  0.00    -0.098 C  
HETATM   27  O   UNL     1      -9.110   5.048  62.603  1.00  0.00    -0.103 OA 
HETATM   28  O   UNL     1      -8.156   3.154  63.373  1.00  0.00    -0.082 OA 
ENDBRANCH  24  25
ENDBRANCH  23  24
ENDBRANCH   9  23
TORSDOF 6
ENDMDL
MODEL      140
REMARK 921   NORMALIZED FREE ENERGY PREDICTED BY IDOCK:   -4.24 KCAL/MOL
REMARK 922        TOTAL FREE ENERGY PREDICTED BY IDOCK:   -7.07 KCAL/MOL
REMARK 923 INTER-LIGAND FREE ENERGY PREDICTED BY IDOCK:   -5.67 KCAL/MOL
REMARK 924 INTRA-LIGAND FREE ENERGY PREDICTED BY IDOCK:   -1.41 KCAL/MOL
REMARK 927      BINDING AFFINITY PREDICTED BY RF-SCORE:    0.00 PKD
ROOT
HETATM    1  C   UNL     1      -9.636   3.802  67.053  1.00  0.00    -0.213 C  
HETATM    2  C   UNL     1      -9.430   2.936  68.285  1.00  0.00    -0.217 C  
HETATM    3  C   UNL     1      -9.050   3.911  69.401  1.00  0.00    -0.131 C  
HETATM    4  C   UNL     1      -9.603   5.290  68.983  1.00  0.00    -0.199 C  
HETATM    5  O   UNL     1      -7.630   4.002  69.516  1.00  0.00    -0.053 OA 
HETATM    6  H   UNL     1      -7.394   4.608  70.209  1.00  0.00     0.000 HD 
HETATM    7  C   UNL     1     -10.241   5.097  67.587  1.00  0.00    -0.197 C  
HETATM    8  C   UNL     1      -8.343   4.223  66.363  1.00  0.00    -0.105 C  
HETATM    9  C   UNL     1      -7.970   6.228  64.884  1.00  0.00    -0.124 C  
HETATM   10  C   UNL     1      -9.862   6.167  66.557  1.00  0.00    -0.179 C  
HETATM   11  C   UNL     1      -8.650   5.604  65.860  1.00  0.00    -0.144 C  
ENDROOT
BRANCH   4  12
HETATM   12  C   UNL     1     -10.637   5.808  69.955  1.00  0.00    -0.380 C  
HETATM   13  C   UNL     1     -10.578   5.546  71.270  1.00  0.00    -0.304 C  
BRANCH  13  14
HETATM   14  C   UNL     1     -11.468   6.171  72.300  1.00  0.00    -0.312 C  
HETATM   15  O   UNL     1     -12.109   5.119  73.011  1.00  0.00    -0.487 OA 
HETATM   16  C   UNL     1     -10.691   7.079  73.286  1.00  0.00    -0.373 C  
HETATM   17  H   UNL     1     -12.673   5.516  73.664  1.00  0.00     0.000 HD 
HETATM   18  C   UNL     1     -10.023   8.274  72.574  1.00  0.00    -0.373 C  
HETATM   19  C   UNL     1      -9.644   6.309  74.103  1.00  0.00    -0.217 C  
BRANCH  18  20
HETATM   20  C   UNL     1     -11.077   9.150  71.916  1.00  0.00    -0.385 C  
HETATM   21  C   UNL     1     -11.981   9.900  71.350  1.00  0.00    -0.489 C  
HETATM   22  C   UNL     1     -13.035  10.775  70.691  1.00  0.00    -0.313 C  
ENDBRANCH  18  20
ENDBRANCH  13  14
ENDBRANCH   4  12
BRANCH   9  23
HETATM   23  C   UNL     1      -6.787   5.629  64.172  1.00  0.00    -0.049 C  
BRANCH  23  24
HETATM   24  C   UNL     1      -7.170   4.979  62.840  1.00  0.00    -0.043 C  
BRANCH  24  25
HETATM   25  C   UNL     1      -7.471   3.488  62.978  1.00  0.00    -0.054 C  
HETATM   26  C   UNL     1      -8.951   3.201  62.907  1.00  0.00    -0.092 C  
HETATM   27  O   UNL     1      -9.831   4.032  62.756  1.00  0.00    -0.146 OA 
HETATM   28  O   UNL     1      -9.216   1.879  63.033  1.00  0.00    -0.090 OA 
ENDBRANCH  24  25
ENDBRANCH  23  24
ENDBRANCH   9  23
TORSDOF 6
ENDMDL
MODEL      141
REMARK 921   NORMALIZED FREE ENERGY PREDICTED BY IDOCK:   -4.23 KCAL/MOL
REMARK 922        TOTAL FREE ENERGY PREDICTED BY IDOCK:   -7.06 KCAL/MOL
REMARK 923 INTER-LIGAND FREE ENERGY PREDICTED BY IDOCK:   -6.05 KCAL/MOL
REMARK 924 INTRA-LIGAND FREE ENERGY PREDICTED BY IDOCK:   -1.02 KCAL/MOL
REMARK 927      BINDING AFFINITY PREDICTED BY RF-SCORE:    0.00 PKD
ROOT
HETATM    1  C   UNL     1     -10.711  13.372  67.535  1.00  0.00    -0.263 C  
HETATM    2  C   UNL     1     -10.371  14.175  68.780  1.00  0.00    -0.230 C  
HETATM    3  C   UNL     1      -8.869  14.445  68.685  1.00  0.00    -0.167 C  
HETATM    4  C   UNL     1      -8.498  14.335  67.191  1.00  0.00    -0.220 C  
HETATM    5  O   UNL     1      -8.142  13.454  69.412  1.00  0.00    -0.129 OA 
HETATM    6  H   UNL     1      -7.209  13.622  69.353  1.00  0.00     0.000 HD 
HETATM    7  C   UNL     1      -9.796  13.934  66.451  1.00  0.00    -0.304 C  
HETATM    8  C   UNL     1     -10.352  11.893  67.630  1.00  0.00    -0.217 C  
HETATM    9  C   UNL     1      -9.888  10.298  65.736  1.00  0.00    -0.320 C  
HETATM   10  C   UNL     1      -9.630  12.794  65.440  1.00  0.00     0.045 C  
HETATM   11  C   UNL     1      -9.933  11.546  66.229  1.00  0.00    -0.252 C  
ENDROOT
BRANCH   4  12
HETATM   12  C   UNL     1      -7.971  15.638  66.638  1.00  0.00    -0.185 C  
HETATM   13  C   UNL     1      -8.343  16.829  67.133  1.00  0.00    -0.207 C  
BRANCH  13  14
HETATM   14  C   UNL     1      -7.727  18.138  66.746  1.00  0.00    -0.225 C  
HETATM   15  O   UNL     1      -7.441  18.085  65.353  1.00  0.00    -0.482 OA 
HETATM   16  C   UNL     1      -8.650  19.344  67.051  1.00  0.00    -0.318 C  
HETATM   17  H   UNL     1      -7.050  18.915  65.108  1.00  0.00     0.000 HD 
HETATM   18  C   UNL     1      -8.944  19.485  68.559  1.00  0.00    -0.395 C  
HETATM   19  C   UNL     1      -9.968  19.297  66.265  1.00  0.00    -0.484 C  
BRANCH  18  20
HETATM   20  C   UNL     1      -7.653  19.721  69.327  1.00  0.00    -0.158 C  
HETATM   21  C   UNL     1      -6.546  19.922  69.986  1.00  0.00    -0.302 C  
HETATM   22  C   UNL     1      -5.256  20.156  70.754  1.00  0.00    -0.283 C  
ENDBRANCH  18  20
ENDBRANCH  13  14
ENDBRANCH   4  12
BRANCH   9  23
HETATM   23  C   UNL     1     -10.236   9.069  66.531  1.00  0.00    -0.318 C  
BRANCH  23  24
HETATM   24  C   UNL     1      -8.998   8.269  66.948  1.00  0.00    -0.169 C  
BRANCH  24  25
HETATM   25  C   UNL     1      -8.798   7.011  66.107  1.00  0.00    -0.165 C  
HETATM   26  C   UNL     1      -7.849   7.245  64.957  1.00  0.00    -0.125 C  
HETATM   27  O   UNL     1      -7.287   8.297  64.700  1.00  0.00    -0.082 OA 
HETATM   28  O   UNL     1      -7.675   6.130  64.210  1.00  0.00    -0.092 OA 
ENDBRANCH  24  25
ENDBRANCH  23  24
ENDBRANCH   9  23
TORSDOF 6
ENDMDL
MODEL      142
REMARK 921   NORMALIZED FREE ENERGY PREDICTED BY IDOCK:   -4.22 KCAL/MOL
REMARK 922        TOTAL FREE ENERGY PREDICTED BY IDOCK:   -7.05 KCAL/MOL
REMARK 923 INTER-LIGAND FREE ENERGY PREDICTED BY IDOCK:   -6.14 KCAL/MOL
REMARK 924 INTRA-LIGAND FREE ENERGY PREDICTED BY IDOCK:   -0.90 KCAL/MOL
REMARK 927      BINDING AFFINITY PREDICTED BY RF-SCORE:    0.00 PKD
ROOT
HETATM    1  C   UNL     1     -10.188  17.821  68.050  1.00  0.00    -0.377 C  
HETATM    2  C   UNL     1     -11.045  17.750  66.796  1.00  0.00     0.379 C  
HETATM    3  C   UNL     1     -10.577  16.494  66.060  1.00  0.00    -0.253 C  
HETATM    4  C   UNL     1      -9.927  15.582  67.122  1.00  0.00    -0.242 C  
HETATM    5  O   UNL     1      -9.592  16.834  65.083  1.00  0.00    -0.033 OA 
HETATM    6  H   UNL     1      -9.301  16.054  64.626  1.00  0.00     0.000 HD 
HETATM    7  C   UNL     1      -9.975  16.365  68.455  1.00  0.00    -0.238 C  
HETATM    8  C   UNL     1      -8.787  18.377  67.816  1.00  0.00    -0.289 C  
HETATM    9  C   UNL     1      -6.723  17.979  69.203  1.00  0.00    -0.249 C  
HETATM   10  C   UNL     1      -8.662  16.361  69.247  1.00  0.00    -0.108 C  
HETATM   11  C   UNL     1      -7.938  17.597  68.779  1.00  0.00    -0.244 C  
ENDROOT
BRANCH   4  12
HETATM   12  C   UNL     1     -10.659  14.269  67.269  1.00  0.00    -0.278 C  
HETATM   13  C   UNL     1     -11.399  13.746  66.278  1.00  0.00    -0.329 C  
BRANCH  13  14
HETATM   14  C   UNL     1     -12.000  12.375  66.302  1.00  0.00    -0.298 C  
HETATM   15  O   UNL     1     -12.861  12.263  65.175  1.00  0.00    -0.522 OA 
HETATM   16  C   UNL     1     -10.930  11.255  66.264  1.00  0.00    -0.265 C  
HETATM   17  H   UNL     1     -13.242  11.393  65.190  1.00  0.00     0.000 HD 
HETATM   18  C   UNL     1     -10.004  11.293  67.497  1.00  0.00    -0.203 C  
HETATM   19  C   UNL     1     -10.090  11.281  64.980  1.00  0.00    -0.331 C  
BRANCH  18  20
HETATM   20  C   UNL     1     -10.811  11.080  68.767  1.00  0.00    -0.253 C  
HETATM   21  C   UNL     1     -11.503  10.895  69.857  1.00  0.00    -0.402 C  
HETATM   22  C   UNL     1     -12.309  10.681  71.128  1.00  0.00    -0.505 C  
ENDBRANCH  18  20
ENDBRANCH  13  14
ENDBRANCH   4  12
BRANCH   9  23
HETATM   23  C   UNL     1      -6.035  19.240  68.754  1.00  0.00    -0.241 C  
BRANCH  23  24
HETATM   24  C   UNL     1      -5.129  19.015  67.540  1.00  0.00    -0.162 C  
BRANCH  24  25
HETATM   25  C   UNL     1      -5.607  19.771  66.301  1.00  0.00    -0.173 C  
HETATM   26  C   UNL     1      -5.915  18.839  65.155  1.00  0.00    -0.269 C  
HETATM   27  O   UNL     1      -5.809  17.624  65.176  1.00  0.00     0.104 OA 
HETATM   28  O   UNL     1      -6.335  19.511  64.057  1.00  0.00    -0.364 OA 
ENDBRANCH  24  25
ENDBRANCH  23  24
ENDBRANCH   9  23
TORSDOF 6
ENDMDL
MODEL      143
REMARK 921   NORMALIZED FREE ENERGY PREDICTED BY IDOCK:   -4.22 KCAL/MOL
REMARK 922        TOTAL FREE ENERGY PREDICTED BY IDOCK:   -7.04 KCAL/MOL
REMARK 923 INTER-LIGAND FREE ENERGY PREDICTED BY IDOCK:   -6.10 KCAL/MOL
REMARK 924 INTRA-LIGAND FREE ENERGY PREDICTED BY IDOCK:   -0.95 KCAL/MOL
REMARK 927      BINDING AFFINITY PREDICTED BY RF-SCORE:    0.00 PKD
ROOT
HETATM    1  C   UNL     1     -10.895  12.696  66.472  1.00  0.00    -0.285 C  
HETATM    2  C   UNL     1     -11.204  11.767  65.308  1.00  0.00    -0.315 C  
HETATM    3  C   UNL     1      -9.859  11.153  64.918  1.00  0.00    -0.266 C  
HETATM    4  C   UNL     1      -8.954  11.254  66.164  1.00  0.00    -0.210 C  
HETATM    5  O   UNL     1      -9.264  11.901  63.857  1.00  0.00    -0.467 OA 
HETATM    6  H   UNL     1      -8.428  11.519  63.615  1.00  0.00     0.000 HD 
HETATM    7  C   UNL     1      -9.781  11.992  67.242  1.00  0.00    -0.190 C  
HETATM    8  C   UNL     1     -10.305  14.039  66.058  1.00  0.00    -0.312 C  
HETATM    9  C   UNL     1      -8.868  15.579  67.440  1.00  0.00    -0.203 C  
HETATM   10  C   UNL     1      -9.030  13.113  67.968  1.00  0.00    -0.195 C  
HETATM   11  C   UNL     1      -9.342  14.352  67.168  1.00  0.00    -0.226 C  
ENDROOT
BRANCH   4  12
HETATM   12  C   UNL     1      -8.537   9.895  66.676  1.00  0.00    -0.130 C  
HETATM   13  C   UNL     1      -8.602   9.568  67.976  1.00  0.00    -0.120 C  
BRANCH  13  14
HETATM   14  C   UNL     1      -8.371   8.191  68.517  1.00  0.00    -0.126 C  
HETATM   15  O   UNL     1      -7.858   7.392  67.456  1.00  0.00    -0.108 OA 
HETATM   16  C   UNL     1      -7.386   8.178  69.712  1.00  0.00    -0.065 C  
HETATM   17  H   UNL     1      -7.711   6.519  67.799  1.00  0.00     0.000 HD 
HETATM   18  C   UNL     1      -7.921   8.981  70.915  1.00  0.00    -0.194 C  
HETATM   19  C   UNL     1      -5.985   8.679  69.333  1.00  0.00    -0.040 C  
BRANCH  18  20
HETATM   20  C   UNL     1      -9.220   8.374  71.417  1.00  0.00    -0.242 C  
HETATM   21  C   UNL     1     -10.335   7.851  71.848  1.00  0.00    -0.271 C  
HETATM   22  C   UNL     1     -11.634   7.243  72.351  1.00  0.00    -0.307 C  
ENDBRANCH  18  20
ENDBRANCH  13  14
ENDBRANCH   4  12
BRANCH   9  23
HETATM   23  C   UNL     1      -9.225  16.811  66.653  1.00  0.00    -0.279 C  
BRANCH  23  24
HETATM   24  C   UNL     1     -10.216  17.714  67.392  1.00  0.00    -0.345 C  
BRANCH  24  25
HETATM   25  C   UNL     1     -10.144  17.550  68.908  1.00  0.00    -0.346 C  
HETATM   26  C   UNL     1     -11.166  16.563  69.419  1.00  0.00    -0.188 C  
HETATM   27  O   UNL     1     -11.969  15.950  68.734  1.00  0.00    -0.368 OA 
HETATM   28  O   UNL     1     -11.103  16.421  70.764  1.00  0.00    -0.296 OA 
ENDBRANCH  24  25
ENDBRANCH  23  24
ENDBRANCH   9  23
TORSDOF 6
ENDMDL
MODEL      144
REMARK 921   NORMALIZED FREE ENERGY PREDICTED BY IDOCK:   -4.22 KCAL/MOL
REMARK 922        TOTAL FREE ENERGY PREDICTED BY IDOCK:   -7.04 KCAL/MOL
REMARK 923 INTER-LIGAND FREE ENERGY PREDICTED BY IDOCK:   -5.91 KCAL/MOL
REMARK 924 INTRA-LIGAND FREE ENERGY PREDICTED BY IDOCK:   -1.13 KCAL/MOL
REMARK 927      BINDING AFFINITY PREDICTED BY RF-SCORE:    0.00 PKD
ROOT
HETATM    1  C   UNL     1      -9.170   9.241  65.716  1.00  0.00    -0.283 C  
HETATM    2  C   UNL     1      -7.892   8.417  65.725  1.00  0.00    -0.101 C  
HETATM    3  C   UNL     1      -7.642   8.082  67.196  1.00  0.00    -0.097 C  
HETATM    4  C   UNL     1      -9.008   8.183  67.906  1.00  0.00    -0.133 C  
HETATM    5  O   UNL     1      -6.752   9.037  67.775  1.00  0.00    -0.064 OA 
HETATM    6  H   UNL     1      -6.596   8.828  68.689  1.00  0.00     0.000 HD 
HETATM    7  C   UNL     1     -10.022   8.645  66.833  1.00  0.00    -0.330 C  
HETATM    8  C   UNL     1      -8.972  10.702  66.104  1.00  0.00    -0.184 C  
HETATM    9  C   UNL     1     -10.683  12.285  67.060  1.00  0.00    -0.263 C  
HETATM   10  C   UNL     1     -10.950   9.782  67.276  1.00  0.00    -0.142 C  
HETATM   11  C   UNL     1     -10.233  11.038  66.850  1.00  0.00    -0.263 C  
ENDROOT
BRANCH   4  12
HETATM   12  C   UNL     1      -9.444   6.861  68.493  1.00  0.00    -0.133 C  
HETATM   13  C   UNL     1      -9.123   5.687  67.928  1.00  0.00    -0.107 C  
BRANCH  13  14
HETATM   14  C   UNL     1      -9.374   4.349  68.553  1.00  0.00    -0.145 C  
HETATM   15  O   UNL     1      -9.663   3.431  67.505  1.00  0.00    -0.269 OA 
HETATM   16  C   UNL     1      -8.167   3.842  69.381  1.00  0.00    -0.069 C  
HETATM   17  H   UNL     1      -9.823   2.583  67.901  1.00  0.00     0.000 HD 
HETATM   18  C   UNL     1      -7.846   4.771  70.570  1.00  0.00    -0.062 C  
HETATM   19  C   UNL     1      -6.907   3.634  68.528  1.00  0.00    -0.046 C  
BRANCH  18  20
HETATM   20  C   UNL     1      -9.029   4.834  71.522  1.00  0.00    -0.162 C  
HETATM   21  C   UNL     1     -10.043   4.888  72.340  1.00  0.00    -0.240 C  
HETATM   22  C   UNL     1     -11.225   4.952  73.294  1.00  0.00    -0.423 C  
ENDBRANCH  18  20
ENDBRANCH  13  14
ENDBRANCH   4  12
BRANCH   9  23
HETATM   23  C   UNL     1      -9.972  13.525  66.589  1.00  0.00    -0.282 C  
BRANCH  23  24
HETATM   24  C   UNL     1     -10.642  14.159  65.367  1.00  0.00    -0.358 C  
BRANCH  24  25
HETATM   25  C   UNL     1     -11.839  13.353  64.869  1.00  0.00    -0.403 C  
HETATM   26  C   UNL     1     -11.485  12.490  63.682  1.00  0.00    -0.493 C  
HETATM   27  O   UNL     1     -10.385  12.416  63.158  1.00  0.00    -0.302 OA 
HETATM   28  O   UNL     1     -12.548  11.779  63.239  1.00  0.00    -0.561 OA 
ENDBRANCH  24  25
ENDBRANCH  23  24
ENDBRANCH   9  23
TORSDOF 6
ENDMDL
MODEL      145
REMARK 921   NORMALIZED FREE ENERGY PREDICTED BY IDOCK:   -4.13 KCAL/MOL
REMARK 922        TOTAL FREE ENERGY PREDICTED BY IDOCK:   -6.92 KCAL/MOL
REMARK 923 INTER-LIGAND FREE ENERGY PREDICTED BY IDOCK:   -5.93 KCAL/MOL
REMARK 924 INTRA-LIGAND FREE ENERGY PREDICTED BY IDOCK:   -0.99 KCAL/MOL
REMARK 927      BINDING AFFINITY PREDICTED BY RF-SCORE:    0.00 PKD
ROOT
HETATM    1  C   UNL     1      -8.604   8.531  65.522  1.00  0.00    -0.204 C  
HETATM    2  C   UNL     1      -7.195   7.970  65.635  1.00  0.00    -0.071 C  
HETATM    3  C   UNL     1      -7.020   7.617  67.113  1.00  0.00    -0.080 C  
HETATM    4  C   UNL     1      -8.440   7.417  67.685  1.00  0.00    -0.120 C  
HETATM    5  O   UNL     1      -6.394   8.697  67.807  1.00  0.00    -0.055 OA 
HETATM    6  H   UNL     1      -6.286   8.478  68.725  1.00  0.00     0.000 HD 
HETATM    7  C   UNL     1      -9.421   7.726  66.530  1.00  0.00    -0.262 C  
HETATM    8  C   UNL     1      -8.735   9.981  65.972  1.00  0.00    -0.152 C  
HETATM    9  C   UNL     1     -10.806  11.153  66.799  1.00  0.00    -0.322 C  
HETATM   10  C   UNL     1     -10.592   8.639  66.911  1.00  0.00    -0.270 C  
HETATM   11  C   UNL     1     -10.101  10.029  66.598  1.00  0.00    -0.289 C  
ENDROOT
BRANCH   4  12
HETATM   12  C   UNL     1      -8.659   6.008  68.184  1.00  0.00    -0.114 C  
HETATM   13  C   UNL     1      -8.783   4.964  67.350  1.00  0.00    -0.103 C  
BRANCH  13  14
HETATM   14  C   UNL     1      -8.826   3.532  67.785  1.00  0.00    -0.121 C  
HETATM   15  O   UNL     1      -9.776   2.861  66.966  1.00  0.00    -0.407 OA 
HETATM   16  C   UNL     1      -7.447   2.835  67.674  1.00  0.00    -0.057 C  
HETATM   17  H   UNL     1      -9.803   1.952  67.242  1.00  0.00     0.000 HD 
HETATM   18  C   UNL     1      -6.390   3.487  68.589  1.00  0.00    -0.033 C  
HETATM   19  C   UNL     1      -6.924   2.780  66.231  1.00  0.00    -0.052 C  
BRANCH  18  20
HETATM   20  C   UNL     1      -6.815   3.378  70.044  1.00  0.00    -0.034 C  
HETATM   21  C   UNL     1      -7.180   3.283  71.293  1.00  0.00    -0.033 C  
HETATM   22  C   UNL     1      -7.606   3.172  72.748  1.00  0.00    -0.051 C  
ENDBRANCH  18  20
ENDBRANCH  13  14
ENDBRANCH   4  12
BRANCH   9  23
HETATM   23  C   UNL     1     -10.313  12.529  66.440  1.00  0.00    -0.261 C  
BRANCH  23  24
HETATM   24  C   UNL     1     -11.105  13.156  65.289  1.00  0.00    -0.304 C  
BRANCH  24  25
HETATM   25  C   UNL     1     -10.725  14.614  65.038  1.00  0.00    -0.448 C  
HETATM   26  C   UNL     1     -11.787  15.348  64.256  1.00  0.00    -0.199 C  
HETATM   27  O   UNL     1     -12.836  14.869  63.856  1.00  0.00    -0.697 OA 
HETATM   28  O   UNL     1     -11.448  16.639  64.031  1.00  0.00    -1.192 OA 
ENDBRANCH  24  25
ENDBRANCH  23  24
ENDBRANCH   9  23
TORSDOF 6
ENDMDL
MODEL      146
REMARK 921   NORMALIZED FREE ENERGY PREDICTED BY IDOCK:   -4.11 KCAL/MOL
REMARK 922        TOTAL FREE ENERGY PREDICTED BY IDOCK:   -6.90 KCAL/MOL
REMARK 923 INTER-LIGAND FREE ENERGY PREDICTED BY IDOCK:   -5.97 KCAL/MOL
REMARK 924 INTRA-LIGAND FREE ENERGY PREDICTED BY IDOCK:   -0.93 KCAL/MOL
REMARK 927      BINDING AFFINITY PREDICTED BY RF-SCORE:    0.00 PKD
ROOT
HETATM    1  C   UNL     1      -6.404  11.644  67.746  1.00  0.00    -0.067 C  
HETATM    2  C   UNL     1      -5.328  11.286  68.759  1.00  0.00    -0.039 C  
HETATM    3  C   UNL     1      -6.085  10.911  70.034  1.00  0.00    -0.121 C  
HETATM    4  C   UNL     1      -7.503  10.491  69.591  1.00  0.00    -0.145 C  
HETATM    5  O   UNL     1      -6.191  12.044  70.897  1.00  0.00    -0.521 OA 
HETATM    6  H   UNL     1      -6.662  11.810  71.688  1.00  0.00     0.000 HD 
HETATM    7  C   UNL     1      -7.559  10.697  68.059  1.00  0.00    -0.091 C  
HETATM    8  C   UNL     1      -6.981  13.045  67.918  1.00  0.00    -0.127 C  
HETATM    9  C   UNL     1      -9.238  13.880  67.173  1.00  0.00    -0.242 C  
HETATM   10  C   UNL     1      -8.813  11.419  67.556  1.00  0.00    -0.146 C  
HETATM   11  C   UNL     1      -8.424  12.876  67.536  1.00  0.00    -0.186 C  
ENDROOT
BRANCH   4  12
HETATM   12  C   UNL     1      -7.801   9.048  69.928  1.00  0.00    -0.090 C  
HETATM   13  C   UNL     1      -8.647   8.702  70.911  1.00  0.00    -0.204 C  
BRANCH  13  14
HETATM   14  C   UNL     1      -9.113   7.304  71.175  1.00  0.00    -0.152 C  
HETATM   15  O   UNL     1      -8.404   6.820  72.309  1.00  0.00    -0.107 OA 
HETATM   16  C   UNL     1     -10.639   7.224  71.431  1.00  0.00    -0.229 C  
HETATM   17  H   UNL     1      -8.700   5.933  72.477  1.00  0.00     0.000 HD 
HETATM   18  C   UNL     1     -11.460   7.681  70.208  1.00  0.00    -0.144 C  
HETATM   19  C   UNL     1     -11.074   8.012  72.675  1.00  0.00    -0.453 C  
BRANCH  18  20
HETATM   20  C   UNL     1     -11.172   6.783  69.016  1.00  0.00    -0.214 C  
HETATM   21  C   UNL     1     -10.924   6.013  67.993  1.00  0.00    -0.340 C  
HETATM   22  C   UNL     1     -10.635   5.114  66.802  1.00  0.00    -0.266 C  
ENDBRANCH  18  20
ENDBRANCH  13  14
ENDBRANCH   4  12
BRANCH   9  23
HETATM   23  C   UNL     1      -8.816  15.324  67.120  1.00  0.00    -0.232 C  
BRANCH  23  24
HETATM   24  C   UNL     1      -9.853  16.214  66.429  1.00  0.00    -0.304 C  
BRANCH  24  25
HETATM   25  C   UNL     1     -10.393  17.309  67.347  1.00  0.00    -0.338 C  
HETATM   26  C   UNL     1     -10.027  18.689  66.856  1.00  0.00    -0.345 C  
HETATM   27  O   UNL     1      -9.381  18.940  65.852  1.00  0.00    -0.454 OA 
HETATM   28  O   UNL     1     -10.503  19.658  67.672  1.00  0.00    -0.418 OA 
ENDBRANCH  24  25
ENDBRANCH  23  24
ENDBRANCH   9  23
TORSDOF 6
ENDMDL
MODEL      147
REMARK 921   NORMALIZED FREE ENERGY PREDICTED BY IDOCK:   -4.11 KCAL/MOL
REMARK 922        TOTAL FREE ENERGY PREDICTED BY IDOCK:   -6.90 KCAL/MOL
REMARK 923 INTER-LIGAND FREE ENERGY PREDICTED BY IDOCK:   -6.07 KCAL/MOL
REMARK 924 INTRA-LIGAND FREE ENERGY PREDICTED BY IDOCK:   -0.83 KCAL/MOL
REMARK 927      BINDING AFFINITY PREDICTED BY RF-SCORE:    0.00 PKD
ROOT
HETATM    1  C   UNL     1      -8.234   7.882  68.871  1.00  0.00    -0.126 C  
HETATM    2  C   UNL     1      -8.179   7.909  67.352  1.00  0.00    -0.123 C  
HETATM    3  C   UNL     1      -9.325   8.827  66.925  1.00  0.00    -0.167 C  
HETATM    4  C   UNL     1      -9.621   9.745  68.130  1.00  0.00    -0.158 C  
HETATM    5  O   UNL     1     -10.493   8.058  66.636  1.00  0.00    -0.419 OA 
HETATM    6  H   UNL     1     -11.204   8.630  66.370  1.00  0.00     0.000 HD 
HETATM    7  C   UNL     1      -8.675   9.290  69.266  1.00  0.00    -0.141 C  
HETATM    8  C   UNL     1      -9.303   6.957  69.441  1.00  0.00    -0.146 C  
HETATM    9  C   UNL     1     -10.419   7.099  71.695  1.00  0.00    -0.218 C  
HETATM   10  C   UNL     1      -9.349   9.126  70.633  1.00  0.00    -0.312 C  
HETATM   11  C   UNL     1      -9.768   7.679  70.674  1.00  0.00    -0.174 C  
ENDROOT
BRANCH   4  12
HETATM   12  C   UNL     1      -9.378  11.201  67.810  1.00  0.00    -0.166 C  
HETATM   13  C   UNL     1     -10.024  12.192  68.445  1.00  0.00    -0.206 C  
BRANCH  13  14
HETATM   14  C   UNL     1      -9.701  13.646  68.297  1.00  0.00    -0.231 C  
HETATM   15  O   UNL     1      -8.458  13.744  67.611  1.00  0.00    -0.157 OA 
HETATM   16  C   UNL     1     -10.795  14.423  67.522  1.00  0.00    -0.285 C  
HETATM   17  H   UNL     1      -8.254  14.666  67.517  1.00  0.00     0.000 HD 
HETATM   18  C   UNL     1     -12.153  14.401  68.253  1.00  0.00    -0.260 C  
HETATM   19  C   UNL     1     -10.971  13.923  66.081  1.00  0.00    -0.293 C  
BRANCH  18  20
HETATM   20  C   UNL     1     -12.029  15.067  69.613  1.00  0.00    -0.356 C  
HETATM   21  C   UNL     1     -11.921  15.639  70.781  1.00  0.00    -0.438 C  
HETATM   22  C   UNL     1     -11.796  16.305  72.141  1.00  0.00    -0.585 C  
ENDBRANCH  18  20
ENDBRANCH  13  14
ENDBRANCH   4  12
BRANCH   9  23
HETATM   23  C   UNL     1     -10.791   5.641  71.733  1.00  0.00    -0.301 C  
BRANCH  23  24
HETATM   24  C   UNL     1     -10.787   5.071  73.154  1.00  0.00    -0.347 C  
BRANCH  24  25
HETATM   25  C   UNL     1     -11.755   3.901  73.321  1.00  0.00     0.024 C  
HETATM   26  C   UNL     1     -11.034   2.576  73.378  1.00  0.00    -0.193 C  
HETATM   27  O   UNL     1      -9.826   2.418  73.304  1.00  0.00    -0.094 OA 
HETATM   28  O   UNL     1     -11.893   1.540  73.523  1.00  0.00    -0.193 OA 
ENDBRANCH  24  25
ENDBRANCH  23  24
ENDBRANCH   9  23
TORSDOF 6
ENDMDL
MODEL      148
REMARK 921   NORMALIZED FREE ENERGY PREDICTED BY IDOCK:   -4.11 KCAL/MOL
REMARK 922        TOTAL FREE ENERGY PREDICTED BY IDOCK:   -6.90 KCAL/MOL
REMARK 923 INTER-LIGAND FREE ENERGY PREDICTED BY IDOCK:   -5.94 KCAL/MOL
REMARK 924 INTRA-LIGAND FREE ENERGY PREDICTED BY IDOCK:   -0.96 KCAL/MOL
REMARK 927      BINDING AFFINITY PREDICTED BY RF-SCORE:    0.00 PKD
ROOT
HETATM    1  C   UNL     1      -8.485   9.581  66.540  1.00  0.00    -0.130 C  
HETATM    2  C   UNL     1      -8.436  10.581  65.396  1.00  0.00    -0.173 C  
HETATM    3  C   UNL     1      -9.583  11.556  65.666  1.00  0.00    -0.231 C  
HETATM    4  C   UNL     1      -9.874  11.479  67.180  1.00  0.00    -0.210 C  
HETATM    5  O   UNL     1     -10.753  11.152  64.953  1.00  0.00    -0.302 OA 
HETATM    6  H   UNL     1     -11.465  11.758  65.121  1.00  0.00     0.000 HD 
HETATM    7  C   UNL     1      -8.924  10.401  67.751  1.00  0.00    -0.131 C  
HETATM    8  C   UNL     1      -9.552   8.504  66.382  1.00  0.00    -0.314 C  
HETATM    9  C   UNL     1     -10.659   7.156  68.200  1.00  0.00    -0.241 C  
HETATM   10  C   UNL     1      -9.591   9.392  68.692  1.00  0.00    -0.152 C  
HETATM   11  C   UNL     1     -10.011   8.259  67.791  1.00  0.00    -0.235 C  
ENDROOT
BRANCH   4  12
HETATM   12  C   UNL     1      -9.632  12.799  67.874  1.00  0.00    -0.211 C  
HETATM   13  C   UNL     1      -9.172  13.878  67.221  1.00  0.00    -0.235 C  
BRANCH  13  14
HETATM   14  C   UNL     1      -9.080  15.251  67.812  1.00  0.00    -0.182 C  
HETATM   15  O   UNL     1      -7.842  15.816  67.395  1.00  0.00    -0.145 OA 
HETATM   16  C   UNL     1     -10.252  16.166  67.378  1.00  0.00    -0.272 C  
HETATM   17  H   UNL     1      -7.784  16.687  67.770  1.00  0.00     0.000 HD 
HETATM   18  C   UNL     1     -11.617  15.630  67.857  1.00  0.00    -0.195 C  
HETATM   19  C   UNL     1     -10.289  16.405  65.862  1.00  0.00    -0.378 C  
BRANCH  18  20
HETATM   20  C   UNL     1     -11.654  15.567  69.375  1.00  0.00    -0.366 C  
HETATM   21  C   UNL     1     -11.687  15.513  70.678  1.00  0.00    -0.389 C  
HETATM   22  C   UNL     1     -11.726  15.449  72.196  1.00  0.00    -0.551 C  
ENDBRANCH  18  20
ENDBRANCH  13  14
ENDBRANCH   4  12
BRANCH   9  23
HETATM   23  C   UNL     1     -11.031   6.016  67.290  1.00  0.00    -0.356 C  
BRANCH  23  24
HETATM   24  C   UNL     1      -9.812   5.226  66.808  1.00  0.00    -0.195 C  
BRANCH  24  25
HETATM   25  C   UNL     1      -8.972   4.679  67.960  1.00  0.00    -0.131 C  
HETATM   26  C   UNL     1      -8.134   3.497  67.537  1.00  0.00    -0.081 C  
HETATM   27  O   UNL     1      -8.104   3.009  66.419  1.00  0.00    -0.083 OA 
HETATM   28  O   UNL     1      -7.393   3.011  68.561  1.00  0.00    -0.049 OA 
ENDBRANCH  24  25
ENDBRANCH  23  24
ENDBRANCH   9  23
TORSDOF 6
ENDMDL
MODEL      149
REMARK 921   NORMALIZED FREE ENERGY PREDICTED BY IDOCK:   -4.10 KCAL/MOL
REMARK 922        TOTAL FREE ENERGY PREDICTED BY IDOCK:   -6.89 KCAL/MOL
REMARK 923 INTER-LIGAND FREE ENERGY PREDICTED BY IDOCK:   -5.53 KCAL/MOL
REMARK 924 INTRA-LIGAND FREE ENERGY PREDICTED BY IDOCK:   -1.36 KCAL/MOL
REMARK 927      BINDING AFFINITY PREDICTED BY RF-SCORE:    0.00 PKD
ROOT
HETATM    1  C   UNL     1     -10.661   8.291  68.225  1.00  0.00    -0.157 C  
HETATM    2  C   UNL     1      -9.691   7.327  67.561  1.00  0.00    -0.181 C  
HETATM    3  C   UNL     1      -8.314   7.699  68.113  1.00  0.00    -0.124 C  
HETATM    4  C   UNL     1      -8.561   8.415  69.457  1.00  0.00    -0.129 C  
HETATM    5  O   UNL     1      -7.655   8.603  67.225  1.00  0.00    -0.091 OA 
HETATM    6  H   UNL     1      -6.800   8.835  67.568  1.00  0.00     0.000 HD 
HETATM    7  C   UNL     1     -10.095   8.502  69.628  1.00  0.00    -0.202 C  
HETATM    8  C   UNL     1     -10.689   9.680  67.596  1.00  0.00    -0.324 C  
HETATM    9  C   UNL     1     -11.383  11.846  68.678  1.00  0.00    -0.331 C  
HETATM   10  C   UNL     1     -10.614   9.878  70.062  1.00  0.00    -0.335 C  
HETATM   11  C   UNL     1     -10.918  10.589  68.769  1.00  0.00    -0.296 C  
ENDROOT
BRANCH   4  12
HETATM   12  C   UNL     1      -7.955   7.666  70.621  1.00  0.00    -0.099 C  
HETATM   13  C   UNL     1      -8.707   7.019  71.525  1.00  0.00    -0.121 C  
BRANCH  13  14
HETATM   14  C   UNL     1      -8.163   6.119  72.592  1.00  0.00    -0.107 C  
HETATM   15  O   UNL     1      -6.745   6.235  72.572  1.00  0.00    -0.066 OA 
HETATM   16  C   UNL     1      -8.703   6.471  74.000  1.00  0.00    -0.151 C  
HETATM   17  H   UNL     1      -6.400   5.664  73.248  1.00  0.00     0.000 HD 
HETATM   18  C   UNL     1     -10.233   6.304  74.096  1.00  0.00    -0.338 C  
HETATM   19  C   UNL     1      -8.304   7.883  74.453  1.00  0.00    -0.271 C  
BRANCH  18  20
HETATM   20  C   UNL     1     -10.622   4.858  73.831  1.00  0.00    -0.342 C  
HETATM   21  C   UNL     1     -10.955   3.618  73.606  1.00  0.00    -0.333 C  
HETATM   22  C   UNL     1     -11.343   2.172  73.343  1.00  0.00    -0.288 C  
ENDBRANCH  18  20
ENDBRANCH  13  14
ENDBRANCH   4  12
BRANCH   9  23
HETATM   23  C   UNL     1     -11.720  12.524  67.377  1.00  0.00    -0.432 C  
BRANCH  23  24
HETATM   24  C   UNL     1     -10.590  13.425  66.873  1.00  0.00    -0.273 C  
BRANCH  24  25
HETATM   25  C   UNL     1      -9.473  12.641  66.186  1.00  0.00    -0.177 C  
HETATM   26  C   UNL     1      -8.273  12.465  67.084  1.00  0.00    -0.176 C  
HETATM   27  O   UNL     1      -8.170  12.882  68.226  1.00  0.00    -0.150 OA 
HETATM   28  O   UNL     1      -7.283  11.773  66.473  1.00  0.00    -0.038 OA 
ENDBRANCH  24  25
ENDBRANCH  23  24
ENDBRANCH   9  23
TORSDOF 6
ENDMDL
MODEL      150
REMARK 921   NORMALIZED FREE ENERGY PREDICTED BY IDOCK:   -4.09 KCAL/MOL
REMARK 922        TOTAL FREE ENERGY PREDICTED BY IDOCK:   -6.88 KCAL/MOL
REMARK 923 INTER-LIGAND FREE ENERGY PREDICTED BY IDOCK:   -5.78 KCAL/MOL
REMARK 924 INTRA-LIGAND FREE ENERGY PREDICTED BY IDOCK:   -1.10 KCAL/MOL
REMARK 927      BINDING AFFINITY PREDICTED BY RF-SCORE:    0.00 PKD
ROOT
HETATM    1  C   UNL     1      -6.292  16.468  69.092  1.00  0.00    -0.185 C  
HETATM    2  C   UNL     1      -6.897  15.582  70.170  1.00  0.00     0.070 C  
HETATM    3  C   UNL     1      -7.964  14.753  69.455  1.00  0.00    -0.065 C  
HETATM    4  C   UNL     1      -7.571  14.726  67.963  1.00  0.00    -0.130 C  
HETATM    5  O   UNL     1      -9.242  15.378  69.581  1.00  0.00    -0.326 OA 
HETATM    6  H   UNL     1      -9.905  14.862  69.137  1.00  0.00     0.000 HD 
HETATM    7  C   UNL     1      -6.305  15.606  67.832  1.00  0.00    -0.165 C  
HETATM    8  C   UNL     1      -7.133  17.691  68.745  1.00  0.00    -0.263 C  
HETATM    9  C   UNL     1      -7.129  19.001  66.594  1.00  0.00    -0.223 C  
HETATM   10  C   UNL     1      -6.337  16.604  66.669  1.00  0.00    -0.071 C  
HETATM   11  C   UNL     1      -6.906  17.863  67.270  1.00  0.00    -0.196 C  
ENDROOT
BRANCH   4  12
HETATM   12  C   UNL     1      -7.278  13.327  67.476  1.00  0.00    -0.157 C  
HETATM   13  C   UNL     1      -7.690  12.236  68.141  1.00  0.00    -0.138 C  
BRANCH  13  14
HETATM   14  C   UNL     1      -7.584  10.836  67.621  1.00  0.00    -0.096 C  
HETATM   15  O   UNL     1      -6.417  10.253  68.190  1.00  0.00    -0.056 OA 
HETATM   16  C   UNL     1      -8.826   9.977  67.966  1.00  0.00    -0.125 C  
HETATM   17  H   UNL     1      -6.350   9.364  67.860  1.00  0.00     0.000 HD 
HETATM   18  C   UNL     1     -10.114  10.531  67.323  1.00  0.00    -0.242 C  
HETATM   19  C   UNL     1      -9.030   9.808  69.478  1.00  0.00    -0.215 C  
BRANCH  18  20
HETATM   20  C   UNL     1      -9.990  10.526  65.808  1.00  0.00    -0.318 C  
HETATM   21  C   UNL     1      -9.882  10.521  64.508  1.00  0.00    -0.401 C  
HETATM   22  C   UNL     1      -9.757  10.515  62.994  1.00  0.00    -0.337 C  
ENDBRANCH  18  20
ENDBRANCH  13  14
ENDBRANCH   4  12
BRANCH   9  23
HETATM   23  C   UNL     1      -7.659  20.262  67.223  1.00  0.00    -0.348 C  
BRANCH  23  24
HETATM   24  C   UNL     1      -9.128  20.520  66.874  1.00  0.00    -0.364 C  
BRANCH  24  25
HETATM   25  C   UNL     1      -9.938  19.232  66.745  1.00  0.00    -0.446 C  
HETATM   26  C   UNL     1     -10.374  18.702  68.089  1.00  0.00    -0.359 C  
HETATM   27  O   UNL     1     -10.130  19.214  69.170  1.00  0.00    -0.383 OA 
HETATM   28  O   UNL     1     -11.089  17.558  67.974  1.00  0.00    -0.241 OA 
ENDBRANCH  24  25
ENDBRANCH  23  24
ENDBRANCH   9  23
TORSDOF 6
ENDMDL
MODEL      151
REMARK 921   NORMALIZED FREE ENERGY PREDICTED BY IDOCK:   -4.09 KCAL/MOL
REMARK 922        TOTAL FREE ENERGY PREDICTED BY IDOCK:   -6.87 KCAL/MOL
REMARK 923 INTER-LIGAND FREE ENERGY PREDICTED BY IDOCK:   -5.90 KCAL/MOL
REMARK 924 INTRA-LIGAND FREE ENERGY PREDICTED BY IDOCK:   -0.97 KCAL/MOL
REMARK 927      BINDING AFFINITY PREDICTED BY RF-SCORE:    0.00 PKD
ROOT
HETATM    1  C   UNL     1     -11.320  14.469  66.607  1.00  0.00    -0.359 C  
HETATM    2  C   UNL     1     -11.902  13.509  65.582  1.00  0.00    -0.397 C  
HETATM    3  C   UNL     1     -10.716  12.674  65.095  1.00  0.00    -0.292 C  
HETATM    4  C   UNL     1      -9.651  12.737  66.210  1.00  0.00    -0.242 C  
HETATM    5  O   UNL     1     -10.168  13.243  63.905  1.00  0.00    -0.707 OA 
HETATM    6  H   UNL     1      -9.432  12.724  63.603  1.00  0.00     0.000 HD 
HETATM    7  C   UNL     1     -10.222  13.670  67.304  1.00  0.00    -0.246 C  
HETATM    8  C   UNL     1     -10.611  15.674  66.000  1.00  0.00    -0.336 C  
HETATM    9  C   UNL     1      -8.809  17.087  67.049  1.00  0.00    -0.242 C  
HETATM   10  C   UNL     1      -9.236  14.721  67.825  1.00  0.00    -0.194 C  
HETATM   11  C   UNL     1      -9.477  15.927  66.953  1.00  0.00    -0.242 C  
ENDROOT
BRANCH   4  12
HETATM   12  C   UNL     1      -9.360  11.375  66.796  1.00  0.00    -0.192 C  
HETATM   13  C   UNL     1      -9.601  10.239  66.122  1.00  0.00    -0.248 C  
BRANCH  13  14
HETATM   14  C   UNL     1      -9.174   8.877  66.576  1.00  0.00    -0.183 C  
HETATM   15  O   UNL     1     -10.204   7.962  66.221  1.00  0.00    -0.479 OA 
HETATM   16  C   UNL     1      -7.831   8.433  65.944  1.00  0.00    -0.095 C  
HETATM   17  H   UNL     1      -9.932   7.099  66.509  1.00  0.00     0.000 HD 
HETATM   18  C   UNL     1      -6.664   9.359  66.346  1.00  0.00    -0.075 C  
HETATM   19  C   UNL     1      -7.903   8.320  64.415  1.00  0.00    -0.135 C  
BRANCH  18  20
HETATM   20  C   UNL     1      -6.465   9.331  67.853  1.00  0.00    -0.059 C  
HETATM   21  C   UNL     1      -6.295   9.305  69.145  1.00  0.00    -0.042 C  
HETATM   22  C   UNL     1      -6.097   9.276  70.652  1.00  0.00    -0.056 C  
ENDBRANCH  18  20
ENDBRANCH  13  14
ENDBRANCH   4  12
BRANCH   9  23
HETATM   23  C   UNL     1      -9.094  18.294  66.196  1.00  0.00    -0.122 C  
BRANCH  23  24
HETATM   24  C   UNL     1      -8.102  19.434  66.439  1.00  0.00    -0.329 C  
BRANCH  24  25
HETATM   25  C   UNL     1      -6.694  19.104  65.948  1.00  0.00    -0.280 C  
HETATM   26  C   UNL     1      -6.392  19.756  64.620  1.00  0.00    -0.217 C  
HETATM   27  O   UNL     1      -7.153  20.469  63.987  1.00  0.00     0.030 OA 
HETATM   28  O   UNL     1      -5.145  19.460  64.184  1.00  0.00    -0.156 OA 
ENDBRANCH  24  25
ENDBRANCH  23  24
ENDBRANCH   9  23
TORSDOF 6
ENDMDL
MODEL      152
REMARK 921   NORMALIZED FREE ENERGY PREDICTED BY IDOCK:   -4.07 KCAL/MOL
REMARK 922        TOTAL FREE ENERGY PREDICTED BY IDOCK:   -6.85 KCAL/MOL
REMARK 923 INTER-LIGAND FREE ENERGY PREDICTED BY IDOCK:   -5.56 KCAL/MOL
REMARK 924 INTRA-LIGAND FREE ENERGY PREDICTED BY IDOCK:   -1.29 KCAL/MOL
REMARK 927      BINDING AFFINITY PREDICTED BY RF-SCORE:    0.00 PKD
ROOT
HETATM    1  C   UNL     1     -11.465   7.276  70.091  1.00  0.00    -0.197 C  
HETATM    2  C   UNL     1     -11.882   8.422  70.999  1.00  0.00    -0.278 C  
HETATM    3  C   UNL     1     -10.580   9.134  71.370  1.00  0.00    -0.341 C  
HETATM    4  C   UNL     1      -9.563   8.791  70.261  1.00  0.00    -0.198 C  
HETATM    5  O   UNL     1     -10.086   8.639  72.615  1.00  0.00    -0.251 OA 
HETATM    6  H   UNL     1      -9.277   9.081  72.845  1.00  0.00     0.000 HD 
HETATM    7  C   UNL     1     -10.286   7.824  69.293  1.00  0.00    -0.211 C  
HETATM    8  C   UNL     1     -10.914   6.063  70.833  1.00  0.00    -0.355 C  
HETATM    9  C   UNL     1      -9.352   4.297  69.945  1.00  0.00    -0.232 C  
HETATM   10  C   UNL     1      -9.469   6.591  68.893  1.00  0.00    -0.129 C  
HETATM   11  C   UNL     1      -9.851   5.543  69.907  1.00  0.00    -0.259 C  
ENDROOT
BRANCH   4  12
HETATM   12  C   UNL     1      -9.102  10.020  69.512  1.00  0.00    -0.236 C  
HETATM   13  C   UNL     1      -8.657   9.963  68.247  1.00  0.00    -0.115 C  
BRANCH  13  14
HETATM   14  C   UNL     1      -8.355  11.160  67.400  1.00  0.00    -0.135 C  
HETATM   15  O   UNL     1      -7.468  11.995  68.136  1.00  0.00    -0.096 OA 
HETATM   16  C   UNL     1      -7.718  10.781  66.040  1.00  0.00    -0.139 C  
HETATM   17  H   UNL     1      -7.277  12.754  67.598  1.00  0.00     0.000 HD 
HETATM   18  C   UNL     1      -8.663   9.923  65.174  1.00  0.00    -0.187 C  
HETATM   19  C   UNL     1      -6.365  10.072  66.195  1.00  0.00    -0.081 C  
BRANCH  18  20
HETATM   20  C   UNL     1      -9.934  10.695  64.858  1.00  0.00    -0.382 C  
HETATM   21  C   UNL     1     -11.023  11.358  64.588  1.00  0.00    -0.324 C  
HETATM   22  C   UNL     1     -12.294  12.131  64.273  1.00  0.00    -0.466 C  
ENDBRANCH  18  20
ENDBRANCH  13  14
ENDBRANCH   4  12
BRANCH   9  23
HETATM   23  C   UNL     1      -9.780   3.252  70.941  1.00  0.00    -0.187 C  
BRANCH  23  24
HETATM   24  C   UNL     1      -8.975   3.316  72.242  1.00  0.00    -0.131 C  
BRANCH  24  25
HETATM   25  C   UNL     1      -9.711   4.063  73.352  1.00  0.00    -0.146 C  
HETATM   26  C   UNL     1      -9.143   5.444  73.576  1.00  0.00    -0.128 C  
HETATM   27  O   UNL     1      -8.212   5.939  72.963  1.00  0.00    -0.117 OA 
HETATM   28  O   UNL     1      -9.794   6.103  74.563  1.00  0.00    -0.240 OA 
ENDBRANCH  24  25
ENDBRANCH  23  24
ENDBRANCH   9  23
TORSDOF 6
ENDMDL
MODEL      153
REMARK 921   NORMALIZED FREE ENERGY PREDICTED BY IDOCK:   -4.05 KCAL/MOL
REMARK 922        TOTAL FREE ENERGY PREDICTED BY IDOCK:   -6.82 KCAL/MOL
REMARK 923 INTER-LIGAND FREE ENERGY PREDICTED BY IDOCK:   -5.72 KCAL/MOL
REMARK 924 INTRA-LIGAND FREE ENERGY PREDICTED BY IDOCK:   -1.10 KCAL/MOL
REMARK 927      BINDING AFFINITY PREDICTED BY RF-SCORE:    0.00 PKD
ROOT
HETATM    1  C   UNL     1     -10.614   9.039  67.570  1.00  0.00    -0.306 C  
HETATM    2  C   UNL     1     -10.188   7.783  66.827  1.00  0.00    -0.346 C  
HETATM    3  C   UNL     1      -8.736   7.543  67.243  1.00  0.00    -0.121 C  
HETATM    4  C   UNL     1      -8.546   8.258  68.598  1.00  0.00    -0.133 C  
HETATM    5  O   UNL     1      -7.847   8.126  66.289  1.00  0.00    -0.092 OA 
HETATM    6  H   UNL     1      -6.945   7.977  66.548  1.00  0.00     0.000 HD 
HETATM    7  C   UNL     1      -9.889   8.960  68.910  1.00  0.00    -0.182 C  
HETATM    8  C   UNL     1     -10.128  10.336  66.931  1.00  0.00    -0.274 C  
HETATM    9  C   UNL     1      -9.774  12.564  68.052  1.00  0.00    -0.215 C  
HETATM   10  C   UNL     1      -9.757  10.413  69.378  1.00  0.00    -0.222 C  
HETATM   11  C   UNL     1      -9.859  11.225  68.112  1.00  0.00    -0.190 C  
ENDROOT
BRANCH   4  12
HETATM   12  C   UNL     1      -8.198   7.293  69.707  1.00  0.00    -0.130 C  
HETATM   13  C   UNL     1      -8.975   7.137  70.790  1.00  0.00    -0.152 C  
BRANCH  13  14
HETATM   14  C   UNL     1      -8.777   6.078  71.830  1.00  0.00    -0.137 C  
HETATM   15  O   UNL     1      -8.820   6.711  73.104  1.00  0.00    -0.124 OA 
HETATM   16  C   UNL     1      -9.851   4.964  71.757  1.00  0.00    -0.240 C  
HETATM   17  H   UNL     1      -8.695   6.039  73.763  1.00  0.00     0.000 HD 
HETATM   18  C   UNL     1      -9.810   4.203  70.417  1.00  0.00    -0.237 C  
HETATM   19  C   UNL     1     -11.271   5.491  72.014  1.00  0.00    -0.222 C  
BRANCH  18  20
HETATM   20  C   UNL     1      -8.464   3.519  70.241  1.00  0.00    -0.093 C  
HETATM   21  C   UNL     1      -7.309   2.932  70.091  1.00  0.00    -0.040 C  
HETATM   22  C   UNL     1      -5.964   2.248  69.916  1.00  0.00    -0.023 C  
ENDBRANCH  18  20
ENDBRANCH  13  14
ENDBRANCH   4  12
BRANCH   9  23
HETATM   23  C   UNL     1      -9.920  13.358  66.782  1.00  0.00    -0.264 C  
BRANCH  23  24
HETATM   24  C   UNL     1     -10.953  14.481  66.906  1.00  0.00    -0.316 C  
BRANCH  24  25
HETATM   25  C   UNL     1     -10.312  15.845  67.156  1.00  0.00    -0.300 C  
HETATM   26  C   UNL     1     -10.434  16.754  65.958  1.00  0.00    -0.293 C  
HETATM   27  O   UNL     1     -10.975  16.472  64.901  1.00  0.00    -0.624 OA 
HETATM   28  O   UNL     1      -9.863  17.962  66.179  1.00  0.00    -0.440 OA 
ENDBRANCH  24  25
ENDBRANCH  23  24
ENDBRANCH   9  23
TORSDOF 6
ENDMDL
MODEL      154
REMARK 921   NORMALIZED FREE ENERGY PREDICTED BY IDOCK:   -4.02 KCAL/MOL
REMARK 922        TOTAL FREE ENERGY PREDICTED BY IDOCK:   -6.77 KCAL/MOL
REMARK 923 INTER-LIGAND FREE ENERGY PREDICTED BY IDOCK:   -5.60 KCAL/MOL
REMARK 924 INTRA-LIGAND FREE ENERGY PREDICTED BY IDOCK:   -1.17 KCAL/MOL
REMARK 927      BINDING AFFINITY PREDICTED BY RF-SCORE:    0.00 PKD
ROOT
HETATM    1  C   UNL     1     -12.031   6.755  70.863  1.00  0.00    -0.437 C  
HETATM    2  C   UNL     1     -12.267   8.157  71.400  1.00  0.00    -0.324 C  
HETATM    3  C   UNL     1     -11.037   8.961  70.976  1.00  0.00    -0.276 C  
HETATM    4  C   UNL     1     -10.435   8.229  69.758  1.00  0.00    -0.220 C  
HETATM    5  O   UNL     1     -10.070   8.975  72.027  1.00  0.00    -0.327 OA 
HETATM    6  H   UNL     1      -9.306   9.474  71.763  1.00  0.00     0.000 HD 
HETATM    7  C   UNL     1     -11.300   6.966  69.540  1.00  0.00    -0.218 C  
HETATM    8  C   UNL     1     -11.083   5.914  71.710  1.00  0.00    -0.324 C  
HETATM    9  C   UNL     1      -9.691   3.949  70.970  1.00  0.00    -0.252 C  
HETATM   10  C   UNL     1     -10.504   5.676  69.315  1.00  0.00    -0.356 C  
HETATM   11  C   UNL     1     -10.349   5.086  70.694  1.00  0.00    -0.278 C  
ENDROOT
BRANCH   4  12
HETATM   12  C   UNL     1     -10.451   9.086  68.514  1.00  0.00    -0.232 C  
HETATM   13  C   UNL     1      -9.864  10.292  68.467  1.00  0.00    -0.174 C  
BRANCH  13  14
HETATM   14  C   UNL     1      -9.696  11.105  67.220  1.00  0.00    -0.166 C  
HETATM   15  O   UNL     1     -10.319  10.396  66.156  1.00  0.00    -0.242 OA 
HETATM   16  C   UNL     1     -10.314  12.520  67.345  1.00  0.00    -0.222 C  
HETATM   17  H   UNL     1     -10.212  10.912  65.366  1.00  0.00     0.000 HD 
HETATM   18  C   UNL     1      -9.633  13.357  68.448  1.00  0.00    -0.188 C  
HETATM   19  C   UNL     1     -11.831  12.487  67.578  1.00  0.00    -0.389 C  
BRANCH  18  20
HETATM   20  C   UNL     1      -8.161  13.553  68.126  1.00  0.00    -0.154 C  
HETATM   21  C   UNL     1      -6.897  13.720  67.850  1.00  0.00    -0.159 C  
HETATM   22  C   UNL     1      -5.425  13.916  67.527  1.00  0.00     0.150 C  
ENDBRANCH  18  20
ENDBRANCH  13  14
ENDBRANCH   4  12
BRANCH   9  23
HETATM   23  C   UNL     1      -9.583   3.356  72.350  1.00  0.00    -0.196 C  
BRANCH  23  24
HETATM   24  C   UNL     1      -8.325   3.816  73.091  1.00  0.00    -0.091 C  
BRANCH  24  25
HETATM   25  C   UNL     1      -8.614   4.908  74.119  1.00  0.00    -0.111 C  
HETATM   26  C   UNL     1      -8.306   6.284  73.582  1.00  0.00    -0.120 C  
HETATM   27  O   UNL     1      -7.879   6.535  72.467  1.00  0.00    -0.102 OA 
HETATM   28  O   UNL     1      -8.559   7.251  74.496  1.00  0.00    -0.194 OA 
ENDBRANCH  24  25
ENDBRANCH  23  24
ENDBRANCH   9  23
TORSDOF 6
ENDMDL
MODEL      155
REMARK 921   NORMALIZED FREE ENERGY PREDICTED BY IDOCK:   -3.98 KCAL/MOL
REMARK 922        TOTAL FREE ENERGY PREDICTED BY IDOCK:   -6.73 KCAL/MOL
REMARK 923 INTER-LIGAND FREE ENERGY PREDICTED BY IDOCK:   -5.54 KCAL/MOL
REMARK 924 INTRA-LIGAND FREE ENERGY PREDICTED BY IDOCK:   -1.19 KCAL/MOL
REMARK 927      BINDING AFFINITY PREDICTED BY RF-SCORE:    0.00 PKD
ROOT
HETATM    1  C   UNL     1      -9.421   3.330  67.777  1.00  0.00    -0.217 C  
HETATM    2  C   UNL     1      -8.820   3.271  69.172  1.00  0.00    -0.160 C  
HETATM    3  C   UNL     1      -8.691   4.729  69.616  1.00  0.00    -0.085 C  
HETATM    4  C   UNL     1      -9.713   5.531  68.784  1.00  0.00    -0.190 C  
HETATM    5  O   UNL     1      -7.380   5.217  69.328  1.00  0.00    -0.056 OA 
HETATM    6  H   UNL     1      -7.300   6.123  69.603  1.00  0.00     0.000 HD 
HETATM    7  C   UNL     1     -10.376   4.521  67.818  1.00  0.00     0.119 C  
HETATM    8  C   UNL     1      -8.417   3.665  66.679  1.00  0.00    -0.106 C  
HETATM    9  C   UNL     1      -8.884   4.698  64.430  1.00  0.00    -0.152 C  
HETATM   10  C   UNL     1     -10.479   4.998  66.365  1.00  0.00    -0.349 C  
HETATM   11  C   UNL     1      -9.219   4.489  65.713  1.00  0.00    -0.146 C  
ENDROOT
BRANCH   4  12
HETATM   12  C   UNL     1     -10.766   6.182  69.650  1.00  0.00    -0.385 C  
HETATM   13  C   UNL     1     -10.861   5.939  70.967  1.00  0.00    -0.339 C  
BRANCH  13  14
HETATM   14  C   UNL     1     -11.763   6.681  71.903  1.00  0.00    -0.313 C  
HETATM   15  O   UNL     1     -12.610   5.726  72.533  1.00  0.00    -0.445 OA 
HETATM   16  C   UNL     1     -10.982   7.482  72.974  1.00  0.00    -0.443 C  
HETATM   17  H   UNL     1     -13.182   6.197  73.127  1.00  0.00     0.000 HD 
HETATM   18  C   UNL     1     -10.091   8.575  72.348  1.00  0.00    -0.365 C  
HETATM   19  C   UNL     1     -10.138   6.584  73.889  1.00  0.00    -0.329 C  
BRANCH  18  20
HETATM   20  C   UNL     1     -10.944   9.580  71.591  1.00  0.00    -0.285 C  
HETATM   21  C   UNL     1     -11.676  10.441  70.941  1.00  0.00    -0.455 C  
HETATM   22  C   UNL     1     -12.529  11.445  70.183  1.00  0.00    -0.271 C  
ENDBRANCH  18  20
ENDBRANCH  13  14
ENDBRANCH   4  12
BRANCH   9  23
HETATM   23  C   UNL     1      -7.640   4.145  63.787  1.00  0.00    -0.070 C  
BRANCH  23  24
HETATM   24  C   UNL     1      -6.969   5.148  62.845  1.00  0.00    -0.037 C  
BRANCH  24  25
HETATM   25  C   UNL     1      -7.925   6.242  62.374  1.00  0.00    -0.104 C  
HETATM   26  C   UNL     1      -7.445   7.619  62.763  1.00  0.00    -0.106 C  
HETATM   27  O   UNL     1      -6.421   7.868  63.379  1.00  0.00    -0.066 OA 
HETATM   28  O   UNL     1      -8.294   8.587  62.348  1.00  0.00    -0.185 OA 
ENDBRANCH  24  25
ENDBRANCH  23  24
ENDBRANCH   9  23
TORSDOF 6
ENDMDL
MODEL      156
REMARK 921   NORMALIZED FREE ENERGY PREDICTED BY IDOCK:   -3.95 KCAL/MOL
REMARK 922        TOTAL FREE ENERGY PREDICTED BY IDOCK:   -6.68 KCAL/MOL
REMARK 923 INTER-LIGAND FREE ENERGY PREDICTED BY IDOCK:   -5.73 KCAL/MOL
REMARK 924 INTRA-LIGAND FREE ENERGY PREDICTED BY IDOCK:   -0.95 KCAL/MOL
REMARK 927      BINDING AFFINITY PREDICTED BY RF-SCORE:    0.00 PKD
ROOT
HETATM    1  C   UNL     1      -6.969  16.287  68.750  1.00  0.00    -0.159 C  
HETATM    2  C   UNL     1      -7.835  15.771  69.888  1.00  0.00     0.272 C  
HETATM    3  C   UNL     1      -9.208  15.518  69.264  1.00  0.00    -0.268 C  
HETATM    4  C   UNL     1      -8.971  15.318  67.752  1.00  0.00    -0.177 C  
HETATM    5  O   UNL     1     -10.052  16.655  69.450  1.00  0.00    -0.256 OA 
HETATM    6  H   UNL     1     -10.905  16.497  69.062  1.00  0.00     0.000 HD 
HETATM    7  C   UNL     1      -7.457  15.528  67.518  1.00  0.00    -0.209 C  
HETATM    8  C   UNL     1      -7.186  17.760  68.419  1.00  0.00    -0.250 C  
HETATM    9  C   UNL     1      -6.734  18.929  66.235  1.00  0.00    -0.241 C  
HETATM   10  C   UNL     1      -7.111  16.433  66.331  1.00  0.00     0.087 C  
HETATM   11  C   UNL     1      -7.005  17.812  66.929  1.00  0.00    -0.212 C  
ENDROOT
BRANCH   4  12
HETATM   12  C   UNL     1      -9.378  13.939  67.289  1.00  0.00    -0.231 C  
HETATM   13  C   UNL     1      -9.711  12.964  68.149  1.00  0.00    -0.227 C  
BRANCH  13  14
HETATM   14  C   UNL     1     -10.288  11.641  67.749  1.00  0.00    -0.182 C  
HETATM   15  O   UNL     1     -10.540  11.687  66.350  1.00  0.00    -0.239 OA 
HETATM   16  C   UNL     1      -9.344  10.457  68.078  1.00  0.00    -0.145 C  
HETATM   17  H   UNL     1     -10.906  10.848  66.096  1.00  0.00     0.000 HD 
HETATM   18  C   UNL     1      -9.084  10.324  69.592  1.00  0.00    -0.149 C  
HETATM   19  C   UNL     1      -8.009  10.535  67.324  1.00  0.00    -0.114 C  
BRANCH  18  20
HETATM   20  C   UNL     1     -10.386  10.058  70.329  1.00  0.00    -0.301 C  
HETATM   21  C   UNL     1     -11.503   9.829  70.961  1.00  0.00    -0.458 C  
HETATM   22  C   UNL     1     -12.805   9.562  71.699  1.00  0.00    -0.483 C  
ENDBRANCH  18  20
ENDBRANCH  13  14
ENDBRANCH   4  12
BRANCH   9  23
HETATM   23  C   UNL     1      -6.591  20.291  66.858  1.00  0.00    -0.269 C  
BRANCH  23  24
HETATM   24  C   UNL     1      -7.914  21.061  66.898  1.00  0.00     0.045 C  
BRANCH  24  25
HETATM   25  C   UNL     1      -8.975  20.364  67.748  1.00  0.00    -0.289 C  
HETATM   26  C   UNL     1     -10.086  19.789  66.904  1.00  0.00    -0.437 C  
HETATM   27  O   UNL     1     -10.162  19.851  65.687  1.00  0.00    -0.423 OA 
HETATM   28  O   UNL     1     -11.027  19.174  67.658  1.00  0.00    -0.419 OA 
ENDBRANCH  24  25
ENDBRANCH  23  24
ENDBRANCH   9  23
TORSDOF 6
ENDMDL
MODEL      157
REMARK 921   NORMALIZED FREE ENERGY PREDICTED BY IDOCK:   -3.94 KCAL/MOL
REMARK 922        TOTAL FREE ENERGY PREDICTED BY IDOCK:   -6.67 KCAL/MOL
REMARK 923 INTER-LIGAND FREE ENERGY PREDICTED BY IDOCK:   -5.30 KCAL/MOL
REMARK 924 INTRA-LIGAND FREE ENERGY PREDICTED BY IDOCK:   -1.38 KCAL/MOL
REMARK 927      BINDING AFFINITY PREDICTED BY RF-SCORE:    0.00 PKD
ROOT
HETATM    1  C   UNL     1      -9.368   2.928  68.345  1.00  0.00    -0.252 C  
HETATM    2  C   UNL     1      -9.042   2.992  69.828  1.00  0.00    -0.200 C  
HETATM    3  C   UNL     1      -8.785   4.471  70.119  1.00  0.00    -0.077 C  
HETATM    4  C   UNL     1      -9.514   5.267  69.015  1.00  0.00    -0.182 C  
HETATM    5  O   UNL     1      -7.387   4.754  70.039  1.00  0.00    -0.052 OA 
HETATM    6  H   UNL     1      -7.227   5.673  70.219  1.00  0.00     0.000 HD 
HETATM    7  C   UNL     1     -10.132   4.218  68.061  1.00  0.00     0.046 C  
HETATM    8  C   UNL     1      -8.146   2.982  67.435  1.00  0.00    -0.077 C  
HETATM    9  C   UNL     1      -8.047   3.737  65.034  1.00  0.00    -0.093 C  
HETATM   10  C   UNL     1      -9.903   4.496  66.571  1.00  0.00    -0.244 C  
HETATM   11  C   UNL     1      -8.634   3.753  66.242  1.00  0.00    -0.113 C  
ENDROOT
BRANCH   4  12
HETATM   12  C   UNL     1     -10.600   6.155  69.577  1.00  0.00    -0.350 C  
HETATM   13  C   UNL     1     -10.931   6.144  70.878  1.00  0.00    -0.359 C  
BRANCH  13  14
HETATM   14  C   UNL     1     -11.869   7.119  71.521  1.00  0.00    -0.313 C  
HETATM   15  O   UNL     1     -12.866   6.369  72.207  1.00  0.00    -0.551 OA 
HETATM   16  C   UNL     1     -11.152   8.072  72.510  1.00  0.00    -0.440 C  
HETATM   17  H   UNL     1     -13.461   6.987  72.615  1.00  0.00     0.000 HD 
HETATM   18  C   UNL     1     -10.100   8.954  71.807  1.00  0.00    -0.407 C  
HETATM   19  C   UNL     1     -10.507   7.329  73.688  1.00  0.00    -0.391 C  
BRANCH  18  20
HETATM   20  C   UNL     1     -10.764   9.834  70.761  1.00  0.00    -0.393 C  
HETATM   21  C   UNL     1     -11.335  10.588  69.862  1.00  0.00    -0.380 C  
HETATM   22  C   UNL     1     -12.000  11.466  68.816  1.00  0.00    -0.353 C  
ENDBRANCH  18  20
ENDBRANCH  13  14
ENDBRANCH   4  12
BRANCH   9  23
HETATM   23  C   UNL     1      -6.802   2.954  64.716  1.00  0.00    -0.041 C  
BRANCH  23  24
HETATM   24  C   UNL     1      -5.574   3.469  65.473  1.00  0.00    -0.017 C  
BRANCH  24  25
HETATM   25  C   UNL     1      -5.264   4.932  65.166  1.00  0.00    -0.013 C  
HETATM   26  C   UNL     1      -5.409   5.809  66.386  1.00  0.00    -0.009 C  
HETATM   27  O   UNL     1      -5.731   5.430  67.501  1.00  0.00    -0.012 OA 
HETATM   28  O   UNL     1      -5.137   7.106  66.112  1.00  0.00    -0.022 OA 
ENDBRANCH  24  25
ENDBRANCH  23  24
ENDBRANCH   9  23
TORSDOF 6
ENDMDL
MODEL      158
REMARK 921   NORMALIZED FREE ENERGY PREDICTED BY IDOCK:   -3.94 KCAL/MOL
REMARK 922        TOTAL FREE ENERGY PREDICTED BY IDOCK:   -6.67 KCAL/MOL
REMARK 923 INTER-LIGAND FREE ENERGY PREDICTED BY IDOCK:   -5.40 KCAL/MOL
REMARK 924 INTRA-LIGAND FREE ENERGY PREDICTED BY IDOCK:   -1.28 KCAL/MOL
REMARK 927      BINDING AFFINITY PREDICTED BY RF-SCORE:    0.00 PKD
ROOT
HETATM    1  C   UNL     1     -10.899   6.072  68.254  1.00  0.00    -0.366 C  
HETATM    2  C   UNL     1     -11.416   6.561  69.597  1.00  0.00    -0.417 C  
HETATM    3  C   UNL     1     -10.669   7.869  69.863  1.00  0.00    -0.244 C  
HETATM    4  C   UNL     1     -10.216   8.400  68.486  1.00  0.00    -0.228 C  
HETATM    5  O   UNL     1      -9.511   7.623  70.662  1.00  0.00    -0.163 OA 
HETATM    6  H   UNL     1      -9.047   8.436  70.827  1.00  0.00     0.000 HD 
HETATM    7  C   UNL     1     -10.658   7.344  67.446  1.00  0.00    -0.371 C  
HETATM    8  C   UNL     1      -9.541   5.382  68.322  1.00  0.00    -0.158 C  
HETATM    9  C   UNL     1      -7.848   5.131  66.474  1.00  0.00    -0.103 C  
HETATM   10  C   UNL     1      -9.583   6.967  66.421  1.00  0.00    -0.152 C  
HETATM   11  C   UNL     1      -8.883   5.780  67.031  1.00  0.00    -0.112 C  
ENDROOT
BRANCH   4  12
HETATM   12  C   UNL     1     -10.839   9.737  68.159  1.00  0.00    -0.264 C  
HETATM   13  C   UNL     1     -10.396  10.885  68.697  1.00  0.00    -0.206 C  
BRANCH  13  14
HETATM   14  C   UNL     1     -10.854  12.248  68.281  1.00  0.00    -0.225 C  
HETATM   15  O   UNL     1     -11.197  12.966  69.461  1.00  0.00    -0.424 OA 
HETATM   16  C   UNL     1      -9.772  13.023  67.488  1.00  0.00    -0.206 C  
HETATM   17  H   UNL     1     -11.487  13.831  69.197  1.00  0.00     0.000 HD 
HETATM   18  C   UNL     1      -9.405  12.318  66.165  1.00  0.00    -0.177 C  
HETATM   19  C   UNL     1      -8.503  13.281  68.311  1.00  0.00    -0.160 C  
BRANCH  18  20
HETATM   20  C   UNL     1     -10.623  12.225  65.262  1.00  0.00    -0.322 C  
HETATM   21  C   UNL     1     -11.668  12.145  64.486  1.00  0.00    -0.410 C  
HETATM   22  C   UNL     1     -12.886  12.052  63.581  1.00  0.00    -0.472 C  
ENDBRANCH  18  20
ENDBRANCH  13  14
ENDBRANCH   4  12
BRANCH   9  23
HETATM   23  C   UNL     1      -7.190   3.921  67.081  1.00  0.00    -0.067 C  
BRANCH  23  24
HETATM   24  C   UNL     1      -5.881   4.262  67.799  1.00  0.00    -0.023 C  
BRANCH  24  25
HETATM   25  C   UNL     1      -5.956   5.581  68.564  1.00  0.00    -0.021 C  
HETATM   26  C   UNL     1      -6.407   5.381  69.991  1.00  0.00    -0.030 C  
HETATM   27  O   UNL     1      -6.684   4.311  70.507  1.00  0.00    -0.031 OA 
HETATM   28  O   UNL     1      -6.476   6.552  70.668  1.00  0.00    -0.045 OA 
ENDBRANCH  24  25
ENDBRANCH  23  24
ENDBRANCH   9  23
TORSDOF 6
ENDMDL
MODEL      159
REMARK 921   NORMALIZED FREE ENERGY PREDICTED BY IDOCK:   -3.94 KCAL/MOL
REMARK 922        TOTAL FREE ENERGY PREDICTED BY IDOCK:   -6.67 KCAL/MOL
REMARK 923 INTER-LIGAND FREE ENERGY PREDICTED BY IDOCK:   -5.53 KCAL/MOL
REMARK 924 INTRA-LIGAND FREE ENERGY PREDICTED BY IDOCK:   -1.14 KCAL/MOL
REMARK 927      BINDING AFFINITY PREDICTED BY RF-SCORE:    0.00 PKD
ROOT
HETATM    1  C   UNL     1     -11.319   7.696  70.106  1.00  0.00    -0.147 C  
HETATM    2  C   UNL     1     -11.326   8.928  70.997  1.00  0.00    -0.350 C  
HETATM    3  C   UNL     1      -9.951   9.571  70.803  1.00  0.00    -0.264 C  
HETATM    4  C   UNL     1      -9.430   9.083  69.434  1.00  0.00    -0.159 C  
HETATM    5  O   UNL     1      -9.052   9.128  71.820  1.00  0.00    -0.346 OA 
HETATM    6  H   UNL     1      -8.198   9.527  71.700  1.00  0.00     0.000 HD 
HETATM    7  C   UNL     1     -10.497   8.106  68.887  1.00  0.00    -0.202 C  
HETATM    8  C   UNL     1     -10.581   6.501  70.699  1.00  0.00    -0.280 C  
HETATM    9  C   UNL     1      -9.530   4.574  69.463  1.00  0.00    -0.244 C  
HETATM   10  C   UNL     1      -9.935   6.794  68.327  1.00  0.00    -0.153 C  
HETATM   11  C   UNL     1      -9.958   5.846  69.499  1.00  0.00    -0.238 C  
ENDROOT
BRANCH   4  12
HETATM   12  C   UNL     1      -9.230  10.223  68.464  1.00  0.00    -0.144 C  
HETATM   13  C   UNL     1      -8.388  10.137  67.422  1.00  0.00    -0.118 C  
BRANCH  13  14
HETATM   14  C   UNL     1      -8.279  11.160  66.333  1.00  0.00    -0.164 C  
HETATM   15  O   UNL     1      -6.899  11.462  66.163  1.00  0.00    -0.358 OA 
HETATM   16  C   UNL     1      -8.882  10.670  64.993  1.00  0.00    -0.212 C  
HETATM   17  H   UNL     1      -6.829  12.110  65.472  1.00  0.00     0.000 HD 
HETATM   18  C   UNL     1     -10.394  10.384  65.105  1.00  0.00    -0.260 C  
HETATM   19  C   UNL     1      -8.159   9.437  64.432  1.00  0.00    -0.138 C  
BRANCH  18  20
HETATM   20  C   UNL     1     -11.142  11.653  65.480  1.00  0.00    -0.297 C  
HETATM   21  C   UNL     1     -11.786  12.740  65.801  1.00  0.00    -0.449 C  
HETATM   22  C   UNL     1     -12.536  14.008  66.175  1.00  0.00    -0.467 C  
ENDBRANCH  18  20
ENDBRANCH  13  14
ENDBRANCH   4  12
BRANCH   9  23
HETATM   23  C   UNL     1      -9.600   3.632  70.634  1.00  0.00    -0.254 C  
BRANCH  23  24
HETATM   24  C   UNL     1      -9.050   2.241  70.304  1.00  0.00    -0.174 C  
BRANCH  24  25
HETATM   25  C   UNL     1      -8.059   1.737  71.350  1.00  0.00    -0.047 C  
HETATM   26  C   UNL     1      -6.662   2.252  71.099  1.00  0.00    -0.031 C  
HETATM   27  O   UNL     1      -6.327   2.985  70.183  1.00  0.00    -0.027 OA 
HETATM   28  O   UNL     1      -5.783   1.801  72.025  1.00  0.00    -0.007 OA 
ENDBRANCH  24  25
ENDBRANCH  23  24
ENDBRANCH   9  23
TORSDOF 6
ENDMDL
MODEL      160
REMARK 921   NORMALIZED FREE ENERGY PREDICTED BY IDOCK:   -3.90 KCAL/MOL
REMARK 922        TOTAL FREE ENERGY PREDICTED BY IDOCK:   -6.61 KCAL/MOL
REMARK 923 INTER-LIGAND FREE ENERGY PREDICTED BY IDOCK:   -6.80 KCAL/MOL
REMARK 924 INTRA-LIGAND FREE ENERGY PREDICTED BY IDOCK:    0.19 KCAL/MOL
REMARK 927      BINDING AFFINITY PREDICTED BY RF-SCORE:    0.00 PKD
ROOT
HETATM    1  C   UNL     1      -8.638  15.228  66.353  1.00  0.00    -0.197 C  
HETATM    2  C   UNL     1      -7.830  14.622  67.489  1.00  0.00    -0.212 C  
HETATM    3  C   UNL     1      -8.853  14.288  68.576  1.00  0.00    -0.176 C  
HETATM    4  C   UNL     1     -10.216  14.146  67.865  1.00  0.00    -0.235 C  
HETATM    5  O   UNL     1      -8.937  15.358  69.519  1.00  0.00    -0.265 OA 
HETATM    6  H   UNL     1      -9.573  15.151  70.194  1.00  0.00     0.000 HD 
HETATM    7  C   UNL     1      -9.962  14.468  66.373  1.00  0.00    -0.304 C  
HETATM    8  C   UNL     1      -9.015  16.689  66.566  1.00  0.00    -0.310 C  
HETATM    9  C   UNL     1     -10.945  17.945  65.545  1.00  0.00     0.279 C  
HETATM   10  C   UNL     1     -10.979  15.427  65.744  1.00  0.00    -0.311 C  
HETATM   11  C   UNL     1     -10.374  16.794  65.934  1.00  0.00    -0.341 C  
ENDROOT
BRANCH   4  12
HETATM   12  C   UNL     1     -10.787  12.754  68.001  1.00  0.00    -0.254 C  
HETATM   13  C   UNL     1     -10.465  11.946  69.023  1.00  0.00    -0.103 C  
BRANCH  13  14
HETATM   14  C   UNL     1     -11.127  10.633  69.306  1.00  0.00    -0.252 C  
HETATM   15  O   UNL     1     -12.486  10.738  68.895  1.00  0.00    -0.782 OA 
HETATM   16  C   UNL     1     -10.444   9.451  68.573  1.00  0.00    -0.239 C  
HETATM   17  H   UNL     1     -12.905   9.905  69.074  1.00  0.00     0.000 HD 
HETATM   18  C   UNL     1      -8.983   9.253  69.026  1.00  0.00    -0.140 C  
HETATM   19  C   UNL     1     -10.502   9.587  67.045  1.00  0.00    -0.302 C  
BRANCH  18  20
HETATM   20  C   UNL     1      -8.931   8.931  70.511  1.00  0.00    -0.224 C  
HETATM   21  C   UNL     1      -8.887   8.656  71.784  1.00  0.00    -0.281 C  
HETATM   22  C   UNL     1      -8.837   8.335  73.269  1.00  0.00    -0.283 C  
ENDBRANCH  18  20
ENDBRANCH  13  14
ENDBRANCH   4  12
BRANCH   9  23
HETATM   23  C   UNL     1     -10.304  19.297  65.707  1.00  0.00    -0.391 C  
BRANCH  23  24
HETATM   24  C   UNL     1      -9.108  19.269  66.662  1.00  0.00    -0.374 C  
BRANCH  24  25
HETATM   25  C   UNL     1      -9.343  20.097  67.924  1.00  0.00    -0.406 C  
HETATM   26  C   UNL     1      -9.961  19.276  69.030  1.00  0.00    -0.379 C  
HETATM   27  O   UNL     1     -10.251  18.093  68.962  1.00  0.00    -0.381 OA 
HETATM   28  O   UNL     1     -10.172  20.011  70.147  1.00  0.00     0.062 OA 
ENDBRANCH  24  25
ENDBRANCH  23  24
ENDBRANCH   9  23
TORSDOF 6
ENDMDL
MODEL      161
REMARK 921   NORMALIZED FREE ENERGY PREDICTED BY IDOCK:   -3.87 KCAL/MOL
REMARK 922        TOTAL FREE ENERGY PREDICTED BY IDOCK:   -6.57 KCAL/MOL
REMARK 923 INTER-LIGAND FREE ENERGY PREDICTED BY IDOCK:   -5.47 KCAL/MOL
REMARK 924 INTRA-LIGAND FREE ENERGY PREDICTED BY IDOCK:   -1.10 KCAL/MOL
REMARK 927      BINDING AFFINITY PREDICTED BY RF-SCORE:    0.00 PKD
ROOT
HETATM    1  C   UNL     1     -10.224   8.785  69.704  1.00  0.00    -0.210 C  
HETATM    2  C   UNL     1     -11.019   7.494  69.588  1.00  0.00    -0.164 C  
HETATM    3  C   UNL     1     -10.468   6.794  68.345  1.00  0.00    -0.205 C  
HETATM    4  C   UNL     1      -9.045   7.350  68.125  1.00  0.00    -0.131 C  
HETATM    5  O   UNL     1     -11.267   7.113  67.204  1.00  0.00    -0.592 OA 
HETATM    6  H   UNL     1     -10.924   6.678  66.432  1.00  0.00     0.000 HD 
HETATM    7  C   UNL     1      -8.823   8.420  69.219  1.00  0.00    -0.142 C  
HETATM    8  C   UNL     1     -10.693   9.892  68.767  1.00  0.00    -0.247 C  
HETATM    9  C   UNL     1      -9.356  11.844  67.902  1.00  0.00    -0.187 C  
HETATM   10  C   UNL     1      -8.223   9.737  68.713  1.00  0.00    -0.108 C  
HETATM   11  C   UNL     1      -9.419  10.597  68.397  1.00  0.00    -0.165 C  
ENDROOT
BRANCH   4  12
HETATM   12  C   UNL     1      -7.990   6.274  68.235  1.00  0.00    -0.108 C  
HETATM   13  C   UNL     1      -8.080   5.272  69.125  1.00  0.00    -0.089 C  
BRANCH  13  14
HETATM   14  C   UNL     1      -7.163   4.089  69.163  1.00  0.00    -0.054 C  
HETATM   15  O   UNL     1      -6.243   4.291  70.230  1.00  0.00    -0.021 OA 
HETATM   16  C   UNL     1      -7.923   2.754  69.366  1.00  0.00    -0.056 C  
HETATM   17  H   UNL     1      -5.662   3.540  70.254  1.00  0.00     0.000 HD 
HETATM   18  C   UNL     1      -8.893   2.454  68.206  1.00  0.00    -0.154 C  
HETATM   19  C   UNL     1      -8.676   2.697  70.703  1.00  0.00    -0.124 C  
BRANCH  18  20
HETATM   20  C   UNL     1      -8.127   2.323  66.900  1.00  0.00    -0.077 C  
HETATM   21  C   UNL     1      -7.469   2.210  65.780  1.00  0.00    -0.067 C  
HETATM   22  C   UNL     1      -6.701   2.077  64.474  1.00  0.00    -0.031 C  
ENDBRANCH  18  20
ENDBRANCH  13  14
ENDBRANCH   4  12
BRANCH   9  23
HETATM   23  C   UNL     1     -10.563  12.702  67.632  1.00  0.00    -0.232 C  
BRANCH  23  24
HETATM   24  C   UNL     1     -10.632  13.179  66.178  1.00  0.00    -0.288 C  
BRANCH  24  25
HETATM   25  C   UNL     1     -12.013  12.980  65.559  1.00  0.00    -0.470 C  
HETATM   26  C   UNL     1     -11.937  12.301  64.213  1.00  0.00    -0.407 C  
HETATM   27  O   UNL     1     -10.914  11.938  63.655  1.00  0.00    -0.371 OA 
HETATM   28  O   UNL     1     -13.162  12.128  63.664  1.00  0.00    -0.770 OA 
ENDBRANCH  24  25
ENDBRANCH  23  24
ENDBRANCH   9  23
TORSDOF 6
ENDMDL
MODEL      162
REMARK 921   NORMALIZED FREE ENERGY PREDICTED BY IDOCK:   -3.82 KCAL/MOL
REMARK 922        TOTAL FREE ENERGY PREDICTED BY IDOCK:   -6.51 KCAL/MOL
REMARK 923 INTER-LIGAND FREE ENERGY PREDICTED BY IDOCK:   -5.77 KCAL/MOL
REMARK 924 INTRA-LIGAND FREE ENERGY PREDICTED BY IDOCK:   -0.74 KCAL/MOL
REMARK 927      BINDING AFFINITY PREDICTED BY RF-SCORE:    0.00 PKD
ROOT
HETATM    1  C   UNL     1      -9.942  10.168  68.358  1.00  0.00    -0.173 C  
HETATM    2  C   UNL     1     -10.610   9.096  69.204  1.00  0.00    -0.224 C  
HETATM    3  C   UNL     1     -10.138   7.767  68.613  1.00  0.00    -0.199 C  
HETATM    4  C   UNL     1      -8.814   8.061  67.877  1.00  0.00    -0.130 C  
HETATM    5  O   UNL     1     -11.091   7.282  67.666  1.00  0.00    -0.514 OA 
HETATM    6  H   UNL     1     -10.797   6.456  67.299  1.00  0.00     0.000 HD 
HETATM    7  C   UNL     1      -8.577   9.584  68.003  1.00  0.00    -0.120 C  
HETATM    8  C   UNL     1     -10.625  10.422  67.019  1.00  0.00    -0.305 C  
HETATM    9  C   UNL     1      -9.601  11.380  64.926  1.00  0.00    -0.244 C  
HETATM   10  C   UNL     1      -8.175  10.279  66.697  1.00  0.00    -0.125 C  
HETATM   11  C   UNL     1      -9.480  10.735  66.098  1.00  0.00    -0.221 C  
ENDROOT
BRANCH   4  12
HETATM   12  C   UNL     1      -7.650   7.308  68.478  1.00  0.00    -0.118 C  
HETATM   13  C   UNL     1      -7.822   6.267  69.307  1.00  0.00    -0.105 C  
BRANCH  13  14
HETATM   14  C   UNL     1      -6.719   5.377  69.791  1.00  0.00    -0.054 C  
HETATM   15  O   UNL     1      -5.658   5.453  68.846  1.00  0.00    -0.010 OA 
HETATM   16  C   UNL     1      -6.205   5.776  71.196  1.00  0.00    -0.035 C  
HETATM   17  H   UNL     1      -4.959   4.889  69.153  1.00  0.00     0.000 HD 
HETATM   18  C   UNL     1      -7.302   5.653  72.274  1.00  0.00    -0.095 C  
HETATM   19  C   UNL     1      -5.599   7.186  71.228  1.00  0.00    -0.031 C  
BRANCH  18  20
HETATM   20  C   UNL     1      -7.777   4.213  72.379  1.00  0.00    -0.081 C  
HETATM   21  C   UNL     1      -8.184   2.978  72.469  1.00  0.00    -0.067 C  
HETATM   22  C   UNL     1      -8.658   1.538  72.574  1.00  0.00    -0.057 C  
ENDBRANCH  18  20
ENDBRANCH  13  14
ENDBRANCH   4  12
BRANCH   9  23
HETATM   23  C   UNL     1     -10.911  11.863  64.365  1.00  0.00    -0.392 C  
BRANCH  23  24
HETATM   24  C   UNL     1     -11.507  13.019  65.175  1.00  0.00    -0.338 C  
BRANCH  24  25
HETATM   25  C   UNL     1     -10.843  14.359  64.864  1.00  0.00    -0.430 C  
HETATM   26  C   UNL     1     -11.833  15.369  64.336  1.00  0.00    -0.256 C  
HETATM   27  O   UNL     1     -13.026  15.177  64.167  1.00  0.00    -0.477 OA 
HETATM   28  O   UNL     1     -11.243  16.556  64.058  1.00  0.00    -0.967 OA 
ENDBRANCH  24  25
ENDBRANCH  23  24
ENDBRANCH   9  23
TORSDOF 6
ENDMDL
MODEL      163
REMARK 921   NORMALIZED FREE ENERGY PREDICTED BY IDOCK:   -3.81 KCAL/MOL
REMARK 922        TOTAL FREE ENERGY PREDICTED BY IDOCK:   -6.50 KCAL/MOL
REMARK 923 INTER-LIGAND FREE ENERGY PREDICTED BY IDOCK:   -5.30 KCAL/MOL
REMARK 924 INTRA-LIGAND FREE ENERGY PREDICTED BY IDOCK:   -1.20 KCAL/MOL
REMARK 927      BINDING AFFINITY PREDICTED BY RF-SCORE:    0.00 PKD
ROOT
HETATM    1  C   UNL     1      -9.558  12.255  68.712  1.00  0.00     0.049 C  
HETATM    2  C   UNL     1     -10.415  11.235  69.446  1.00  0.00    -0.089 C  
HETATM    3  C   UNL     1     -10.697  10.136  68.420  1.00  0.00    -0.230 C  
HETATM    4  C   UNL     1      -9.572  10.222  67.367  1.00  0.00    -0.183 C  
HETATM    5  O   UNL     1     -11.949  10.375  67.774  1.00  0.00    -0.527 OA 
HETATM    6  H   UNL     1     -12.124   9.692  67.136  1.00  0.00     0.000 HD 
HETATM    7  C   UNL     1      -8.688  11.424  67.773  1.00  0.00    -0.136 C  
HETATM    8  C   UNL     1     -10.345  13.190  67.801  1.00  0.00    -0.230 C  
HETATM    9  C   UNL     1      -9.500  14.447  65.788  1.00  0.00    -0.130 C  
HETATM   10  C   UNL     1      -8.327  12.371  66.624  1.00  0.00     0.012 C  
HETATM   11  C   UNL     1      -9.411  13.419  66.647  1.00  0.00    -0.248 C  
ENDROOT
BRANCH   4  12
HETATM   12  C   UNL     1      -8.740   8.962  67.320  1.00  0.00    -0.125 C  
HETATM   13  C   UNL     1      -8.410   8.280  68.428  1.00  0.00    -0.132 C  
BRANCH  13  14
HETATM   14  C   UNL     1      -7.741   6.940  68.431  1.00  0.00    -0.116 C  
HETATM   15  O   UNL     1      -7.256   6.698  67.115  1.00  0.00    -0.077 OA 
HETATM   16  C   UNL     1      -6.576   6.859  69.447  1.00  0.00    -0.048 C  
HETATM   17  H   UNL     1      -6.832   5.848  67.117  1.00  0.00     0.000 HD 
HETATM   18  C   UNL     1      -7.055   7.055  70.900  1.00  0.00    -0.070 C  
HETATM   19  C   UNL     1      -5.444   7.848  69.134  1.00  0.00    -0.026 C  
BRANCH  18  20
HETATM   20  C   UNL     1      -8.040   5.962  71.281  1.00  0.00    -0.118 C  
HETATM   21  C   UNL     1      -8.886   5.025  71.609  1.00  0.00    -0.145 C  
HETATM   22  C   UNL     1      -9.872   3.933  71.990  1.00  0.00    -0.245 C  
ENDBRANCH  18  20
ENDBRANCH  13  14
ENDBRANCH   4  12
BRANCH   9  23
HETATM   23  C   UNL     1     -10.568  15.506  65.855  1.00  0.00    -0.350 C  
BRANCH  23  24
HETATM   24  C   UNL     1     -11.980  14.925  65.732  1.00  0.00    -0.052 C  
BRANCH  24  25
HETATM   25  C   UNL     1     -12.246  14.311  64.360  1.00  0.00    -0.471 C  
HETATM   26  C   UNL     1     -12.511  12.827  64.447  1.00  0.00    -0.399 C  
HETATM   27  O   UNL     1     -12.521  12.165  65.472  1.00  0.00    -0.517 OA 
HETATM   28  O   UNL     1     -12.743  12.283  63.230  1.00  0.00    -0.699 OA 
ENDBRANCH  24  25
ENDBRANCH  23  24
ENDBRANCH   9  23
TORSDOF 6
ENDMDL
MODEL      164
REMARK 921   NORMALIZED FREE ENERGY PREDICTED BY IDOCK:   -3.81 KCAL/MOL
REMARK 922        TOTAL FREE ENERGY PREDICTED BY IDOCK:   -6.50 KCAL/MOL
REMARK 923 INTER-LIGAND FREE ENERGY PREDICTED BY IDOCK:   -5.34 KCAL/MOL
REMARK 924 INTRA-LIGAND FREE ENERGY PREDICTED BY IDOCK:   -1.16 KCAL/MOL
REMARK 927      BINDING AFFINITY PREDICTED BY RF-SCORE:    0.00 PKD
ROOT
HETATM    1  C   UNL     1     -10.702   8.015  68.627  1.00  0.00    -0.066 C  
HETATM    2  C   UNL     1     -10.990   8.787  69.904  1.00  0.00    -0.184 C  
HETATM    3  C   UNL     1      -9.667   9.460  70.273  1.00  0.00    -0.246 C  
HETATM    4  C   UNL     1      -8.851   9.564  68.967  1.00  0.00    -0.143 C  
HETATM    5  O   UNL     1      -8.944   8.652  71.203  1.00  0.00    -0.163 OA 
HETATM    6  H   UNL     1      -8.122   9.070  71.431  1.00  0.00     0.000 HD 
HETATM    7  C   UNL     1      -9.700   8.881  67.869  1.00  0.00    -0.190 C  
HETATM    8  C   UNL     1      -9.989   6.685  68.849  1.00  0.00    -0.160 C  
HETATM    9  C   UNL     1      -8.552   5.419  67.214  1.00  0.00    -0.108 C  
HETATM   10  C   UNL     1      -8.926   7.906  66.975  1.00  0.00    -0.145 C  
HETATM   11  C   UNL     1      -9.090   6.568  67.651  1.00  0.00    -0.112 C  
ENDROOT
BRANCH   4  12
HETATM   12  C   UNL     1      -8.569  10.998  68.584  1.00  0.00    -0.157 C  
HETATM   13  C   UNL     1      -9.332  11.668  67.707  1.00  0.00    -0.178 C  
BRANCH  13  14
HETATM   14  C   UNL     1      -9.210  13.133  67.422  1.00  0.00    -0.213 C  
HETATM   15  O   UNL     1      -7.965  13.341  66.764  1.00  0.00    -0.399 OA 
HETATM   16  C   UNL     1     -10.368  13.667  66.544  1.00  0.00    -0.282 C  
HETATM   17  H   UNL     1      -7.888  14.270  66.583  1.00  0.00     0.000 HD 
HETATM   18  C   UNL     1     -11.739  13.521  67.236  1.00  0.00    -0.423 C  
HETATM   19  C   UNL     1     -10.413  13.012  65.156  1.00  0.00    -0.335 C  
BRANCH  18  20
HETATM   20  C   UNL     1     -11.765  14.325  68.526  1.00  0.00    -0.376 C  
HETATM   21  C   UNL     1     -11.789  15.014  69.632  1.00  0.00    -0.358 C  
HETATM   22  C   UNL     1     -11.816  15.817  70.923  1.00  0.00    -0.451 C  
ENDBRANCH  18  20
ENDBRANCH  13  14
ENDBRANCH   4  12
BRANCH   9  23
HETATM   23  C   UNL     1      -8.762   4.086  67.881  1.00  0.00    -0.118 C  
BRANCH  23  24
HETATM   24  C   UNL     1      -7.991   3.959  69.198  1.00  0.00    -0.058 C  
BRANCH  24  25
HETATM   25  C   UNL     1      -8.730   3.115  70.234  1.00  0.00    -0.127 C  
HETATM   26  C   UNL     1      -8.993   3.885  71.505  1.00  0.00    -0.107 C  
HETATM   27  O   UNL     1      -8.671   5.043  71.717  1.00  0.00    -0.126 OA 
HETATM   28  O   UNL     1      -9.645   3.135  72.424  1.00  0.00    -0.114 OA 
ENDBRANCH  24  25
ENDBRANCH  23  24
ENDBRANCH   9  23
TORSDOF 6
ENDMDL
MODEL      165
REMARK 921   NORMALIZED FREE ENERGY PREDICTED BY IDOCK:   -3.80 KCAL/MOL
REMARK 922        TOTAL FREE ENERGY PREDICTED BY IDOCK:   -6.48 KCAL/MOL
REMARK 923 INTER-LIGAND FREE ENERGY PREDICTED BY IDOCK:   -5.26 KCAL/MOL
REMARK 924 INTRA-LIGAND FREE ENERGY PREDICTED BY IDOCK:   -1.22 KCAL/MOL
REMARK 927      BINDING AFFINITY PREDICTED BY RF-SCORE:    0.00 PKD
ROOT
HETATM    1  C   UNL     1      -7.137   6.954  69.145  1.00  0.00    -0.084 C  
HETATM    2  C   UNL     1      -7.625   6.336  67.844  1.00  0.00    -0.102 C  
HETATM    3  C   UNL     1      -8.726   7.272  67.343  1.00  0.00    -0.121 C  
HETATM    4  C   UNL     1      -8.458   8.647  67.991  1.00  0.00    -0.127 C  
HETATM    5  O   UNL     1     -10.005   6.804  67.773  1.00  0.00    -0.129 OA 
HETATM    6  H   UNL     1     -10.688   7.386  67.462  1.00  0.00     0.000 HD 
HETATM    7  C   UNL     1      -7.232   8.460  68.916  1.00  0.00    -0.078 C  
HETATM    8  C   UNL     1      -8.037   6.677  70.344  1.00  0.00    -0.117 C  
HETATM    9  C   UNL     1      -8.248   8.034  72.455  1.00  0.00    -0.193 C  
HETATM   10  C   UNL     1      -7.388   9.066  70.315  1.00  0.00    -0.076 C  
HETATM   11  C   UNL     1      -7.938   7.939  71.152  1.00  0.00    -0.091 C  
ENDROOT
BRANCH   4  12
HETATM   12  C   UNL     1      -8.169   9.714  66.962  1.00  0.00    -0.117 C  
HETATM   13  C   UNL     1      -7.256   9.546  65.992  1.00  0.00    -0.093 C  
BRANCH  13  14
HETATM   14  C   UNL     1      -7.051  10.489  64.847  1.00  0.00     0.028 C  
HETATM   15  O   UNL     1      -5.692  10.910  64.874  1.00  0.00    -0.345 OA 
HETATM   16  C   UNL     1      -7.378   9.843  63.478  1.00  0.00    -0.132 C  
HETATM   17  H   UNL     1      -5.563  11.508  64.147  1.00  0.00     0.000 HD 
HETATM   18  C   UNL     1      -8.858   9.420  63.372  1.00  0.00    -0.199 C  
HETATM   19  C   UNL     1      -6.470   8.647  63.154  1.00  0.00    -0.090 C  
BRANCH  18  20
HETATM   20  C   UNL     1      -9.762  10.635  63.505  1.00  0.00    -0.389 C  
HETATM   21  C   UNL     1     -10.538  11.676  63.621  1.00  0.00    -0.493 C  
HETATM   22  C   UNL     1     -11.442  12.891  63.755  1.00  0.00    -0.519 C  
ENDBRANCH  18  20
ENDBRANCH  13  14
ENDBRANCH   4  12
BRANCH   9  23
HETATM   23  C   UNL     1      -8.758   6.885  73.282  1.00  0.00    -0.145 C  
BRANCH  23  24
HETATM   24  C   UNL     1     -10.157   7.143  73.848  1.00  0.00    -0.359 C  
BRANCH  24  25
HETATM   25  C   UNL     1     -11.131   7.666  72.794  1.00  0.00    -0.437 C  
HETATM   26  C   UNL     1     -11.573   6.578  71.845  1.00  0.00    -0.312 C  
HETATM   27  O   UNL     1     -11.219   5.411  71.884  1.00  0.00    -0.179 OA 
HETATM   28  O   UNL     1     -12.433   7.044  70.909  1.00  0.00    -0.366 OA 
ENDBRANCH  24  25
ENDBRANCH  23  24
ENDBRANCH   9  23
TORSDOF 6
ENDMDL
MODEL      166
REMARK 921   NORMALIZED FREE ENERGY PREDICTED BY IDOCK:   -3.80 KCAL/MOL
REMARK 922        TOTAL FREE ENERGY PREDICTED BY IDOCK:   -6.48 KCAL/MOL
REMARK 923 INTER-LIGAND FREE ENERGY PREDICTED BY IDOCK:   -5.24 KCAL/MOL
REMARK 924 INTRA-LIGAND FREE ENERGY PREDICTED BY IDOCK:   -1.24 KCAL/MOL
REMARK 927      BINDING AFFINITY PREDICTED BY RF-SCORE:    0.00 PKD
ROOT
HETATM    1  C   UNL     1     -10.621   8.026  68.641  1.00  0.00    -0.143 C  
HETATM    2  C   UNL     1     -10.875   8.589  70.030  1.00  0.00    -0.225 C  
HETATM    3  C   UNL     1     -10.292  10.003  70.003  1.00  0.00    -0.272 C  
HETATM    4  C   UNL     1     -10.261  10.434  68.521  1.00  0.00    -0.191 C  
HETATM    5  O   UNL     1      -8.956   9.995  70.506  1.00  0.00    -0.317 OA 
HETATM    6  H   UNL     1      -8.594  10.873  70.489  1.00  0.00     0.000 HD 
HETATM    7  C   UNL     1     -10.772   9.223  67.706  1.00  0.00    -0.270 C  
HETATM    8  C   UNL     1      -9.198   7.526  68.422  1.00  0.00    -0.139 C  
HETATM    9  C   UNL     1      -7.970   7.293  66.235  1.00  0.00    -0.110 C  
HETATM   10  C   UNL     1      -9.924   8.875  66.477  1.00  0.00    -0.358 C  
HETATM   11  C   UNL     1      -8.930   7.861  66.982  1.00  0.00    -0.145 C  
ENDROOT
BRANCH   4  12
HETATM   12  C   UNL     1     -11.137  11.637  68.260  1.00  0.00    -0.287 C  
HETATM   13  C   UNL     1     -11.294  12.618  69.163  1.00  0.00    -0.339 C  
BRANCH  13  14
HETATM   14  C   UNL     1     -12.003  13.909  68.896  1.00  0.00    -0.358 C  
HETATM   15  O   UNL     1     -12.915  14.130  69.966  1.00  0.00    -0.396 OA 
HETATM   16  C   UNL     1     -11.030  15.108  68.775  1.00  0.00    -0.257 C  
HETATM   17  H   UNL     1     -13.364  14.949  69.797  1.00  0.00     0.000 HD 
HETATM   18  C   UNL     1     -10.056  14.950  67.590  1.00  0.00    -0.227 C  
HETATM   19  C   UNL     1     -10.242  15.366  70.067  1.00  0.00    -0.265 C  
BRANCH  18  20
HETATM   20  C   UNL     1     -10.825  14.882  66.281  1.00  0.00    -0.331 C  
HETATM   21  C   UNL     1     -11.486  14.823  65.158  1.00  0.00    -0.371 C  
HETATM   22  C   UNL     1     -12.257  14.754  63.850  1.00  0.00    -0.023 C  
ENDBRANCH  18  20
ENDBRANCH  13  14
ENDBRANCH   4  12
BRANCH   9  23
HETATM   23  C   UNL     1      -7.013   6.250  66.748  1.00  0.00    -0.068 C  
BRANCH  23  24
HETATM   24  C   UNL     1      -5.635   6.829  67.079  1.00  0.00    -0.014 C  
BRANCH  24  25
HETATM   25  C   UNL     1      -5.684   8.322  67.398  1.00  0.00    -0.039 C  
HETATM   26  C   UNL     1      -5.612   8.584  68.883  1.00  0.00    -0.040 C  
HETATM   27  O   UNL     1      -5.522   7.734  69.753  1.00  0.00    -0.023 OA 
HETATM   28  O   UNL     1      -5.660   9.907  69.165  1.00  0.00    -0.035 OA 
ENDBRANCH  24  25
ENDBRANCH  23  24
ENDBRANCH   9  23
TORSDOF 6
ENDMDL
MODEL      167
REMARK 921   NORMALIZED FREE ENERGY PREDICTED BY IDOCK:   -3.76 KCAL/MOL
REMARK 922        TOTAL FREE ENERGY PREDICTED BY IDOCK:   -6.42 KCAL/MOL
REMARK 923 INTER-LIGAND FREE ENERGY PREDICTED BY IDOCK:   -5.27 KCAL/MOL
REMARK 924 INTRA-LIGAND FREE ENERGY PREDICTED BY IDOCK:   -1.16 KCAL/MOL
REMARK 927      BINDING AFFINITY PREDICTED BY RF-SCORE:    0.00 PKD
ROOT
HETATM    1  C   UNL     1      -9.686   4.161  66.794  1.00  0.00    -0.234 C  
HETATM    2  C   UNL     1      -9.407   3.099  67.845  1.00  0.00    -0.252 C  
HETATM    3  C   UNL     1      -8.981   3.872  69.094  1.00  0.00    -0.114 C  
HETATM    4  C   UNL     1      -9.569   5.292  68.950  1.00  0.00    -0.189 C  
HETATM    5  O   UNL     1      -7.558   3.969  69.152  1.00  0.00    -0.054 OA 
HETATM    6  H   UNL     1      -7.293   4.450  69.928  1.00  0.00     0.000 HD 
HETATM    7  C   UNL     1     -10.276   5.332  67.575  1.00  0.00    -0.229 C  
HETATM    8  C   UNL     1      -8.435   4.721  66.125  1.00  0.00    -0.114 C  
HETATM    9  C   UNL     1      -8.160   6.959  65.003  1.00  0.00    -0.117 C  
HETATM   10  C   UNL     1      -9.963   6.572  66.730  1.00  0.00    -0.224 C  
HETATM   11  C   UNL     1      -8.783   6.163  65.887  1.00  0.00    -0.158 C  
ENDROOT
BRANCH   4  12
HETATM   12  C   UNL     1     -10.557   5.613  70.047  1.00  0.00    -0.388 C  
HETATM   13  C   UNL     1     -10.270   5.429  71.345  1.00  0.00    -0.279 C  
BRANCH  13  14
HETATM   14  C   UNL     1     -11.135   5.889  72.478  1.00  0.00    -0.283 C  
HETATM   15  O   UNL     1     -11.546   4.735  73.202  1.00  0.00    -0.305 OA 
HETATM   16  C   UNL     1     -10.404   6.874  73.424  1.00  0.00    -0.337 C  
HETATM   17  H   UNL     1     -12.095   5.027  73.921  1.00  0.00     0.000 HD 
HETATM   18  C   UNL     1      -9.988   8.172  72.702  1.00  0.00    -0.371 C  
HETATM   19  C   UNL     1      -9.183   6.244  74.108  1.00  0.00    -0.164 C  
BRANCH  18  20
HETATM   20  C   UNL     1     -11.216   8.902  72.182  1.00  0.00    -0.362 C  
HETATM   21  C   UNL     1     -12.270   9.526  71.735  1.00  0.00    -0.465 C  
HETATM   22  C   UNL     1     -13.498  10.254  71.215  1.00  0.00    -0.267 C  
ENDBRANCH  18  20
ENDBRANCH  13  14
ENDBRANCH   4  12
BRANCH   9  23
HETATM   23  C   UNL     1      -7.010   6.516  64.140  1.00  0.00    -0.047 C  
BRANCH  23  24
HETATM   24  C   UNL     1      -5.755   7.368  64.351  1.00  0.00    -0.037 C  
BRANCH  24  25
HETATM   25  C   UNL     1      -6.068   8.858  64.470  1.00  0.00    -0.066 C  
HETATM   26  C   UNL     1      -5.726   9.399  65.837  1.00  0.00    -0.049 C  
HETATM   27  O   UNL     1      -5.252   8.757  66.760  1.00  0.00    -0.037 OA 
HETATM   28  O   UNL     1      -6.007  10.719  65.943  1.00  0.00    -0.120 OA 
ENDBRANCH  24  25
ENDBRANCH  23  24
ENDBRANCH   9  23
TORSDOF 6
ENDMDL
MODEL      168
REMARK 921   NORMALIZED FREE ENERGY PREDICTED BY IDOCK:   -3.76 KCAL/MOL
REMARK 922        TOTAL FREE ENERGY PREDICTED BY IDOCK:   -6.42 KCAL/MOL
REMARK 923 INTER-LIGAND FREE ENERGY PREDICTED BY IDOCK:   -5.05 KCAL/MOL
REMARK 924 INTRA-LIGAND FREE ENERGY PREDICTED BY IDOCK:   -1.37 KCAL/MOL
REMARK 927      BINDING AFFINITY PREDICTED BY RF-SCORE:    0.00 PKD
ROOT
HETATM    1  C   UNL     1      -9.814   6.214  69.415  1.00  0.00    -0.191 C  
HETATM    2  C   UNL     1     -11.139   6.876  69.072  1.00  0.00    -0.188 C  
HETATM    3  C   UNL     1     -11.155   8.179  69.874  1.00  0.00    -0.102 C  
HETATM    4  C   UNL     1      -9.681   8.528  70.171  1.00  0.00    -0.175 C  
HETATM    5  O   UNL     1     -11.840   7.987  71.112  1.00  0.00    -0.288 OA 
HETATM    6  H   UNL     1     -11.850   8.797  71.610  1.00  0.00     0.000 HD 
HETATM    7  C   UNL     1      -8.835   7.373  69.586  1.00  0.00    -0.141 C  
HETATM    8  C   UNL     1      -9.808   5.489  70.756  1.00  0.00    -0.247 C  
HETATM    9  C   UNL     1      -7.821   4.961  72.211  1.00  0.00    -0.099 C  
HETATM   10  C   UNL     1      -7.746   6.838  70.522  1.00  0.00    -0.104 C  
HETATM   11  C   UNL     1      -8.411   5.707  71.264  1.00  0.00    -0.128 C  
ENDROOT
BRANCH   4  12
HETATM   12  C   UNL     1      -9.269   9.838  69.543  1.00  0.00    -0.226 C  
HETATM   13  C   UNL     1      -9.669  10.200  68.314  1.00  0.00    -0.154 C  
BRANCH  13  14
HETATM   14  C   UNL     1      -9.439  11.552  67.712  1.00  0.00    -0.168 C  
HETATM   15  O   UNL     1      -9.067  12.435  68.765  1.00  0.00    -0.386 OA 
HETATM   16  C   UNL     1      -8.341  11.539  66.620  1.00  0.00    -0.167 C  
HETATM   17  H   UNL     1      -8.921  13.292  68.383  1.00  0.00     0.000 HD 
HETATM   18  C   UNL     1      -8.721  10.642  65.423  1.00  0.00    -0.195 C  
HETATM   19  C   UNL     1      -6.967  11.126  67.164  1.00  0.00    -0.112 C  
BRANCH  18  20
HETATM   20  C   UNL     1      -9.987  11.159  64.760  1.00  0.00    -0.339 C  
HETATM   21  C   UNL     1     -11.074  11.602  64.192  1.00  0.00    -0.435 C  
HETATM   22  C   UNL     1     -12.341  12.119  63.529  1.00  0.00    -0.682 C  
ENDBRANCH  18  20
ENDBRANCH  13  14
ENDBRANCH   4  12
BRANCH   9  23
HETATM   23  C   UNL     1      -8.490   3.808  72.910  1.00  0.00    -0.094 C  
BRANCH  23  24
HETATM   24  C   UNL     1      -8.082   2.451  72.330  1.00  0.00    -0.054 C  
BRANCH  24  25
HETATM   25  C   UNL     1      -9.110   1.900  71.344  1.00  0.00    -0.149 C  
HETATM   26  C   UNL     1      -8.669   2.077  69.911  1.00  0.00    -0.058 C  
HETATM   27  O   UNL     1      -7.625   2.591  69.545  1.00  0.00    -0.044 OA 
HETATM   28  O   UNL     1      -9.582   1.590  69.038  1.00  0.00    -0.129 OA 
ENDBRANCH  24  25
ENDBRANCH  23  24
ENDBRANCH   9  23
TORSDOF 6
ENDMDL
MODEL      169
REMARK 921   NORMALIZED FREE ENERGY PREDICTED BY IDOCK:   -3.66 KCAL/MOL
REMARK 922        TOTAL FREE ENERGY PREDICTED BY IDOCK:   -6.29 KCAL/MOL
REMARK 923 INTER-LIGAND FREE ENERGY PREDICTED BY IDOCK:   -5.09 KCAL/MOL
REMARK 924 INTRA-LIGAND FREE ENERGY PREDICTED BY IDOCK:   -1.20 KCAL/MOL
REMARK 927      BINDING AFFINITY PREDICTED BY RF-SCORE:    0.00 PKD
ROOT
HETATM    1  C   UNL     1      -9.500   5.927  67.527  1.00  0.00    -0.110 C  
HETATM    2  C   UNL     1     -10.754   6.698  67.147  1.00  0.00    -0.440 C  
HETATM    3  C   UNL     1     -10.557   8.098  67.730  1.00  0.00    -0.165 C  
HETATM    4  C   UNL     1      -9.035   8.291  67.898  1.00  0.00    -0.134 C  
HETATM    5  O   UNL     1     -11.175   8.188  69.015  1.00  0.00    -0.407 OA 
HETATM    6  H   UNL     1     -11.052   9.058  69.377  1.00  0.00     0.000 HD 
HETATM    7  C   UNL     1      -8.378   6.960  67.464  1.00  0.00    -0.123 C  
HETATM    8  C   UNL     1      -9.492   5.420  68.965  1.00  0.00    -0.176 C  
HETATM    9  C   UNL     1      -7.490   4.863  70.389  1.00  0.00    -0.058 C  
HETATM   10  C   UNL     1      -7.301   6.436  68.421  1.00  0.00    -0.087 C  
HETATM   11  C   UNL     1      -8.048   5.528  69.364  1.00  0.00    -0.095 C  
ENDROOT
BRANCH   4  12
HETATM   12  C   UNL     1      -8.509   9.426  67.050  1.00  0.00    -0.127 C  
HETATM   13  C   UNL     1      -9.271  10.052  66.140  1.00  0.00    -0.205 C  
BRANCH  13  14
HETATM   14  C   UNL     1      -8.863  11.289  65.400  1.00  0.00    -0.048 C  
HETATM   15  O   UNL     1      -8.355  10.885  64.133  1.00  0.00    -0.368 OA 
HETATM   16  C   UNL     1     -10.036  12.281  65.207  1.00  0.00    -0.295 C  
HETATM   17  H   UNL     1      -8.097  11.669  63.664  1.00  0.00     0.000 HD 
HETATM   18  C   UNL     1     -10.587  12.799  66.551  1.00  0.00    -0.270 C  
HETATM   19  C   UNL     1     -11.179  11.694  64.367  1.00  0.00    -0.360 C  
BRANCH  18  20
HETATM   20  C   UNL     1      -9.505  13.549  67.310  1.00  0.00    -0.230 C  
HETATM   21  C   UNL     1      -8.575  14.192  67.960  1.00  0.00    -0.172 C  
HETATM   22  C   UNL     1      -7.491  14.942  68.717  1.00  0.00    -0.132 C  
ENDBRANCH  18  20
ENDBRANCH  13  14
ENDBRANCH   4  12
BRANCH   9  23
HETATM   23  C   UNL     1      -8.247   3.928  71.294  1.00  0.00    -0.074 C  
BRANCH  23  24
HETATM   24  C   UNL     1      -8.340   4.447  72.731  1.00  0.00    -0.105 C  
BRANCH  24  25
HETATM   25  C   UNL     1      -8.921   5.857  72.810  1.00  0.00    -0.123 C  
HETATM   26  C   UNL     1     -10.415   5.841  73.025  1.00  0.00    -0.221 C  
HETATM   27  O   UNL     1     -11.109   4.843  73.129  1.00  0.00    -0.274 OA 
HETATM   28  O   UNL     1     -10.930   7.091  73.092  1.00  0.00    -0.295 OA 
ENDBRANCH  24  25
ENDBRANCH  23  24
ENDBRANCH   9  23
TORSDOF 6
ENDMDL
MODEL      170
REMARK 921   NORMALIZED FREE ENERGY PREDICTED BY IDOCK:   -3.65 KCAL/MOL
REMARK 922        TOTAL FREE ENERGY PREDICTED BY IDOCK:   -6.28 KCAL/MOL
REMARK 923 INTER-LIGAND FREE ENERGY PREDICTED BY IDOCK:   -5.67 KCAL/MOL
REMARK 924 INTRA-LIGAND FREE ENERGY PREDICTED BY IDOCK:   -0.61 KCAL/MOL
REMARK 927      BINDING AFFINITY PREDICTED BY RF-SCORE:    0.00 PKD
ROOT
HETATM    1  C   UNL     1     -10.940  11.618  68.150  1.00  0.00    -0.275 C  
HETATM    2  C   UNL     1     -12.092  12.545  68.499  1.00  0.00    -0.129 C  
HETATM    3  C   UNL     1     -11.435  13.822  69.026  1.00  0.00    -0.305 C  
HETATM    4  C   UNL     1     -10.007  13.851  68.441  1.00  0.00    -0.233 C  
HETATM    5  O   UNL     1     -11.346  13.779  70.451  1.00  0.00    -0.499 OA 
HETATM    6  H   UNL     1     -10.937  14.572  70.778  1.00  0.00     0.000 HD 
HETATM    7  C   UNL     1      -9.843  12.544  67.631  1.00  0.00    -0.202 C  
HETATM    8  C   UNL     1     -10.325  10.907  69.351  1.00  0.00    -0.174 C  
HETATM    9  C   UNL     1      -7.995   9.971  69.557  1.00  0.00    -0.161 C  
HETATM   10  C   UNL     1      -8.533  11.791  67.889  1.00  0.00    -0.154 C  
HETATM   11  C   UNL     1      -8.867  10.826  68.998  1.00  0.00    -0.135 C  
ENDROOT
BRANCH   4  12
HETATM   12  C   UNL     1      -9.785  15.045  67.542  1.00  0.00    -0.215 C  
HETATM   13  C   UNL     1      -9.183  16.164  67.974  1.00  0.00    -0.195 C  
BRANCH  13  14
HETATM   14  C   UNL     1      -8.779  17.305  67.091  1.00  0.00    -0.218 C  
HETATM   15  O   UNL     1      -8.995  16.903  65.743  1.00  0.00    -0.524 OA 
HETATM   16  C   UNL     1      -9.575  18.599  67.391  1.00  0.00    -0.317 C  
HETATM   17  H   UNL     1      -8.739  17.626  65.184  1.00  0.00     0.000 HD 
HETATM   18  C   UNL     1      -9.330  19.115  68.824  1.00  0.00    -0.423 C  
HETATM   19  C   UNL     1     -11.082  18.441  67.144  1.00  0.00     0.096 C  
BRANCH  18  20
HETATM   20  C   UNL     1      -7.861  19.453  69.018  1.00  0.00    -0.325 C  
HETATM   21  C   UNL     1      -6.601  19.744  69.183  1.00  0.00    -0.377 C  
HETATM   22  C   UNL     1      -5.132  20.084  69.375  1.00  0.00    -0.211 C  
ENDBRANCH  18  20
ENDBRANCH  13  14
ENDBRANCH   4  12
BRANCH   9  23
HETATM   23  C   UNL     1      -8.361   8.986  70.635  1.00  0.00    -0.214 C  
BRANCH  23  24
HETATM   24  C   UNL     1      -9.135   7.782  70.092  1.00  0.00    -0.153 C  
BRANCH  24  25
HETATM   25  C   UNL     1      -8.810   6.489  70.837  1.00  0.00    -0.147 C  
HETATM   26  C   UNL     1      -7.409   6.009  70.549  1.00  0.00    -0.085 C  
HETATM   27  O   UNL     1      -6.603   6.560  69.818  1.00  0.00    -0.045 OA 
HETATM   28  O   UNL     1      -7.123   4.861  71.208  1.00  0.00    -0.049 OA 
ENDBRANCH  24  25
ENDBRANCH  23  24
ENDBRANCH   9  23
TORSDOF 6
ENDMDL
MODEL      171
REMARK 921   NORMALIZED FREE ENERGY PREDICTED BY IDOCK:   -3.61 KCAL/MOL
REMARK 922        TOTAL FREE ENERGY PREDICTED BY IDOCK:   -6.22 KCAL/MOL
REMARK 923 INTER-LIGAND FREE ENERGY PREDICTED BY IDOCK:   -5.32 KCAL/MOL
REMARK 924 INTRA-LIGAND FREE ENERGY PREDICTED BY IDOCK:   -0.90 KCAL/MOL
REMARK 927      BINDING AFFINITY PREDICTED BY RF-SCORE:    0.00 PKD
ROOT
HETATM    1  C   UNL     1     -10.702   8.451  67.511  1.00  0.00    -0.207 C  
HETATM    2  C   UNL     1      -9.652   7.394  67.205  1.00  0.00    -0.191 C  
HETATM    3  C   UNL     1      -8.368   7.902  67.863  1.00  0.00    -0.126 C  
HETATM    4  C   UNL     1      -8.804   8.870  68.983  1.00  0.00    -0.136 C  
HETATM    5  O   UNL     1      -7.580   8.623  66.915  1.00  0.00    -0.083 OA 
HETATM    6  H   UNL     1      -6.782   8.938  67.324  1.00  0.00     0.000 HD 
HETATM    7  C   UNL     1     -10.347   8.954  68.908  1.00  0.00    -0.229 C  
HETATM    8  C   UNL     1     -10.627   9.682  66.614  1.00  0.00    -0.173 C  
HETATM    9  C   UNL     1     -11.457  12.006  67.120  1.00  0.00    -0.401 C  
HETATM   10  C   UNL     1     -10.914  10.377  68.973  1.00  0.00    -0.282 C  
HETATM   11  C   UNL     1     -11.020  10.805  67.532  1.00  0.00    -0.372 C  
ENDROOT
BRANCH   4  12
HETATM   12  C   UNL     1      -8.381   8.385  70.350  1.00  0.00    -0.121 C  
HETATM   13  C   UNL     1      -8.483   7.098  70.717  1.00  0.00    -0.133 C  
BRANCH  13  14
HETATM   14  C   UNL     1      -7.922   6.531  71.984  1.00  0.00    -0.103 C  
HETATM   15  O   UNL     1      -7.311   7.599  72.700  1.00  0.00    -0.072 OA 
HETATM   16  C   UNL     1      -9.002   5.855  72.864  1.00  0.00    -0.122 C  
HETATM   17  H   UNL     1      -6.955   7.239  73.504  1.00  0.00     0.000 HD 
HETATM   18  C   UNL     1      -9.657   4.650  72.158  1.00  0.00    -0.203 C  
HETATM   19  C   UNL     1     -10.086   6.836  73.332  1.00  0.00    -0.266 C  
BRANCH  18  20
HETATM   20  C   UNL     1      -8.614   3.586  71.857  1.00  0.00    -0.107 C  
HETATM   21  C   UNL     1      -7.721   2.672  71.598  1.00  0.00    -0.044 C  
HETATM   22  C   UNL     1      -6.679   1.608  71.297  1.00  0.00    -0.023 C  
ENDBRANCH  18  20
ENDBRANCH  13  14
ENDBRANCH   4  12
BRANCH   9  23
HETATM   23  C   UNL     1     -11.596  12.398  65.673  1.00  0.00    -0.441 C  
BRANCH  23  24
HETATM   24  C   UNL     1     -10.261  12.358  64.924  1.00  0.00    -0.301 C  
BRANCH  24  25
HETATM   25  C   UNL     1     -10.338  11.555  63.627  1.00  0.00    -0.467 C  
HETATM   26  C   UNL     1      -9.185  10.590  63.491  1.00  0.00    -0.274 C  
HETATM   27  O   UNL     1      -8.282  10.441  64.298  1.00  0.00    -0.164 OA 
HETATM   28  O   UNL     1      -9.253   9.881  62.340  1.00  0.00    -0.278 OA 
ENDBRANCH  24  25
ENDBRANCH  23  24
ENDBRANCH   9  23
TORSDOF 6
ENDMDL
MODEL      172
REMARK 921   NORMALIZED FREE ENERGY PREDICTED BY IDOCK:   -3.57 KCAL/MOL
REMARK 922        TOTAL FREE ENERGY PREDICTED BY IDOCK:   -6.17 KCAL/MOL
REMARK 923 INTER-LIGAND FREE ENERGY PREDICTED BY IDOCK:   -5.44 KCAL/MOL
REMARK 924 INTRA-LIGAND FREE ENERGY PREDICTED BY IDOCK:   -0.73 KCAL/MOL
REMARK 927      BINDING AFFINITY PREDICTED BY RF-SCORE:    0.00 PKD
ROOT
HETATM    1  C   UNL     1      -9.767  10.055  65.608  1.00  0.00    -0.336 C  
HETATM    2  C   UNL     1      -8.297   9.690  65.474  1.00  0.00    -0.143 C  
HETATM    3  C   UNL     1      -7.599  10.404  66.633  1.00  0.00    -0.114 C  
HETATM    4  C   UNL     1      -8.680  10.654  67.706  1.00  0.00    -0.129 C  
HETATM    5  O   UNL     1      -7.084  11.663  66.197  1.00  0.00    -0.368 OA 
HETATM    6  H   UNL     1      -6.651  12.106  66.918  1.00  0.00     0.000 HD 
HETATM    7  C   UNL     1     -10.010  10.133  67.113  1.00  0.00    -0.243 C  
HETATM    8  C   UNL     1     -10.116  11.441  65.077  1.00  0.00    -0.323 C  
HETATM    9  C   UNL     1     -12.063  12.896  65.738  1.00  0.00    -0.513 C  
HETATM   10  C   UNL     1     -11.199  11.086  67.275  1.00  0.00    -0.330 C  
HETATM   11  C   UNL     1     -11.193  11.911  66.013  1.00  0.00    -0.377 C  
ENDROOT
BRANCH   4  12
HETATM   12  C   UNL     1      -8.375   9.935  68.999  1.00  0.00    -0.130 C  
HETATM   13  C   UNL     1      -9.197   9.007  69.513  1.00  0.00    -0.152 C  
BRANCH  13  14
HETATM   14  C   UNL     1      -8.868   8.140  70.689  1.00  0.00    -0.140 C  
HETATM   15  O   UNL     1     -10.033   7.390  71.012  1.00  0.00    -0.184 OA 
HETATM   16  C   UNL     1      -7.683   7.183  70.409  1.00  0.00    -0.095 C  
HETATM   17  H   UNL     1      -9.824   6.841  71.757  1.00  0.00     0.000 HD 
HETATM   18  C   UNL     1      -6.376   7.945  70.112  1.00  0.00    -0.033 C  
HETATM   19  C   UNL     1      -7.977   6.191  69.275  1.00  0.00    -0.108 C  
BRANCH  18  20
HETATM   20  C   UNL     1      -5.976   8.791  71.310  1.00  0.00    -0.048 C  
HETATM   21  C   UNL     1      -5.634   9.518  72.337  1.00  0.00     0.043 C  
HETATM   22  C   UNL     1      -5.235  10.364  73.535  1.00  0.00     0.288 C  
ENDBRANCH  18  20
ENDBRANCH  13  14
ENDBRANCH   4  12
BRANCH   9  23
HETATM   23  C   UNL     1     -12.065  13.680  64.453  1.00  0.00    -0.470 C  
BRANCH  23  24
HETATM   24  C   UNL     1     -12.082  15.193  64.688  1.00  0.00    -0.262 C  
BRANCH  24  25
HETATM   25  C   UNL     1     -10.695  15.758  64.984  1.00  0.00    -0.443 C  
HETATM   26  C   UNL     1     -10.454  15.915  66.465  1.00  0.00    -0.304 C  
HETATM   27  O   UNL     1     -11.245  15.634  67.350  1.00  0.00    -0.306 OA 
HETATM   28  O   UNL     1      -9.225  16.420  66.726  1.00  0.00    -0.214 OA 
ENDBRANCH  24  25
ENDBRANCH  23  24
ENDBRANCH   9  23
TORSDOF 6
ENDMDL
MODEL      173
REMARK 921   NORMALIZED FREE ENERGY PREDICTED BY IDOCK:   -3.56 KCAL/MOL
REMARK 922        TOTAL FREE ENERGY PREDICTED BY IDOCK:   -6.15 KCAL/MOL
REMARK 923 INTER-LIGAND FREE ENERGY PREDICTED BY IDOCK:   -5.12 KCAL/MOL
REMARK 924 INTRA-LIGAND FREE ENERGY PREDICTED BY IDOCK:   -1.04 KCAL/MOL
REMARK 927      BINDING AFFINITY PREDICTED BY RF-SCORE:    0.00 PKD
ROOT
HETATM    1  C   UNL     1     -10.787  13.170  67.026  1.00  0.00    -0.278 C  
HETATM    2  C   UNL     1     -11.850  13.963  67.771  1.00  0.00    -0.415 C  
HETATM    3  C   UNL     1     -11.261  14.218  69.159  1.00  0.00    -0.270 C  
HETATM    4  C   UNL     1      -9.728  14.113  69.010  1.00  0.00     0.001 C  
HETATM    5  O   UNL     1     -11.703  13.215  70.074  1.00  0.00    -0.443 OA 
HETATM    6  H   UNL     1     -11.337  13.374  70.937  1.00  0.00     0.000 HD 
HETATM    7  C   UNL     1      -9.461  13.729  67.535  1.00  0.00    -0.220 C  
HETATM    8  C   UNL     1     -10.755  11.687  67.379  1.00  0.00    -0.277 C  
HETATM    9  C   UNL     1      -8.811  10.098  67.169  1.00  0.00    -0.138 C  
HETATM   10  C   UNL     1      -8.451  12.593  67.342  1.00  0.00    -0.186 C  
HETATM   11  C   UNL     1      -9.294  11.344  67.305  1.00  0.00    -0.173 C  
ENDROOT
BRANCH   4  12
HETATM   12  C   UNL     1      -9.033  15.413  69.338  1.00  0.00    -0.258 C  
HETATM   13  C   UNL     1      -7.846  15.744  68.807  1.00  0.00    -0.180 C  
BRANCH  13  14
HETATM   14  C   UNL     1      -7.195  17.085  68.956  1.00  0.00    -0.229 C  
HETATM   15  O   UNL     1      -5.895  16.876  69.496  1.00  0.00    -0.174 OA 
HETATM   16  C   UNL     1      -7.093  17.849  67.612  1.00  0.00    -0.202 C  
HETATM   17  H   UNL     1      -5.483  17.726  69.589  1.00  0.00     0.000 HD 
HETATM   18  C   UNL     1      -8.480  18.156  67.010  1.00  0.00    -0.254 C  
HETATM   19  C   UNL     1      -6.226  17.117  66.577  1.00  0.00    -0.248 C  
BRANCH  18  20
HETATM   20  C   UNL     1      -9.278  19.041  67.953  1.00  0.00    -0.345 C  
HETATM   21  C   UNL     1      -9.964  19.801  68.761  1.00  0.00    -0.510 C  
HETATM   22  C   UNL     1     -10.763  20.686  69.703  1.00  0.00     0.822 C  
ENDBRANCH  18  20
ENDBRANCH  13  14
ENDBRANCH   4  12
BRANCH   9  23
HETATM   23  C   UNL     1      -9.674   8.868  67.091  1.00  0.00    -0.241 C  
BRANCH  23  24
HETATM   24  C   UNL     1      -9.010   7.643  67.726  1.00  0.00    -0.131 C  
BRANCH  24  25
HETATM   25  C   UNL     1      -9.134   6.391  66.860  1.00  0.00    -0.138 C  
HETATM   26  C   UNL     1     -10.426   5.654  67.115  1.00  0.00    -0.270 C  
HETATM   27  O   UNL     1     -11.292   5.987  67.908  1.00  0.00    -0.122 OA 
HETATM   28  O   UNL     1     -10.534   4.543  66.350  1.00  0.00    -0.235 OA 
ENDBRANCH  24  25
ENDBRANCH  23  24
ENDBRANCH   9  23
TORSDOF 6
ENDMDL
MODEL      174
REMARK 921   NORMALIZED FREE ENERGY PREDICTED BY IDOCK:   -3.56 KCAL/MOL
REMARK 922        TOTAL FREE ENERGY PREDICTED BY IDOCK:   -6.15 KCAL/MOL
REMARK 923 INTER-LIGAND FREE ENERGY PREDICTED BY IDOCK:   -4.87 KCAL/MOL
REMARK 924 INTRA-LIGAND FREE ENERGY PREDICTED BY IDOCK:   -1.28 KCAL/MOL
REMARK 927      BINDING AFFINITY PREDICTED BY RF-SCORE:    0.00 PKD
ROOT
HETATM    1  C   UNL     1      -9.727   7.036  70.201  1.00  0.00    -0.176 C  
HETATM    2  C   UNL     1     -11.065   7.582  69.727  1.00  0.00    -0.143 C  
HETATM    3  C   UNL     1     -10.929   9.103  69.809  1.00  0.00    -0.181 C  
HETATM    4  C   UNL     1      -9.418   9.411  69.746  1.00  0.00    -0.216 C  
HETATM    5  O   UNL     1     -11.442   9.578  71.055  1.00  0.00    -0.291 OA 
HETATM    6  H   UNL     1     -11.357  10.523  71.105  1.00  0.00     0.000 HD 
HETATM    7  C   UNL     1      -8.698   8.043  69.694  1.00  0.00    -0.133 C  
HETATM    8  C   UNL     1      -9.560   7.025  71.716  1.00  0.00    -0.161 C  
HETATM    9  C   UNL     1      -7.409   7.055  73.026  1.00  0.00    -0.073 C  
HETATM   10  C   UNL     1      -7.508   7.909  70.651  1.00  0.00    -0.069 C  
HETATM   11  C   UNL     1      -8.100   7.324  71.907  1.00  0.00    -0.100 C  
ENDROOT
BRANCH   4  12
HETATM   12  C   UNL     1      -9.054  10.231  68.530  1.00  0.00    -0.138 C  
HETATM   13  C   UNL     1      -9.778  11.291  68.139  1.00  0.00    -0.188 C  
BRANCH  13  14
HETATM   14  C   UNL     1      -9.373  12.240  67.054  1.00  0.00    -0.205 C  
HETATM   15  O   UNL     1      -8.206  11.712  66.434  1.00  0.00    -0.296 OA 
HETATM   16  C   UNL     1     -10.486  12.448  65.998  1.00  0.00    -0.281 C  
HETATM   17  H   UNL     1      -7.949  12.315  65.746  1.00  0.00     0.000 HD 
HETATM   18  C   UNL     1     -11.756  13.076  66.607  1.00  0.00    -0.438 C  
HETATM   19  C   UNL     1     -10.849  11.154  65.255  1.00  0.00    -0.222 C  
BRANCH  18  20
HETATM   20  C   UNL     1     -11.442  14.448  67.181  1.00  0.00    -0.379 C  
HETATM   21  C   UNL     1     -11.172  15.625  67.672  1.00  0.00    -0.274 C  
HETATM   22  C   UNL     1     -10.858  16.998  68.245  1.00  0.00    -0.341 C  
ENDBRANCH  18  20
ENDBRANCH  13  14
ENDBRANCH   4  12
BRANCH   9  23
HETATM   23  C   UNL     1      -8.012   6.432  74.256  1.00  0.00    -0.109 C  
BRANCH  23  24
HETATM   24  C   UNL     1      -7.704   4.936  74.368  1.00  0.00    -0.089 C  
BRANCH  24  25
HETATM   25  C   UNL     1      -8.914   4.061  74.048  1.00  0.00    -0.091 C  
HETATM   26  C   UNL     1      -8.817   3.443  72.674  1.00  0.00    -0.085 C  
HETATM   27  O   UNL     1      -7.898   3.599  71.887  1.00  0.00    -0.060 OA 
HETATM   28  O   UNL     1      -9.892   2.670  72.391  1.00  0.00    -0.131 OA 
ENDBRANCH  24  25
ENDBRANCH  23  24
ENDBRANCH   9  23
TORSDOF 6
ENDMDL
MODEL      175
REMARK 921   NORMALIZED FREE ENERGY PREDICTED BY IDOCK:   -3.55 KCAL/MOL
REMARK 922        TOTAL FREE ENERGY PREDICTED BY IDOCK:   -6.14 KCAL/MOL
REMARK 923 INTER-LIGAND FREE ENERGY PREDICTED BY IDOCK:   -5.11 KCAL/MOL
REMARK 924 INTRA-LIGAND FREE ENERGY PREDICTED BY IDOCK:   -1.04 KCAL/MOL
REMARK 927      BINDING AFFINITY PREDICTED BY RF-SCORE:    0.00 PKD
ROOT
HETATM    1  C   UNL     1      -6.394  16.101  69.108  1.00  0.00    -0.159 C  
HETATM    2  C   UNL     1      -7.016  15.084  70.052  1.00  0.00    -0.096 C  
HETATM    3  C   UNL     1      -8.042  14.327  69.207  1.00  0.00     0.164 C  
HETATM    4  C   UNL     1      -7.599  14.484  67.737  1.00  0.00    -0.171 C  
HETATM    5  O   UNL     1      -9.336  14.912  69.361  1.00  0.00    -0.367 OA 
HETATM    6  H   UNL     1      -9.973  14.442  68.836  1.00  0.00     0.000 HD 
HETATM    7  C   UNL     1      -6.348  15.394  67.756  1.00  0.00    -0.182 C  
HETATM    8  C   UNL     1      -7.248  17.343  68.878  1.00  0.00    -0.250 C  
HETATM    9  C   UNL     1      -7.200  18.898  66.897  1.00  0.00    -0.225 C  
HETATM   10  C   UNL     1      -6.362  16.521  66.717  1.00  0.00    -0.091 C  
HETATM   11  C   UNL     1      -6.976  17.691  67.442  1.00  0.00    -0.187 C  
ENDROOT
BRANCH   4  12
HETATM   12  C   UNL     1      -7.261  13.157  67.100  1.00  0.00     0.077 C  
HETATM   13  C   UNL     1      -7.892  12.020  67.435  1.00  0.00    -0.162 C  
BRANCH  13  14
HETATM   14  C   UNL     1      -7.725  10.715  66.720  1.00  0.00    -0.127 C  
HETATM   15  O   UNL     1      -7.471  11.005  65.350  1.00  0.00    -0.363 OA 
HETATM   16  C   UNL     1      -6.572   9.860  67.302  1.00  0.00    -0.070 C  
HETATM   17  H   UNL     1      -7.365  10.177  64.896  1.00  0.00     0.000 HD 
HETATM   18  C   UNL     1      -6.824   9.466  68.771  1.00  0.00    -0.053 C  
HETATM   19  C   UNL     1      -5.203  10.543  67.173  1.00  0.00    -0.041 C  
BRANCH  18  20
HETATM   20  C   UNL     1      -8.086   8.625  68.881  1.00  0.00    -0.118 C  
HETATM   21  C   UNL     1      -9.169   7.905  68.974  1.00  0.00    -0.147 C  
HETATM   22  C   UNL     1     -10.431   7.065  69.083  1.00  0.00    -0.218 C  
ENDBRANCH  18  20
ENDBRANCH  13  14
ENDBRANCH   4  12
BRANCH   9  23
HETATM   23  C   UNL     1      -7.777  20.066  67.651  1.00  0.00    -0.329 C  
BRANCH  23  24
HETATM   24  C   UNL     1      -9.299  20.159  67.515  1.00  0.00    -0.507 C  
BRANCH  24  25
HETATM   25  C   UNL     1     -10.030  19.108  68.348  1.00  0.00    -0.493 C  
HETATM   26  C   UNL     1     -10.619  18.016  67.488  1.00  0.00    -0.388 C  
HETATM   27  O   UNL     1     -10.540  17.947  66.272  1.00  0.00    -0.335 OA 
HETATM   28  O   UNL     1     -11.269  17.087  68.227  1.00  0.00    -0.267 OA 
ENDBRANCH  24  25
ENDBRANCH  23  24
ENDBRANCH   9  23
TORSDOF 6
ENDMDL
MODEL      176
REMARK 921   NORMALIZED FREE ENERGY PREDICTED BY IDOCK:   -3.55 KCAL/MOL
REMARK 922        TOTAL FREE ENERGY PREDICTED BY IDOCK:   -6.14 KCAL/MOL
REMARK 923 INTER-LIGAND FREE ENERGY PREDICTED BY IDOCK:   -5.61 KCAL/MOL
REMARK 924 INTRA-LIGAND FREE ENERGY PREDICTED BY IDOCK:   -0.53 KCAL/MOL
REMARK 927      BINDING AFFINITY PREDICTED BY RF-SCORE:    0.00 PKD
ROOT
HETATM    1  C   UNL     1     -10.789  13.219  67.900  1.00  0.00    -0.260 C  
HETATM    2  C   UNL     1     -11.696  12.445  66.956  1.00  0.00    -0.423 C  
HETATM    3  C   UNL     1     -10.751  11.655  66.049  1.00  0.00    -0.280 C  
HETATM    4  C   UNL     1      -9.422  11.512  66.821  1.00  0.00    -0.202 C  
HETATM    5  O   UNL     1     -10.505  12.379  64.843  1.00  0.00    -0.281 OA 
HETATM    6  H   UNL     1      -9.918  11.888  64.279  1.00  0.00     0.000 HD 
HETATM    7  C   UNL     1      -9.605  12.287  68.147  1.00  0.00    -0.213 C  
HETATM    8  C   UNL     1     -10.183  14.478  67.290  1.00  0.00    -0.255 C  
HETATM    9  C   UNL     1      -8.065  15.654  67.979  1.00  0.00    -0.140 C  
HETATM   10  C   UNL     1      -8.440  13.214  68.512  1.00  0.00    -0.058 C  
HETATM   11  C   UNL     1      -8.818  14.545  67.915  1.00  0.00    -0.176 C  
ENDROOT
BRANCH   4  12
HETATM   12  C   UNL     1      -9.085  10.068  67.110  1.00  0.00    -0.154 C  
HETATM   13  C   UNL     1      -9.860   9.054  66.693  1.00  0.00    -0.316 C  
BRANCH  13  14
HETATM   14  C   UNL     1      -9.490   7.607  66.796  1.00  0.00    -0.191 C  
HETATM   15  O   UNL     1     -10.593   6.845  66.318  1.00  0.00    -0.438 OA 
HETATM   16  C   UNL     1      -8.216   7.259  65.986  1.00  0.00    -0.138 C  
HETATM   17  H   UNL     1     -10.358   5.927  66.383  1.00  0.00     0.000 HD 
HETATM   18  C   UNL     1      -6.974   8.014  66.503  1.00  0.00    -0.071 C  
HETATM   19  C   UNL     1      -8.385   7.503  64.480  1.00  0.00     0.041 C  
BRANCH  18  20
HETATM   20  C   UNL     1      -6.688   7.631  67.946  1.00  0.00    -0.067 C  
HETATM   21  C   UNL     1      -6.445   7.303  69.184  1.00  0.00    -0.036 C  
HETATM   22  C   UNL     1      -6.160   6.920  70.627  1.00  0.00    -0.028 C  
ENDBRANCH  18  20
ENDBRANCH  13  14
ENDBRANCH   4  12
BRANCH   9  23
HETATM   23  C   UNL     1      -8.480  16.985  67.412  1.00  0.00    -0.208 C  
BRANCH  23  24
HETATM   24  C   UNL     1      -8.754  18.028  68.499  1.00  0.00    -0.304 C  
BRANCH  24  25
HETATM   25  C   UNL     1      -7.709  19.142  68.522  1.00  0.00    -0.376 C  
HETATM   26  C   UNL     1      -8.101  20.302  67.640  1.00  0.00    -0.274 C  
HETATM   27  O   UNL     1      -9.121  20.378  66.975  1.00  0.00    -0.359 OA 
HETATM   28  O   UNL     1      -7.173  21.287  67.659  1.00  0.00    -0.407 OA 
ENDBRANCH  24  25
ENDBRANCH  23  24
ENDBRANCH   9  23
TORSDOF 6
ENDMDL
MODEL      177
REMARK 921   NORMALIZED FREE ENERGY PREDICTED BY IDOCK:   -3.53 KCAL/MOL
REMARK 922        TOTAL FREE ENERGY PREDICTED BY IDOCK:   -6.12 KCAL/MOL
REMARK 923 INTER-LIGAND FREE ENERGY PREDICTED BY IDOCK:   -5.59 KCAL/MOL
REMARK 924 INTRA-LIGAND FREE ENERGY PREDICTED BY IDOCK:   -0.52 KCAL/MOL
REMARK 927      BINDING AFFINITY PREDICTED BY RF-SCORE:    0.00 PKD
ROOT
HETATM    1  C   UNL     1      -8.279  10.871  67.449  1.00  0.00    -0.117 C  
HETATM    2  C   UNL     1      -6.828  10.784  67.895  1.00  0.00    -0.072 C  
HETATM    3  C   UNL     1      -6.882  10.313  69.349  1.00  0.00    -0.076 C  
HETATM    4  C   UNL     1      -8.236   9.593  69.525  1.00  0.00    -0.136 C  
HETATM    5  O   UNL     1      -6.842  11.435  70.233  1.00  0.00    -0.475 OA 
HETATM    6  H   UNL     1      -6.876  11.142  71.136  1.00  0.00     0.000 HD 
HETATM    7  C   UNL     1      -8.974   9.719  68.171  1.00  0.00    -0.119 C  
HETATM    8  C   UNL     1      -9.001  12.128  67.919  1.00  0.00    -0.184 C  
HETATM    9  C   UNL     1     -11.479  12.450  68.238  1.00  0.00    -0.360 C  
HETATM   10  C   UNL     1     -10.441  10.147  68.281  1.00  0.00    -0.244 C  
HETATM   11  C   UNL     1     -10.403  11.650  68.172  1.00  0.00    -0.208 C  
ENDROOT
BRANCH   4  12
HETATM   12  C   UNL     1      -8.062   8.135  69.882  1.00  0.00    -0.115 C  
HETATM   13  C   UNL     1      -8.206   7.154  68.978  1.00  0.00    -0.125 C  
BRANCH  13  14
HETATM   14  C   UNL     1      -7.877   5.715  69.229  1.00  0.00    -0.089 C  
HETATM   15  O   UNL     1      -8.816   4.926  68.507  1.00  0.00    -0.100 OA 
HETATM   16  C   UNL     1      -6.436   5.349  68.796  1.00  0.00    -0.043 C  
HETATM   17  H   UNL     1      -8.607   4.013  68.666  1.00  0.00     0.000 HD 
HETATM   18  C   UNL     1      -5.372   6.134  69.592  1.00  0.00    -0.012 C  
HETATM   19  C   UNL     1      -6.203   5.537  67.290  1.00  0.00    -0.031 C  
BRANCH  18  20
HETATM   20  C   UNL     1      -5.476   5.807  71.072  1.00  0.00    -0.013 C  
HETATM   21  C   UNL     1      -5.567   5.527  72.343  1.00  0.00    -0.018 C  
HETATM   22  C   UNL     1      -5.672   5.200  73.823  1.00  0.00    -0.023 C  
ENDBRANCH  18  20
ENDBRANCH  13  14
ENDBRANCH   4  12
BRANCH   9  23
HETATM   23  C   UNL     1     -11.423  13.947  68.085  1.00  0.00    -0.346 C  
BRANCH  23  24
HETATM   24  C   UNL     1     -10.556  14.385  66.902  1.00  0.00    -0.278 C  
BRANCH  24  25
HETATM   25  C   UNL     1     -11.383  14.776  65.679  1.00  0.00    -0.343 C  
HETATM   26  C   UNL     1     -10.873  16.043  65.035  1.00  0.00    -0.404 C  
HETATM   27  O   UNL     1      -9.919  16.701  65.414  1.00  0.00    -0.565 OA 
HETATM   28  O   UNL     1     -11.609  16.391  63.953  1.00  0.00    -1.100 OA 
ENDBRANCH  24  25
ENDBRANCH  23  24
ENDBRANCH   9  23
TORSDOF 6
ENDMDL
MODEL      178
REMARK 921   NORMALIZED FREE ENERGY PREDICTED BY IDOCK:   -3.52 KCAL/MOL
REMARK 922        TOTAL FREE ENERGY PREDICTED BY IDOCK:   -6.10 KCAL/MOL
REMARK 923 INTER-LIGAND FREE ENERGY PREDICTED BY IDOCK:   -5.89 KCAL/MOL
REMARK 924 INTRA-LIGAND FREE ENERGY PREDICTED BY IDOCK:   -0.21 KCAL/MOL
REMARK 927      BINDING AFFINITY PREDICTED BY RF-SCORE:    0.00 PKD
ROOT
HETATM    1  C   UNL     1      -7.805  15.505  66.941  1.00  0.00    -0.229 C  
HETATM    2  C   UNL     1      -7.052  14.291  67.462  1.00  0.00    -0.189 C  
HETATM    3  C   UNL     1      -8.121  13.218  67.676  1.00  0.00    -0.174 C  
HETATM    4  C   UNL     1      -9.306  13.592  66.761  1.00  0.00    -0.269 C  
HETATM    5  O   UNL     1      -8.567  13.230  69.033  1.00  0.00    -0.346 OA 
HETATM    6  H   UNL     1      -9.231  12.563  69.165  1.00  0.00     0.000 HD 
HETATM    7  C   UNL     1      -8.922  14.926  66.077  1.00  0.00     0.025 C  
HETATM    8  C   UNL     1      -8.517  16.308  68.024  1.00  0.00    -0.174 C  
HETATM    9  C   UNL     1     -10.511  17.824  67.755  1.00  0.00    -0.402 C  
HETATM   10  C   UNL     1     -10.025  15.990  66.086  1.00  0.00    -0.347 C  
HETATM   11  C   UNL     1      -9.764  16.789  67.338  1.00  0.00    -0.245 C  
ENDROOT
BRANCH   4  12
HETATM   12  C   UNL     1      -9.574  12.536  65.715  1.00  0.00    -0.137 C  
HETATM   13  C   UNL     1      -9.572  11.225  66.005  1.00  0.00    -0.245 C  
BRANCH  13  14
HETATM   14  C   UNL     1     -10.000  10.147  65.058  1.00  0.00    -0.305 C  
HETATM   15  O   UNL     1     -10.582  10.777  63.923  1.00  0.00    -0.499 OA 
HETATM   16  C   UNL     1      -8.824   9.242  64.615  1.00  0.00    -0.218 C  
HETATM   17  H   UNL     1     -10.854  10.093  63.322  1.00  0.00     0.000 HD 
HETATM   18  C   UNL     1      -8.193   8.485  65.802  1.00  0.00    -0.125 C  
HETATM   19  C   UNL     1      -7.738  10.011  63.850  1.00  0.00    -0.145 C  
BRANCH  18  20
HETATM   20  C   UNL     1      -9.221   7.574  66.452  1.00  0.00    -0.212 C  
HETATM   21  C   UNL     1     -10.103   6.791  67.008  1.00  0.00    -0.264 C  
HETATM   22  C   UNL     1     -11.130   5.878  67.657  1.00  0.00    -0.092 C  
ENDBRANCH  18  20
ENDBRANCH  13  14
ENDBRANCH   4  12
BRANCH   9  23
HETATM   23  C   UNL     1     -10.209  18.635  68.986  1.00  0.00    -0.176 C  
BRANCH  23  24
HETATM   24  C   UNL     1      -9.387  19.890  68.676  1.00  0.00    -0.259 C  
BRANCH  24  25
HETATM   25  C   UNL     1      -8.452  19.701  67.484  1.00  0.00    -0.346 C  
HETATM   26  C   UNL     1      -9.111  20.086  66.182  1.00  0.00    -0.277 C  
HETATM   27  O   UNL     1     -10.250  20.504  66.057  1.00  0.00    -0.228 OA 
HETATM   28  O   UNL     1      -8.281  19.915  65.126  1.00  0.00    -0.013 OA 
ENDBRANCH  24  25
ENDBRANCH  23  24
ENDBRANCH   9  23
TORSDOF 6
ENDMDL
MODEL      179
REMARK 921   NORMALIZED FREE ENERGY PREDICTED BY IDOCK:   -3.50 KCAL/MOL
REMARK 922        TOTAL FREE ENERGY PREDICTED BY IDOCK:   -6.08 KCAL/MOL
REMARK 923 INTER-LIGAND FREE ENERGY PREDICTED BY IDOCK:   -5.56 KCAL/MOL
REMARK 924 INTRA-LIGAND FREE ENERGY PREDICTED BY IDOCK:   -0.52 KCAL/MOL
REMARK 927      BINDING AFFINITY PREDICTED BY RF-SCORE:    0.00 PKD
ROOT
HETATM    1  C   UNL     1      -6.950  10.228  67.285  1.00  0.00    -0.086 C  
HETATM    2  C   UNL     1      -7.476  10.825  65.989  1.00  0.00    -0.125 C  
HETATM    3  C   UNL     1      -8.761  11.557  66.377  1.00  0.00    -0.179 C  
HETATM    4  C   UNL     1      -8.646  11.874  67.883  1.00  0.00    -0.162 C  
HETATM    5  O   UNL     1      -9.892  10.710  66.171  1.00  0.00    -0.200 OA 
HETATM    6  H   UNL     1     -10.691  11.165  66.413  1.00  0.00     0.000 HD 
HETATM    7  C   UNL     1      -7.311  11.254  68.357  1.00  0.00    -0.097 C  
HETATM    8  C   UNL     1      -7.654   8.945  67.711  1.00  0.00    -0.093 C  
HETATM    9  C   UNL     1      -7.842   7.992  70.035  1.00  0.00    -0.104 C  
HETATM   10  C   UNL     1      -7.403  10.452  69.659  1.00  0.00    -0.156 C  
HETATM   11  C   UNL     1      -7.669   9.038  69.211  1.00  0.00    -0.090 C  
ENDROOT
BRANCH   4  12
HETATM   12  C   UNL     1      -8.649  13.360  68.154  1.00  0.00    -0.174 C  
HETATM   13  C   UNL     1      -9.568  13.943  68.940  1.00  0.00     0.021 C  
BRANCH  13  14
HETATM   14  C   UNL     1      -9.519  15.372  69.384  1.00  0.00    -0.267 C  
HETATM   15  O   UNL     1      -8.273  15.913  68.962  1.00  0.00    -0.204 OA 
HETATM   16  C   UNL     1     -10.684  16.215  68.807  1.00  0.00    -0.294 C  
HETATM   17  H   UNL     1      -8.242  16.819  69.243  1.00  0.00     0.000 HD 
HETATM   18  C   UNL     1     -12.061  15.709  69.283  1.00  0.00    -0.263 C  
HETATM   19  C   UNL     1     -10.658  16.291  67.273  1.00  0.00    -0.298 C  
BRANCH  18  20
HETATM   20  C   UNL     1     -12.163  15.807  70.796  1.00  0.00    -0.441 C  
HETATM   21  C   UNL     1     -12.251  15.893  72.094  1.00  0.00    -0.578 C  
HETATM   22  C   UNL     1     -12.353  15.992  73.607  1.00  0.00    -0.678 C  
ENDBRANCH  18  20
ENDBRANCH  13  14
ENDBRANCH   4  12
BRANCH   9  23
HETATM   23  C   UNL     1      -8.065   6.580  69.565  1.00  0.00    -0.118 C  
BRANCH  23  24
HETATM   24  C   UNL     1      -8.203   5.589  70.725  1.00  0.00    -0.117 C  
BRANCH  24  25
HETATM   25  C   UNL     1      -9.473   5.815  71.544  1.00  0.00    -0.171 C  
HETATM   26  C   UNL     1     -10.716   5.725  70.693  1.00  0.00    -0.281 C  
HETATM   27  O   UNL     1     -10.745   5.499  69.495  1.00  0.00    -0.310 OA 
HETATM   28  O   UNL     1     -11.841   5.929  71.420  1.00  0.00    -0.097 OA 
ENDBRANCH  24  25
ENDBRANCH  23  24
ENDBRANCH   9  23
TORSDOF 6
ENDMDL
MODEL      180
REMARK 921   NORMALIZED FREE ENERGY PREDICTED BY IDOCK:   -3.50 KCAL/MOL
REMARK 922        TOTAL FREE ENERGY PREDICTED BY IDOCK:   -6.07 KCAL/MOL
REMARK 923 INTER-LIGAND FREE ENERGY PREDICTED BY IDOCK:   -5.19 KCAL/MOL
REMARK 924 INTRA-LIGAND FREE ENERGY PREDICTED BY IDOCK:   -0.88 KCAL/MOL
REMARK 927      BINDING AFFINITY PREDICTED BY RF-SCORE:    0.00 PKD
ROOT
HETATM    1  C   UNL     1     -11.526   7.401  70.586  1.00  0.00    -0.307 C  
HETATM    2  C   UNL     1     -11.460   8.508  71.625  1.00  0.00    -0.365 C  
HETATM    3  C   UNL     1     -10.111   9.192  71.398  1.00  0.00    -0.322 C  
HETATM    4  C   UNL     1      -9.710   8.892  69.938  1.00  0.00    -0.185 C  
HETATM    5  O   UNL     1      -9.124   8.637  72.268  1.00  0.00    -0.259 OA 
HETATM    6  H   UNL     1      -8.286   9.062  72.126  1.00  0.00     0.000 HD 
HETATM    7  C   UNL     1     -10.815   7.976  69.363  1.00  0.00    -0.104 C  
HETATM    8  C   UNL     1     -10.734   6.151  70.954  1.00  0.00    -0.316 C  
HETATM    9  C   UNL     1      -9.786   4.416  69.394  1.00  0.00    -0.267 C  
HETATM   10  C   UNL     1     -10.299   6.756  68.593  1.00  0.00    -0.202 C  
HETATM   11  C   UNL     1     -10.215   5.666  69.630  1.00  0.00    -0.321 C  
ENDROOT
BRANCH   4  12
HETATM   12  C   UNL     1      -9.600  10.150  69.108  1.00  0.00    -0.222 C  
HETATM   13  C   UNL     1      -8.469  10.871  69.046  1.00  0.00    -0.110 C  
BRANCH  13  14
HETATM   14  C   UNL     1      -8.246  12.019  68.111  1.00  0.00    -0.163 C  
HETATM   15  O   UNL     1      -7.887  13.150  68.896  1.00  0.00    -0.311 OA 
HETATM   16  C   UNL     1      -7.141  11.729  67.065  1.00  0.00    -0.132 C  
HETATM   17  H   UNL     1      -7.746  13.878  68.303  1.00  0.00     0.000 HD 
HETATM   18  C   UNL     1      -7.507  10.546  66.145  1.00  0.00    -0.136 C  
HETATM   19  C   UNL     1      -5.767  11.486  67.705  1.00  0.00    -0.049 C  
BRANCH  18  20
HETATM   20  C   UNL     1      -8.773  10.859  65.364  1.00  0.00    -0.162 C  
HETATM   21  C   UNL     1      -9.859  11.127  64.694  1.00  0.00    -0.330 C  
HETATM   22  C   UNL     1     -11.125  11.441  63.914  1.00  0.00    -0.410 C  
ENDBRANCH  18  20
ENDBRANCH  13  14
ENDBRANCH   4  12
BRANCH   9  23
HETATM   23  C   UNL     1      -9.749   3.330  70.436  1.00  0.00    -0.125 C  
BRANCH  23  24
HETATM   24  C   UNL     1      -8.777   2.203  70.076  1.00  0.00    -0.112 C  
BRANCH  24  25
HETATM   25  C   UNL     1      -7.862   2.565  68.908  1.00  0.00    -0.055 C  
HETATM   26  C   UNL     1      -8.423   2.100  67.586  1.00  0.00    -0.078 C  
HETATM   27  O   UNL     1      -9.476   1.505  67.429  1.00  0.00    -0.081 OA 
HETATM   28  O   UNL     1      -7.609   2.419  66.552  1.00  0.00    -0.069 OA 
ENDBRANCH  24  25
ENDBRANCH  23  24
ENDBRANCH   9  23
TORSDOF 6
ENDMDL
MODEL      181
REMARK 921   NORMALIZED FREE ENERGY PREDICTED BY IDOCK:   -3.49 KCAL/MOL
REMARK 922        TOTAL FREE ENERGY PREDICTED BY IDOCK:   -6.06 KCAL/MOL
REMARK 923 INTER-LIGAND FREE ENERGY PREDICTED BY IDOCK:   -4.84 KCAL/MOL
REMARK 924 INTRA-LIGAND FREE ENERGY PREDICTED BY IDOCK:   -1.22 KCAL/MOL
REMARK 927      BINDING AFFINITY PREDICTED BY RF-SCORE:    0.00 PKD
ROOT
HETATM    1  C   UNL     1     -10.242   9.266  70.311  1.00  0.00    -0.270 C  
HETATM    2  C   UNL     1     -10.833   7.872  70.448  1.00  0.00    -0.244 C  
HETATM    3  C   UNL     1     -10.386   7.122  69.192  1.00  0.00    -0.200 C  
HETATM    4  C   UNL     1      -9.122   7.843  68.679  1.00  0.00    -0.136 C  
HETATM    5  O   UNL     1     -11.397   7.196  68.187  1.00  0.00    -0.479 OA 
HETATM    6  H   UNL     1     -11.119   6.730  67.407  1.00  0.00     0.000 HD 
HETATM    7  C   UNL     1      -8.898   9.050  69.620  1.00  0.00    -0.145 C  
HETATM    8  C   UNL     1     -11.023  10.186  69.379  1.00  0.00    -0.285 C  
HETATM    9  C   UNL     1     -10.166  12.196  68.127  1.00  0.00    -0.203 C  
HETATM   10  C   UNL     1      -8.600  10.373  68.906  1.00  0.00    -0.149 C  
HETATM   11  C   UNL     1      -9.952  11.016  68.731  1.00  0.00    -0.215 C  
ENDROOT
BRANCH   4  12
HETATM   12  C   UNL     1      -7.907   6.945  68.695  1.00  0.00    -0.118 C  
HETATM   13  C   UNL     1      -7.731   5.995  69.628  1.00  0.00    -0.097 C  
BRANCH  13  14
HETATM   14  C   UNL     1      -6.644   4.966  69.594  1.00  0.00    -0.039 C  
HETATM   15  O   UNL     1      -5.794   5.201  70.711  1.00  0.00    -0.015 OA 
HETATM   16  C   UNL     1      -7.194   3.518  69.644  1.00  0.00    -0.042 C  
HETATM   17  H   UNL     1      -5.105   4.547  70.690  1.00  0.00     0.000 HD 
HETATM   18  C   UNL     1      -8.076   3.189  68.422  1.00  0.00    -0.074 C  
HETATM   19  C   UNL     1      -7.964   3.219  70.938  1.00  0.00    -0.056 C  
BRANCH  18  20
HETATM   20  C   UNL     1      -7.265   3.302  67.141  1.00  0.00    -0.059 C  
HETATM   21  C   UNL     1      -6.571   3.400  66.042  1.00  0.00    -0.040 C  
HETATM   22  C   UNL     1      -5.761   3.514  64.761  1.00  0.00    -0.014 C  
ENDBRANCH  18  20
ENDBRANCH  13  14
ENDBRANCH   4  12
BRANCH   9  23
HETATM   23  C   UNL     1     -11.520  12.841  68.000  1.00  0.00    -0.364 C  
BRANCH  23  24
HETATM   24  C   UNL     1     -11.740  13.954  69.029  1.00  0.00    -0.378 C  
BRANCH  24  25
HETATM   25  C   UNL     1     -12.591  13.499  70.213  1.00  0.00    -0.221 C  
HETATM   26  C   UNL     1     -12.204  14.205  71.490  1.00  0.00    -0.258 C  
HETATM   27  O   UNL     1     -11.325  15.043  71.602  1.00  0.00    -0.360 OA 
HETATM   28  O   UNL     1     -12.957  13.799  72.539  1.00  0.00    -0.381 OA 
ENDBRANCH  24  25
ENDBRANCH  23  24
ENDBRANCH   9  23
TORSDOF 6
ENDMDL
MODEL      182
REMARK 921   NORMALIZED FREE ENERGY PREDICTED BY IDOCK:   -3.49 KCAL/MOL
REMARK 922        TOTAL FREE ENERGY PREDICTED BY IDOCK:   -6.06 KCAL/MOL
REMARK 923 INTER-LIGAND FREE ENERGY PREDICTED BY IDOCK:   -5.73 KCAL/MOL
REMARK 924 INTRA-LIGAND FREE ENERGY PREDICTED BY IDOCK:   -0.32 KCAL/MOL
REMARK 927      BINDING AFFINITY PREDICTED BY RF-SCORE:    0.00 PKD
ROOT
HETATM    1  C   UNL     1     -10.409   9.725  67.007  1.00  0.00    -0.305 C  
HETATM    2  C   UNL     1     -10.887   9.595  68.444  1.00  0.00    -0.212 C  
HETATM    3  C   UNL     1     -10.416  10.872  69.141  1.00  0.00    -0.221 C  
HETATM    4  C   UNL     1     -10.222  11.928  68.033  1.00  0.00    -0.199 C  
HETATM    5  O   UNL     1      -9.161  10.647  69.786  1.00  0.00    -0.395 OA 
HETATM    6  H   UNL     1      -8.868  11.441  70.218  1.00  0.00     0.000 HD 
HETATM    7  C   UNL     1     -10.526  11.214  66.695  1.00  0.00    -0.298 C  
HETATM    8  C   UNL     1      -8.935   9.391  66.808  1.00  0.00    -0.152 C  
HETATM    9  C   UNL     1      -7.414  10.186  64.963  1.00  0.00    -0.140 C  
HETATM   10  C   UNL     1      -9.499  11.470  65.586  1.00  0.00    -0.244 C  
HETATM   11  C   UNL     1      -8.505  10.345  65.729  1.00  0.00    -0.170 C  
ENDROOT
BRANCH   4  12
HETATM   12  C   UNL     1     -11.145  13.111  68.207  1.00  0.00    -0.295 C  
HETATM   13  C   UNL     1     -11.376  13.670  69.406  1.00  0.00    -0.303 C  
BRANCH  13  14
HETATM   14  C   UNL     1     -12.136  14.943  69.616  1.00  0.00    -0.295 C  
HETATM   15  O   UNL     1     -13.394  14.604  70.187  1.00  0.00    -0.497 OA 
HETATM   16  C   UNL     1     -11.388  15.938  70.538  1.00  0.00    -0.409 C  
HETATM   17  H   UNL     1     -13.876  15.411  70.320  1.00  0.00     0.000 HD 
HETATM   18  C   UNL     1     -10.040  16.387  69.937  1.00  0.00     0.048 C  
HETATM   19  C   UNL     1     -11.169  15.386  71.954  1.00  0.00    -0.378 C  
BRANCH  18  20
HETATM   20  C   UNL     1     -10.265  17.104  68.616  1.00  0.00    -0.336 C  
HETATM   21  C   UNL     1     -10.459  17.719  67.482  1.00  0.00    -0.376 C  
HETATM   22  C   UNL     1     -10.686  18.435  66.161  1.00  0.00    -0.210 C  
ENDBRANCH  18  20
ENDBRANCH  13  14
ENDBRANCH   4  12
BRANCH   9  23
HETATM   23  C   UNL     1      -6.457   9.032  65.096  1.00  0.00    -0.071 C  
BRANCH  23  24
HETATM   24  C   UNL     1      -7.166   7.715  65.428  1.00  0.00    -0.065 C  
BRANCH  24  25
HETATM   25  C   UNL     1      -6.440   6.497  64.860  1.00  0.00    -0.041 C  
HETATM   26  C   UNL     1      -6.940   6.135  63.482  1.00  0.00    -0.042 C  
HETATM   27  O   UNL     1      -7.813   6.720  62.864  1.00  0.00    -0.104 OA 
HETATM   28  O   UNL     1      -6.298   5.053  62.981  1.00  0.00    -0.024 OA 
ENDBRANCH  24  25
ENDBRANCH  23  24
ENDBRANCH   9  23
TORSDOF 6
ENDMDL
MODEL      183
REMARK 921   NORMALIZED FREE ENERGY PREDICTED BY IDOCK:   -3.46 KCAL/MOL
REMARK 922        TOTAL FREE ENERGY PREDICTED BY IDOCK:   -6.02 KCAL/MOL
REMARK 923 INTER-LIGAND FREE ENERGY PREDICTED BY IDOCK:   -4.79 KCAL/MOL
REMARK 924 INTRA-LIGAND FREE ENERGY PREDICTED BY IDOCK:   -1.23 KCAL/MOL
REMARK 927      BINDING AFFINITY PREDICTED BY RF-SCORE:    0.00 PKD
ROOT
HETATM    1  C   UNL     1      -9.216  10.033  66.146  1.00  0.00    -0.205 C  
HETATM    2  C   UNL     1      -7.846   9.480  66.507  1.00  0.00    -0.101 C  
HETATM    3  C   UNL     1      -7.859   9.336  68.029  1.00  0.00    -0.092 C  
HETATM    4  C   UNL     1      -9.341   9.232  68.446  1.00  0.00    -0.142 C  
HETATM    5  O   UNL     1      -7.292  10.496  68.639  1.00  0.00    -0.082 OA 
HETATM    6  H   UNL     1      -7.300  10.407  69.585  1.00  0.00     0.000 HD 
HETATM    7  C   UNL     1     -10.169   9.385  67.148  1.00  0.00    -0.319 C  
HETATM    8  C   UNL     1      -9.362  11.533  66.373  1.00  0.00    -0.222 C  
HETATM    9  C   UNL     1     -11.485  12.830  66.770  1.00  0.00    -0.399 C  
HETATM   10  C   UNL     1     -11.352  10.353  67.254  1.00  0.00     0.021 C  
HETATM   11  C   UNL     1     -10.790  11.681  66.814  1.00  0.00    -0.322 C  
ENDROOT
BRANCH   4  12
HETATM   12  C   UNL     1      -9.656   7.909  69.104  1.00  0.00    -0.153 C  
HETATM   13  C   UNL     1      -9.040   6.769  68.751  1.00  0.00    -0.132 C  
BRANCH  13  14
HETATM   14  C   UNL     1      -9.181   5.469  69.481  1.00  0.00    -0.121 C  
HETATM   15  O   UNL     1      -9.797   4.542  68.594  1.00  0.00    -0.156 OA 
HETATM   16  C   UNL     1      -7.821   4.910  69.968  1.00  0.00    -0.066 C  
HETATM   17  H   UNL     1      -9.886   3.718  69.057  1.00  0.00     0.000 HD 
HETATM   18  C   UNL     1      -7.135   5.850  70.980  1.00  0.00    -0.069 C  
HETATM   19  C   UNL     1      -6.859   4.597  68.813  1.00  0.00    -0.051 C  
BRANCH  18  20
HETATM   20  C   UNL     1      -8.003   6.016  72.216  1.00  0.00    -0.102 C  
HETATM   21  C   UNL     1      -8.749   6.158  73.277  1.00  0.00    -0.123 C  
HETATM   22  C   UNL     1      -9.617   6.323  74.513  1.00  0.00    -0.277 C  
ENDBRANCH  18  20
ENDBRANCH  13  14
ENDBRANCH   4  12
BRANCH   9  23
HETATM   23  C   UNL     1     -10.916  14.137  66.288  1.00  0.00    -0.303 C  
BRANCH  23  24
HETATM   24  C   UNL     1     -11.259  15.305  67.216  1.00  0.00    -0.306 C  
BRANCH  24  25
HETATM   25  C   UNL     1     -11.501  14.861  68.657  1.00  0.00    -0.326 C  
HETATM   26  C   UNL     1     -10.519  15.490  69.615  1.00  0.00    -0.286 C  
HETATM   27  O   UNL     1      -9.626  16.265  69.313  1.00  0.00    -0.248 OA 
HETATM   28  O   UNL     1     -10.732  15.092  70.891  1.00  0.00    -0.212 OA 
ENDBRANCH  24  25
ENDBRANCH  23  24
ENDBRANCH   9  23
TORSDOF 6
ENDMDL
MODEL      184
REMARK 921   NORMALIZED FREE ENERGY PREDICTED BY IDOCK:   -3.42 KCAL/MOL
REMARK 922        TOTAL FREE ENERGY PREDICTED BY IDOCK:   -5.97 KCAL/MOL
REMARK 923 INTER-LIGAND FREE ENERGY PREDICTED BY IDOCK:   -5.27 KCAL/MOL
REMARK 924 INTRA-LIGAND FREE ENERGY PREDICTED BY IDOCK:   -0.69 KCAL/MOL
REMARK 927      BINDING AFFINITY PREDICTED BY RF-SCORE:    0.00 PKD
ROOT
HETATM    1  C   UNL     1      -8.812   9.337  70.924  1.00  0.00    -0.252 C  
HETATM    2  C   UNL     1      -7.306   9.319  70.714  1.00  0.00    -0.134 C  
HETATM    3  C   UNL     1      -7.104   8.778  69.298  1.00  0.00    -0.062 C  
HETATM    4  C   UNL     1      -8.418   9.050  68.535  1.00  0.00    -0.128 C  
HETATM    5  O   UNL     1      -6.880   7.368  69.336  1.00  0.00    -0.050 OA 
HETATM    6  H   UNL     1      -6.754   7.032  68.456  1.00  0.00     0.000 HD 
HETATM    7  C   UNL     1      -9.388   9.691  69.555  1.00  0.00    -0.211 C  
HETATM    8  C   UNL     1      -9.410   7.977  71.266  1.00  0.00    -0.182 C  
HETATM    9  C   UNL     1     -11.781   7.205  70.907  1.00  0.00    -0.367 C  
HETATM   10  C   UNL     1     -10.802   9.099  69.553  1.00  0.00    -0.194 C  
HETATM   11  C   UNL     1     -10.752   8.007  70.590  1.00  0.00    -0.235 C  
ENDROOT
BRANCH   4  12
HETATM   12  C   UNL     1      -8.213   9.982  67.363  1.00  0.00    -0.118 C  
HETATM   13  C   UNL     1      -7.109   9.941  66.601  1.00  0.00    -0.087 C  
BRANCH  13  14
HETATM   14  C   UNL     1      -6.928  10.713  65.330  1.00  0.00    -0.013 C  
HETATM   15  O   UNL     1      -5.619  11.272  65.349  1.00  0.00    -0.481 OA 
HETATM   16  C   UNL     1      -7.109   9.833  64.068  1.00  0.00    -0.123 C  
HETATM   17  H   UNL     1      -5.504  11.761  64.543  1.00  0.00     0.000 HD 
HETATM   18  C   UNL     1      -8.533   9.248  63.966  1.00  0.00    -0.202 C  
HETATM   19  C   UNL     1      -6.074   8.702  63.979  1.00  0.00    -0.071 C  
BRANCH  18  20
HETATM   20  C   UNL     1      -9.555  10.368  63.865  1.00  0.00    -0.370 C  
HETATM   21  C   UNL     1     -10.433  11.329  63.776  1.00  0.00    -0.459 C  
HETATM   22  C   UNL     1     -11.456  12.448  63.674  1.00  0.00    -0.568 C  
ENDBRANCH  18  20
ENDBRANCH  13  14
ENDBRANCH   4  12
BRANCH   9  23
HETATM   23  C   UNL     1     -11.722   6.147  71.976  1.00  0.00    -0.354 C  
BRANCH  23  24
HETATM   24  C   UNL     1     -10.357   5.457  72.047  1.00  0.00    -0.268 C  
BRANCH  24  25
HETATM   25  C   UNL     1     -10.271   4.227  71.146  1.00  0.00    -0.087 C  
HETATM   26  C   UNL     1      -9.012   4.224  70.313  1.00  0.00    -0.090 C  
HETATM   27  O   UNL     1      -8.144   5.081  70.331  1.00  0.00    -0.082 OA 
HETATM   28  O   UNL     1      -8.939   3.135  69.512  1.00  0.00    -0.085 OA 
ENDBRANCH  24  25
ENDBRANCH  23  24
ENDBRANCH   9  23
TORSDOF 6
ENDMDL
MODEL      185
REMARK 921   NORMALIZED FREE ENERGY PREDICTED BY IDOCK:   -3.41 KCAL/MOL
REMARK 922        TOTAL FREE ENERGY PREDICTED BY IDOCK:   -5.96 KCAL/MOL
REMARK 923 INTER-LIGAND FREE ENERGY PREDICTED BY IDOCK:   -5.11 KCAL/MOL
REMARK 924 INTRA-LIGAND FREE ENERGY PREDICTED BY IDOCK:   -0.85 KCAL/MOL
REMARK 927      BINDING AFFINITY PREDICTED BY RF-SCORE:    0.00 PKD
ROOT
HETATM    1  C   UNL     1      -9.822  12.409  68.203  1.00  0.00    -0.213 C  
HETATM    2  C   UNL     1     -10.838  12.112  67.111  1.00  0.00    -0.286 C  
HETATM    3  C   UNL     1     -10.017  11.960  65.829  1.00  0.00    -0.236 C  
HETATM    4  C   UNL     1      -8.585  11.586  66.269  1.00  0.00    -0.133 C  
HETATM    5  O   UNL     1      -9.970  13.201  65.124  1.00  0.00    -0.460 OA 
HETATM    6  H   UNL     1      -9.460  13.106  64.328  1.00  0.00     0.000 HD 
HETATM    7  C   UNL     1      -8.591  11.593  67.816  1.00  0.00    -0.144 C  
HETATM    8  C   UNL     1      -9.345  13.857  68.235  1.00  0.00    -0.209 C  
HETATM    9  C   UNL     1      -7.180  14.743  69.168  1.00  0.00    -0.148 C  
HETATM   10  C   UNL     1      -7.409  12.330  68.457  1.00  0.00    -0.105 C  
HETATM   11  C   UNL     1      -7.906  13.740  68.649  1.00  0.00    -0.108 C  
ENDROOT
BRANCH   4  12
HETATM   12  C   UNL     1      -8.172  10.225  65.762  1.00  0.00    -0.147 C  
HETATM   13  C   UNL     1      -8.709   9.090  66.237  1.00  0.00    -0.155 C  
BRANCH  13  14
HETATM   14  C   UNL     1      -8.470   7.731  65.655  1.00  0.00    -0.141 C  
HETATM   15  O   UNL     1      -8.659   7.825  64.248  1.00  0.00    -0.374 OA 
HETATM   16  C   UNL     1      -7.051   7.193  65.963  1.00  0.00    -0.073 C  
HETATM   17  H   UNL     1      -8.507   6.963  63.879  1.00  0.00     0.000 HD 
HETATM   18  C   UNL     1      -6.813   7.013  67.477  1.00  0.00    -0.073 C  
HETATM   19  C   UNL     1      -5.941   8.066  65.361  1.00  0.00    -0.041 C  
BRANCH  18  20
HETATM   20  C   UNL     1      -7.793   6.002  68.048  1.00  0.00    -0.106 C  
HETATM   21  C   UNL     1      -8.634   5.134  68.537  1.00  0.00    -0.094 C  
HETATM   22  C   UNL     1      -9.614   4.122  69.108  1.00  0.00    -0.243 C  
ENDBRANCH  18  20
ENDBRANCH  13  14
ENDBRANCH   4  12
BRANCH   9  23
HETATM   23  C   UNL     1      -7.709  16.134  69.390  1.00  0.00    -0.145 C  
BRANCH  23  24
HETATM   24  C   UNL     1      -7.423  17.067  68.210  1.00  0.00    -0.207 C  
BRANCH  24  25
HETATM   25  C   UNL     1      -8.612  17.962  67.865  1.00  0.00    -0.252 C  
HETATM   26  C   UNL     1      -8.804  18.095  66.374  1.00  0.00    -0.236 C  
HETATM   27  O   UNL     1      -8.116  17.567  65.517  1.00  0.00    -0.316 OA 
HETATM   28  O   UNL     1      -9.856  18.891  66.070  1.00  0.00    -0.461 OA 
ENDBRANCH  24  25
ENDBRANCH  23  24
ENDBRANCH   9  23
TORSDOF 6
ENDMDL
MODEL      186
REMARK 921   NORMALIZED FREE ENERGY PREDICTED BY IDOCK:   -3.39 KCAL/MOL
REMARK 922        TOTAL FREE ENERGY PREDICTED BY IDOCK:   -5.93 KCAL/MOL
REMARK 923 INTER-LIGAND FREE ENERGY PREDICTED BY IDOCK:   -5.17 KCAL/MOL
REMARK 924 INTRA-LIGAND FREE ENERGY PREDICTED BY IDOCK:   -0.76 KCAL/MOL
REMARK 927      BINDING AFFINITY PREDICTED BY RF-SCORE:    0.00 PKD
ROOT
HETATM    1  C   UNL     1     -12.025   6.826  70.755  1.00  0.00    -0.433 C  
HETATM    2  C   UNL     1     -12.415   8.181  71.325  1.00  0.00    -0.269 C  
HETATM    3  C   UNL     1     -11.225   9.097  71.034  1.00  0.00    -0.312 C  
HETATM    4  C   UNL     1     -10.474   8.470  69.841  1.00  0.00    -0.219 C  
HETATM    5  O   UNL     1     -10.347   9.138  72.159  1.00  0.00    -0.253 OA 
HETATM    6  H   UNL     1      -9.608   9.707  71.977  1.00  0.00     0.000 HD 
HETATM    7  C   UNL     1     -11.214   7.154  69.504  1.00  0.00    -0.121 C  
HETATM    8  C   UNL     1     -11.080   6.024  71.642  1.00  0.00    -0.333 C  
HETATM    9  C   UNL     1      -9.480   4.210  70.940  1.00  0.00    -0.232 C  
HETATM   10  C   UNL     1     -10.300   5.942  69.294  1.00  0.00    -0.312 C  
HETATM   11  C   UNL     1     -10.204   5.304  70.656  1.00  0.00    -0.327 C  
ENDROOT
BRANCH   4  12
HETATM   12  C   UNL     1     -10.463   9.379  68.634  1.00  0.00    -0.236 C  
HETATM   13  C   UNL     1      -9.563  10.363  68.486  1.00  0.00    -0.161 C  
BRANCH  13  14
HETATM   14  C   UNL     1      -9.393  11.177  67.240  1.00  0.00    -0.160 C  
HETATM   15  O   UNL     1      -9.722  10.344  66.134  1.00  0.00    -0.190 OA 
HETATM   16  C   UNL     1     -10.284  12.444  67.231  1.00  0.00    -0.224 C  
HETATM   17  H   UNL     1      -9.614  10.861  65.344  1.00  0.00     0.000 HD 
HETATM   18  C   UNL     1      -9.929  13.413  68.378  1.00  0.00    -0.231 C  
HETATM   19  C   UNL     1     -11.783  12.116  67.272  1.00  0.00    -0.369 C  
BRANCH  18  20
HETATM   20  C   UNL     1      -8.493  13.891  68.238  1.00  0.00    -0.169 C  
HETATM   21  C   UNL     1      -7.262  14.301  68.116  1.00  0.00    -0.127 C  
HETATM   22  C   UNL     1      -5.826  14.780  67.974  1.00  0.00    -0.155 C  
ENDBRANCH  18  20
ENDBRANCH  13  14
ENDBRANCH   4  12
BRANCH   9  23
HETATM   23  C   UNL     1      -9.431   3.565  72.299  1.00  0.00    -0.183 C  
BRANCH  23  24
HETATM   24  C   UNL     1      -8.777   2.180  72.270  1.00  0.00    -0.085 C  
BRANCH  24  25
HETATM   25  C   UNL     1      -7.819   2.007  71.094  1.00  0.00    -0.039 C  
HETATM   26  C   UNL     1      -6.380   1.933  71.544  1.00  0.00    -0.018 C  
HETATM   27  O   UNL     1      -5.991   1.997  72.699  1.00  0.00    -0.008 OA 
HETATM   28  O   UNL     1      -5.531   1.783  70.501  1.00  0.00    -0.011 OA 
ENDBRANCH  24  25
ENDBRANCH  23  24
ENDBRANCH   9  23
TORSDOF 6
ENDMDL
MODEL      187
REMARK 921   NORMALIZED FREE ENERGY PREDICTED BY IDOCK:   -3.39 KCAL/MOL
REMARK 922        TOTAL FREE ENERGY PREDICTED BY IDOCK:   -5.92 KCAL/MOL
REMARK 923 INTER-LIGAND FREE ENERGY PREDICTED BY IDOCK:   -4.92 KCAL/MOL
REMARK 924 INTRA-LIGAND FREE ENERGY PREDICTED BY IDOCK:   -1.00 KCAL/MOL
REMARK 927      BINDING AFFINITY PREDICTED BY RF-SCORE:    0.00 PKD
ROOT
HETATM    1  C   UNL     1      -7.451  11.381  67.679  1.00  0.00    -0.103 C  
HETATM    2  C   UNL     1      -7.211  10.881  69.094  1.00  0.00    -0.118 C  
HETATM    3  C   UNL     1      -8.276   9.807  69.326  1.00  0.00    -0.132 C  
HETATM    4  C   UNL     1      -8.696   9.300  67.930  1.00  0.00    -0.124 C  
HETATM    5  O   UNL     1      -9.417  10.375  69.970  1.00  0.00    -0.398 OA 
HETATM    6  H   UNL     1     -10.078   9.708  70.114  1.00  0.00     0.000 HD 
HETATM    7  C   UNL     1      -7.905  10.146  66.905  1.00  0.00    -0.107 C  
HETATM    8  C   UNL     1      -8.602  12.373  67.554  1.00  0.00    -0.177 C  
HETATM    9  C   UNL     1      -9.979  12.881  65.507  1.00  0.00    -0.226 C  
HETATM   10  C   UNL     1      -8.742  10.691  65.743  1.00  0.00    -0.192 C  
HETATM   11  C   UNL     1      -9.196  12.049  66.212  1.00  0.00    -0.208 C  
ENDROOT
BRANCH   4  12
HETATM   12  C   UNL     1      -8.383   7.834  67.740  1.00  0.00    -0.125 C  
HETATM   13  C   UNL     1      -8.308   6.978  68.771  1.00  0.00    -0.122 C  
BRANCH  13  14
HETATM   14  C   UNL     1      -8.176   5.493  68.631  1.00  0.00    -0.102 C  
HETATM   15  O   UNL     1      -7.119   5.072  69.486  1.00  0.00    -0.053 OA 
HETATM   16  C   UNL     1      -9.482   4.743  68.996  1.00  0.00    -0.213 C  
HETATM   17  H   UNL     1      -7.036   4.130  69.398  1.00  0.00     0.000 HD 
HETATM   18  C   UNL     1     -10.649   5.118  68.060  1.00  0.00    -0.011 C  
HETATM   19  C   UNL     1      -9.899   4.953  70.458  1.00  0.00    -0.297 C  
BRANCH  18  20
HETATM   20  C   UNL     1     -10.316   4.738  66.626  1.00  0.00    -0.258 C  
HETATM   21  C   UNL     1     -10.031   4.414  65.396  1.00  0.00    -0.231 C  
HETATM   22  C   UNL     1      -9.698   4.035  63.962  1.00  0.00    -0.158 C  
ENDBRANCH  18  20
ENDBRANCH  13  14
ENDBRANCH   4  12
BRANCH   9  23
HETATM   23  C   UNL     1     -10.386  14.252  65.977  1.00  0.00    -0.318 C  
BRANCH  23  24
HETATM   24  C   UNL     1     -11.363  14.203  67.155  1.00  0.00    -0.348 C  
BRANCH  24  25
HETATM   25  C   UNL     1     -11.548  15.565  67.822  1.00  0.00    -0.193 C  
HETATM   26  C   UNL     1     -10.704  15.704  69.065  1.00  0.00    -0.236 C  
HETATM   27  O   UNL     1      -9.951  14.855  69.514  1.00  0.00    -0.171 OA 
HETATM   28  O   UNL     1     -10.872  16.910  69.657  1.00  0.00    -0.302 OA 
ENDBRANCH  24  25
ENDBRANCH  23  24
ENDBRANCH   9  23
TORSDOF 6
ENDMDL
MODEL      188
REMARK 921   NORMALIZED FREE ENERGY PREDICTED BY IDOCK:   -3.37 KCAL/MOL
REMARK 922        TOTAL FREE ENERGY PREDICTED BY IDOCK:   -5.90 KCAL/MOL
REMARK 923 INTER-LIGAND FREE ENERGY PREDICTED BY IDOCK:   -5.28 KCAL/MOL
REMARK 924 INTRA-LIGAND FREE ENERGY PREDICTED BY IDOCK:   -0.62 KCAL/MOL
REMARK 927      BINDING AFFINITY PREDICTED BY RF-SCORE:    0.00 PKD
ROOT
HETATM    1  C   UNL     1      -9.595  12.066  68.974  1.00  0.00     0.230 C  
HETATM    2  C   UNL     1     -10.959  11.549  69.403  1.00  0.00    -0.233 C  
HETATM    3  C   UNL     1     -11.573  10.940  68.141  1.00  0.00    -0.241 C  
HETATM    4  C   UNL     1     -10.394  10.585  67.210  1.00  0.00    -0.275 C  
HETATM    5  O   UNL     1     -12.403  11.899  67.485  1.00  0.00    -0.326 OA 
HETATM    6  H   UNL     1     -12.784  11.520  66.701  1.00  0.00     0.000 HD 
HETATM    7  C   UNL     1      -9.111  11.061  67.932  1.00  0.00    -0.147 C  
HETATM    8  C   UNL     1      -9.637  13.404  68.245  1.00  0.00    -0.220 C  
HETATM    9  C   UNL     1      -7.944  14.326  66.623  1.00  0.00     0.533 C  
HETATM   10  C   UNL     1      -8.133  11.843  67.049  1.00  0.00    -0.167 C  
HETATM   11  C   UNL     1      -8.531  13.285  67.235  1.00  0.00    -0.203 C  
ENDROOT
BRANCH   4  12
HETATM   12  C   UNL     1     -10.312   9.101  66.937  1.00  0.00    -0.321 C  
HETATM   13  C   UNL     1     -10.144   8.201  67.918  1.00  0.00    -0.246 C  
BRANCH  13  14
HETATM   14  C   UNL     1     -10.230   6.718  67.731  1.00  0.00    -0.171 C  
HETATM   15  O   UNL     1     -11.193   6.467  66.714  1.00  0.00    -0.681 OA 
HETATM   16  C   UNL     1      -8.871   6.087  67.340  1.00  0.00    -0.106 C  
HETATM   17  H   UNL     1     -11.247   5.526  66.595  1.00  0.00     0.000 HD 
HETATM   18  C   UNL     1      -7.804   6.277  68.438  1.00  0.00    -0.105 C  
HETATM   19  C   UNL     1      -8.338   6.610  65.999  1.00  0.00    -0.134 C  
BRANCH  18  20
HETATM   20  C   UNL     1      -8.244   5.596  69.723  1.00  0.00    -0.106 C  
HETATM   21  C   UNL     1      -8.620   5.011  70.826  1.00  0.00    -0.132 C  
HETATM   22  C   UNL     1      -9.059   4.330  72.112  1.00  0.00    -0.150 C  
ENDBRANCH  18  20
ENDBRANCH  13  14
ENDBRANCH   4  12
BRANCH   9  23
HETATM   23  C   UNL     1      -8.330  15.762  66.855  1.00  0.00    -0.283 C  
BRANCH  23  24
HETATM   24  C   UNL     1      -9.808  16.029  66.560  1.00  0.00    -0.284 C  
BRANCH  24  25
HETATM   25  C   UNL     1     -10.397  17.124  67.447  1.00  0.00    -0.333 C  
HETATM   26  C   UNL     1     -10.721  18.372  66.663  1.00  0.00    -0.212 C  
HETATM   27  O   UNL     1     -10.550  18.526  65.465  1.00  0.00    -0.621 OA 
HETATM   28  O   UNL     1     -11.240  19.343  67.451  1.00  0.00    -0.348 OA 
ENDBRANCH  24  25
ENDBRANCH  23  24
ENDBRANCH   9  23
TORSDOF 6
ENDMDL
MODEL      189
REMARK 921   NORMALIZED FREE ENERGY PREDICTED BY IDOCK:   -3.37 KCAL/MOL
REMARK 922        TOTAL FREE ENERGY PREDICTED BY IDOCK:   -5.90 KCAL/MOL
REMARK 923 INTER-LIGAND FREE ENERGY PREDICTED BY IDOCK:   -5.29 KCAL/MOL
REMARK 924 INTRA-LIGAND FREE ENERGY PREDICTED BY IDOCK:   -0.61 KCAL/MOL
REMARK 927      BINDING AFFINITY PREDICTED BY RF-SCORE:    0.00 PKD
ROOT
HETATM    1  C   UNL     1     -10.370   6.325  69.758  1.00  0.00    -0.260 C  
HETATM    2  C   UNL     1     -11.680   7.026  70.082  1.00  0.00    -0.238 C  
HETATM    3  C   UNL     1     -11.282   8.289  70.848  1.00  0.00    -0.265 C  
HETATM    4  C   UNL     1      -9.822   8.598  70.451  1.00  0.00    -0.207 C  
HETATM    5  O   UNL     1     -11.333   8.050  72.255  1.00  0.00    -0.299 OA 
HETATM    6  H   UNL     1     -11.085   8.834  72.730  1.00  0.00     0.000 HD 
HETATM    7  C   UNL     1      -9.380   7.458  69.503  1.00  0.00    -0.156 C  
HETATM    8  C   UNL     1      -9.781   5.537  70.923  1.00  0.00    -0.231 C  
HETATM    9  C   UNL     1      -7.370   4.907  71.289  1.00  0.00    -0.069 C  
HETATM   10  C   UNL     1      -8.004   6.861  69.819  1.00  0.00    -0.124 C  
HETATM   11  C   UNL     1      -8.299   5.707  70.743  1.00  0.00    -0.123 C  
ENDROOT
BRANCH   4  12
HETATM   12  C   UNL     1      -9.693   9.930  69.749  1.00  0.00    -0.266 C  
HETATM   13  C   UNL     1     -10.697  10.463  69.035  1.00  0.00    -0.260 C  
BRANCH  13  14
HETATM   14  C   UNL     1     -10.690  11.849  68.468  1.00  0.00    -0.224 C  
HETATM   15  O   UNL     1     -10.816  12.759  69.554  1.00  0.00    -0.442 OA 
HETATM   16  C   UNL     1      -9.402  12.158  67.666  1.00  0.00    -0.187 C  
HETATM   17  H   UNL     1     -10.811  13.638  69.194  1.00  0.00     0.000 HD 
HETATM   18  C   UNL     1      -9.246  11.237  66.438  1.00  0.00    -0.206 C  
HETATM   19  C   UNL     1      -8.134  12.093  68.530  1.00  0.00    -0.112 C  
BRANCH  18  20
HETATM   20  C   UNL     1     -10.410  11.434  65.481  1.00  0.00    -0.317 C  
HETATM   21  C   UNL     1     -11.408  11.602  64.659  1.00  0.00    -0.284 C  
HETATM   22  C   UNL     1     -12.572  11.798  63.701  1.00  0.00    -0.458 C  
ENDBRANCH  18  20
ENDBRANCH  13  14
ENDBRANCH   4  12
BRANCH   9  23
HETATM   23  C   UNL     1      -7.689   3.733  72.176  1.00  0.00    -0.063 C  
BRANCH  23  24
HETATM   24  C   UNL     1      -7.601   4.081  73.665  1.00  0.00    -0.076 C  
BRANCH  24  25
HETATM   25  C   UNL     1      -6.801   5.355  73.925  1.00  0.00    -0.077 C  
HETATM   26  C   UNL     1      -7.693   6.519  74.283  1.00  0.00    -0.097 C  
HETATM   27  O   UNL     1      -8.910   6.485  74.367  1.00  0.00    -0.141 OA 
HETATM   28  O   UNL     1      -6.983   7.649  74.511  1.00  0.00    -0.106 OA 
ENDBRANCH  24  25
ENDBRANCH  23  24
ENDBRANCH   9  23
TORSDOF 6
ENDMDL
MODEL      190
REMARK 921   NORMALIZED FREE ENERGY PREDICTED BY IDOCK:   -3.37 KCAL/MOL
REMARK 922        TOTAL FREE ENERGY PREDICTED BY IDOCK:   -5.90 KCAL/MOL
REMARK 923 INTER-LIGAND FREE ENERGY PREDICTED BY IDOCK:   -5.41 KCAL/MOL
REMARK 924 INTRA-LIGAND FREE ENERGY PREDICTED BY IDOCK:   -0.49 KCAL/MOL
REMARK 927      BINDING AFFINITY PREDICTED BY RF-SCORE:    0.00 PKD
ROOT
HETATM    1  C   UNL     1     -10.627   8.221  68.611  1.00  0.00    -0.144 C  
HETATM    2  C   UNL     1     -10.982   8.717  70.003  1.00  0.00    -0.216 C  
HETATM    3  C   UNL     1     -10.385  10.123  70.092  1.00  0.00    -0.224 C  
HETATM    4  C   UNL     1     -10.235  10.627  68.641  1.00  0.00    -0.196 C  
HETATM    5  O   UNL     1      -9.092  10.071  70.696  1.00  0.00    -0.317 OA 
HETATM    6  H   UNL     1      -8.721  10.945  70.751  1.00  0.00     0.000 HD 
HETATM    7  C   UNL     1     -10.692   9.465  67.728  1.00  0.00    -0.290 C  
HETATM    8  C   UNL     1      -9.195   7.714  68.476  1.00  0.00    -0.143 C  
HETATM    9  C   UNL     1      -7.803   7.573  66.381  1.00  0.00    -0.098 C  
HETATM   10  C   UNL     1      -9.755   9.168  66.552  1.00  0.00    -0.306 C  
HETATM   11  C   UNL     1      -8.813   8.116  67.080  1.00  0.00    -0.143 C  
ENDROOT
BRANCH   4  12
HETATM   12  C   UNL     1     -11.076  11.853  68.375  1.00  0.00    -0.292 C  
HETATM   13  C   UNL     1     -11.363  12.747  69.334  1.00  0.00    -0.267 C  
BRANCH  13  14
HETATM   14  C   UNL     1     -12.038  14.061  69.093  1.00  0.00    -0.337 C  
HETATM   15  O   UNL     1     -13.064  14.204  70.069  1.00  0.00    -0.348 OA 
HETATM   16  C   UNL     1     -11.059  15.258  69.176  1.00  0.00    -0.266 C  
HETATM   17  H   UNL     1     -13.492  15.038  69.916  1.00  0.00     0.000 HD 
HETATM   18  C   UNL     1      -9.958  15.186  68.098  1.00  0.00    -0.221 C  
HETATM   19  C   UNL     1     -10.420  15.407  70.564  1.00  0.00    -0.140 C  
BRANCH  18  20
HETATM   20  C   UNL     1     -10.577  15.228  66.710  1.00  0.00    -0.304 C  
HETATM   21  C   UNL     1     -11.109  15.262  65.520  1.00  0.00    -0.330 C  
HETATM   22  C   UNL     1     -11.729  15.303  64.133  1.00  0.00    -0.115 C  
ENDBRANCH  18  20
ENDBRANCH  13  14
ENDBRANCH   4  12
BRANCH   9  23
HETATM   23  C   UNL     1      -6.900   6.493  66.913  1.00  0.00    -0.066 C  
BRANCH  23  24
HETATM   24  C   UNL     1      -7.610   5.143  67.042  1.00  0.00    -0.088 C  
BRANCH  24  25
HETATM   25  C   UNL     1      -8.984   5.135  66.376  1.00  0.00    -0.125 C  
HETATM   26  C   UNL     1      -9.033   4.199  65.193  1.00  0.00    -0.135 C  
HETATM   27  O   UNL     1      -8.108   3.514  64.788  1.00  0.00    -0.089 OA 
HETATM   28  O   UNL     1     -10.250   4.196  64.601  1.00  0.00    -0.209 OA 
ENDBRANCH  24  25
ENDBRANCH  23  24
ENDBRANCH   9  23
TORSDOF 6
ENDMDL
MODEL      191
REMARK 921   NORMALIZED FREE ENERGY PREDICTED BY IDOCK:   -3.35 KCAL/MOL
REMARK 922        TOTAL FREE ENERGY PREDICTED BY IDOCK:   -5.87 KCAL/MOL
REMARK 923 INTER-LIGAND FREE ENERGY PREDICTED BY IDOCK:   -4.56 KCAL/MOL
REMARK 924 INTRA-LIGAND FREE ENERGY PREDICTED BY IDOCK:   -1.31 KCAL/MOL
REMARK 927      BINDING AFFINITY PREDICTED BY RF-SCORE:    0.00 PKD
ROOT
HETATM    1  C   UNL     1      -9.806   6.137  69.393  1.00  0.00    -0.191 C  
HETATM    2  C   UNL     1     -11.123   6.861  69.161  1.00  0.00    -0.205 C  
HETATM    3  C   UNL     1     -11.003   8.172  69.941  1.00  0.00    -0.168 C  
HETATM    4  C   UNL     1      -9.493   8.450  70.097  1.00  0.00    -0.165 C  
HETATM    5  O   UNL     1     -11.580   8.028  71.239  1.00  0.00    -0.267 OA 
HETATM    6  H   UNL     1     -11.505   8.842  71.723  1.00  0.00     0.000 HD 
HETATM    7  C   UNL     1      -8.761   7.248  69.455  1.00  0.00    -0.137 C  
HETATM    8  C   UNL     1      -9.712   5.428  70.739  1.00  0.00    -0.239 C  
HETATM    9  C   UNL     1      -7.627   4.819  72.015  1.00  0.00    -0.090 C  
HETATM   10  C   UNL     1      -7.617   6.672  70.297  1.00  0.00    -0.096 C  
HETATM   11  C   UNL     1      -8.265   5.583  71.114  1.00  0.00    -0.120 C  
ENDROOT
BRANCH   4  12
HETATM   12  C   UNL     1      -9.077   9.732  69.413  1.00  0.00    -0.209 C  
HETATM   13  C   UNL     1      -9.863  10.819  69.391  1.00  0.00    -0.112 C  
BRANCH  13  14
HETATM   14  C   UNL     1      -9.437  12.163  68.886  1.00  0.00     0.179 C  
HETATM   15  O   UNL     1      -8.039  12.103  68.628  1.00  0.00    -0.244 OA 
HETATM   16  C   UNL     1     -10.194  12.584  67.601  1.00  0.00    -0.220 C  
HETATM   17  H   UNL     1      -7.769  12.955  68.307  1.00  0.00     0.000 HD 
HETATM   18  C   UNL     1     -11.711  12.723  67.839  1.00  0.00    -0.408 C  
HETATM   19  C   UNL     1      -9.936  11.634  66.423  1.00  0.00    -0.235 C  
BRANCH  18  20
HETATM   20  C   UNL     1     -11.985  13.801  68.876  1.00  0.00    -0.394 C  
HETATM   21  C   UNL     1     -12.218  14.726  69.765  1.00  0.00    -0.337 C  
HETATM   22  C   UNL     1     -12.490  15.804  70.801  1.00  0.00    -0.420 C  
ENDBRANCH  18  20
ENDBRANCH  13  14
ENDBRANCH   4  12
BRANCH   9  23
HETATM   23  C   UNL     1      -8.284   3.709  72.790  1.00  0.00    -0.082 C  
BRANCH  23  24
HETATM   24  C   UNL     1      -7.985   2.326  72.205  1.00  0.00    -0.053 C  
BRANCH  24  25
HETATM   25  C   UNL     1      -9.108   1.812  71.307  1.00  0.00    -0.142 C  
HETATM   26  C   UNL     1      -8.766   1.945  69.843  1.00  0.00    -0.058 C  
HETATM   27  O   UNL     1      -7.728   2.401  69.392  1.00  0.00    -0.043 OA 
HETATM   28  O   UNL     1      -9.764   1.492  69.048  1.00  0.00    -0.101 OA 
ENDBRANCH  24  25
ENDBRANCH  23  24
ENDBRANCH   9  23
TORSDOF 6
ENDMDL
MODEL      192
REMARK 921   NORMALIZED FREE ENERGY PREDICTED BY IDOCK:   -3.32 KCAL/MOL
REMARK 922        TOTAL FREE ENERGY PREDICTED BY IDOCK:   -5.84 KCAL/MOL
REMARK 923 INTER-LIGAND FREE ENERGY PREDICTED BY IDOCK:   -4.59 KCAL/MOL
REMARK 924 INTRA-LIGAND FREE ENERGY PREDICTED BY IDOCK:   -1.25 KCAL/MOL
REMARK 927      BINDING AFFINITY PREDICTED BY RF-SCORE:    0.00 PKD
ROOT
HETATM    1  C   UNL     1     -11.467   7.275  70.092  1.00  0.00    -0.197 C  
HETATM    2  C   UNL     1     -11.902   8.408  71.008  1.00  0.00    -0.278 C  
HETATM    3  C   UNL     1     -10.610   9.129  71.396  1.00  0.00    -0.341 C  
HETATM    4  C   UNL     1      -9.583   8.809  70.290  1.00  0.00    -0.198 C  
HETATM    5  O   UNL     1     -10.118   8.627  72.638  1.00  0.00    -0.251 OA 
HETATM    6  H   UNL     1      -9.316   9.075  72.879  1.00  0.00     0.000 HD 
HETATM    7  C   UNL     1     -10.288   7.845  69.307  1.00  0.00    -0.222 C  
HETATM    8  C   UNL     1     -10.907   6.061  70.824  1.00  0.00    -0.358 C  
HETATM    9  C   UNL     1      -9.320   4.321  69.929  1.00  0.00    -0.232 C  
HETATM   10  C   UNL     1      -9.455   6.625  68.900  1.00  0.00    -0.130 C  
HETATM   11  C   UNL     1      -9.833   5.562  69.900  1.00  0.00    -0.259 C  
ENDROOT
BRANCH   4  12
HETATM   12  C   UNL     1      -9.130  10.051  69.557  1.00  0.00    -0.236 C  
HETATM   13  C   UNL     1      -7.839  10.286  69.276  1.00  0.00    -0.142 C  
BRANCH  13  14
HETATM   14  C   UNL     1      -7.350  11.402  68.405  1.00  0.00    -0.095 C  
HETATM   15  O   UNL     1      -7.915  12.611  68.898  1.00  0.00    -0.322 OA 
HETATM   16  C   UNL     1      -5.805  11.509  68.386  1.00  0.00    -0.045 C  
HETATM   17  H   UNL     1      -7.605  13.319  68.346  1.00  0.00     0.000 HD 
HETATM   18  C   UNL     1      -5.141  10.245  67.803  1.00  0.00    -0.030 C  
HETATM   19  C   UNL     1      -5.214  11.818  69.769  1.00  0.00    -0.070 C  
BRANCH  18  20
HETATM   20  C   UNL     1      -5.579  10.037  66.363  1.00  0.00    -0.046 C  
HETATM   21  C   UNL     1      -5.955   9.860  65.127  1.00  0.00    -0.095 C  
HETATM   22  C   UNL     1      -6.392   9.653  63.686  1.00  0.00    -0.109 C  
ENDBRANCH  18  20
ENDBRANCH  13  14
ENDBRANCH   4  12
BRANCH   9  23
HETATM   23  C   UNL     1      -9.743   3.261  70.911  1.00  0.00    -0.187 C  
BRANCH  23  24
HETATM   24  C   UNL     1      -8.947   3.321  72.218  1.00  0.00    -0.131 C  
BRANCH  24  25
HETATM   25  C   UNL     1      -9.699   4.046  73.332  1.00  0.00    -0.146 C  
HETATM   26  C   UNL     1      -9.150   5.430  73.575  1.00  0.00    -0.128 C  
HETATM   27  O   UNL     1      -8.220   5.944  72.975  1.00  0.00    -0.117 OA 
HETATM   28  O   UNL     1      -9.815   6.071  74.565  1.00  0.00    -0.220 OA 
ENDBRANCH  24  25
ENDBRANCH  23  24
ENDBRANCH   9  23
TORSDOF 6
ENDMDL
MODEL      193
REMARK 921   NORMALIZED FREE ENERGY PREDICTED BY IDOCK:   -3.28 KCAL/MOL
REMARK 922        TOTAL FREE ENERGY PREDICTED BY IDOCK:   -5.77 KCAL/MOL
REMARK 923 INTER-LIGAND FREE ENERGY PREDICTED BY IDOCK:   -4.97 KCAL/MOL
REMARK 924 INTRA-LIGAND FREE ENERGY PREDICTED BY IDOCK:   -0.80 KCAL/MOL
REMARK 927      BINDING AFFINITY PREDICTED BY RF-SCORE:    0.00 PKD
ROOT
HETATM    1  C   UNL     1      -6.717  10.260  69.118  1.00  0.00    -0.058 C  
HETATM    2  C   UNL     1      -6.708   9.879  70.590  1.00  0.00    -0.097 C  
HETATM    3  C   UNL     1      -7.842   8.865  70.749  1.00  0.00    -0.119 C  
HETATM    4  C   UNL     1      -8.078   8.251  69.353  1.00  0.00    -0.115 C  
HETATM    5  O   UNL     1      -9.037   9.524  71.169  1.00  0.00    -0.303 OA 
HETATM    6  H   UNL     1      -9.742   8.893  71.268  1.00  0.00     0.000 HD 
HETATM    7  C   UNL     1      -7.110   8.977  68.390  1.00  0.00    -0.076 C  
HETATM    8  C   UNL     1      -7.793  11.274  68.743  1.00  0.00    -0.139 C  
HETATM    9  C   UNL     1      -8.836  11.644  66.481  1.00  0.00    -0.188 C  
HETATM   10  C   UNL     1      -7.746   9.444  67.076  1.00  0.00    -0.091 C  
HETATM   11  C   UNL     1      -8.201  10.853  67.360  1.00  0.00    -0.117 C  
ENDROOT
BRANCH   4  12
HETATM   12  C   UNL     1      -7.807   6.765  69.332  1.00  0.00    -0.113 C  
HETATM   13  C   UNL     1      -7.751   6.063  68.189  1.00  0.00    -0.102 C  
BRANCH  13  14
HETATM   14  C   UNL     1      -7.316   4.633  68.093  1.00  0.00    -0.066 C  
HETATM   15  O   UNL     1      -6.402   4.389  69.155  1.00  0.00    -0.030 OA 
HETATM   16  C   UNL     1      -8.504   3.643  68.178  1.00  0.00    -0.108 C  
HETATM   17  H   UNL     1      -6.126   3.482  69.094  1.00  0.00     0.000 HD 
HETATM   18  C   UNL     1      -9.498   3.824  67.013  1.00  0.00    -0.227 C  
HETATM   19  C   UNL     1      -9.250   3.724  69.518  1.00  0.00    -0.226 C  
BRANCH  18  20
HETATM   20  C   UNL     1      -8.807   3.559  65.686  1.00  0.00    -0.129 C  
HETATM   21  C   UNL     1      -8.213   3.331  64.547  1.00  0.00    -0.090 C  
HETATM   22  C   UNL     1      -7.521   3.065  63.220  1.00  0.00    -0.058 C  
ENDBRANCH  18  20
ENDBRANCH  13  14
ENDBRANCH   4  12
BRANCH   9  23
HETATM   23  C   UNL     1      -9.244  13.064  66.771  1.00  0.00    -0.229 C  
BRANCH  23  24
HETATM   24  C   UNL     1     -10.056  13.687  65.632  1.00  0.00    -0.299 C  
BRANCH  24  25
HETATM   25  C   UNL     1     -11.548  13.375  65.735  1.00  0.00    -0.358 C  
HETATM   26  C   UNL     1     -12.051  12.619  64.529  1.00  0.00    -0.417 C  
HETATM   27  O   UNL     1     -11.378  12.278  63.570  1.00  0.00    -0.433 OA 
HETATM   28  O   UNL     1     -13.374  12.347  64.619  1.00  0.00    -0.778 OA 
ENDBRANCH  24  25
ENDBRANCH  23  24
ENDBRANCH   9  23
TORSDOF 6
ENDMDL
MODEL      194
REMARK 921   NORMALIZED FREE ENERGY PREDICTED BY IDOCK:   -3.16 KCAL/MOL
REMARK 922        TOTAL FREE ENERGY PREDICTED BY IDOCK:   -5.61 KCAL/MOL
REMARK 923 INTER-LIGAND FREE ENERGY PREDICTED BY IDOCK:   -4.23 KCAL/MOL
REMARK 924 INTRA-LIGAND FREE ENERGY PREDICTED BY IDOCK:   -1.38 KCAL/MOL
REMARK 927      BINDING AFFINITY PREDICTED BY RF-SCORE:    0.00 PKD
ROOT
HETATM    1  C   UNL     1      -9.224   8.780  71.198  1.00  0.00    -0.299 C  
HETATM    2  C   UNL     1      -7.774   9.143  70.919  1.00  0.00    -0.152 C  
HETATM    3  C   UNL     1      -7.372   8.291  69.714  1.00  0.00    -0.065 C  
HETATM    4  C   UNL     1      -8.680   7.928  68.980  1.00  0.00    -0.138 C  
HETATM    5  O   UNL     1      -6.742   7.086  70.150  1.00  0.00    -0.049 OA 
HETATM    6  H   UNL     1      -6.492   6.557  69.401  1.00  0.00     0.000 HD 
HETATM    7  C   UNL     1      -9.831   8.529  69.820  1.00  0.00    -0.186 C  
HETATM    8  C   UNL     1      -9.404   7.470  71.956  1.00  0.00    -0.165 C  
HETATM    9  C   UNL     1     -11.426   5.968  71.973  1.00  0.00    -0.343 C  
HETATM   10  C   UNL     1     -11.005   7.576  70.071  1.00  0.00    -0.252 C  
HETATM   11  C   UNL     1     -10.670   6.905  71.378  1.00  0.00    -0.247 C  
ENDROOT
BRANCH   4  12
HETATM   12  C   UNL     1      -8.720   8.488  67.577  1.00  0.00    -0.135 C  
HETATM   13  C   UNL     1      -8.108   9.636  67.247  1.00  0.00    -0.110 C  
BRANCH  13  14
HETATM   14  C   UNL     1      -7.964  10.148  65.847  1.00  0.00    -0.134 C  
HETATM   15  O   UNL     1      -8.469  11.478  65.821  1.00  0.00    -0.368 OA 
HETATM   16  C   UNL     1      -6.496  10.130  65.355  1.00  0.00    -0.117 C  
HETATM   17  H   UNL     1      -8.377  11.803  64.933  1.00  0.00     0.000 HD 
HETATM   18  C   UNL     1      -5.916   8.701  65.306  1.00  0.00    -0.048 C  
HETATM   19  C   UNL     1      -5.579  11.036  66.188  1.00  0.00    -0.147 C  
BRANCH  18  20
HETATM   20  C   UNL     1      -6.710   7.844  64.334  1.00  0.00    -0.056 C  
HETATM   21  C   UNL     1      -7.390   7.108  63.500  1.00  0.00    -0.082 C  
HETATM   22  C   UNL     1      -8.184   6.249  62.529  1.00  0.00    -0.067 C  
ENDBRANCH  18  20
ENDBRANCH  13  14
ENDBRANCH   4  12
BRANCH   9  23
HETATM   23  C   UNL     1     -11.094   5.340  73.300  1.00  0.00    -0.376 C  
BRANCH  23  24
HETATM   24  C   UNL     1      -9.932   4.346  73.206  1.00  0.00    -0.183 C  
BRANCH  24  25
HETATM   25  C   UNL     1     -10.121   3.325  72.086  1.00  0.00    -0.199 C  
HETATM   26  C   UNL     1      -9.116   3.513  70.976  1.00  0.00    -0.110 C  
HETATM   27  O   UNL     1      -8.243   4.364  70.941  1.00  0.00    -0.076 OA 
HETATM   28  O   UNL     1      -9.287   2.609  69.982  1.00  0.00    -0.128 OA 
ENDBRANCH  24  25
ENDBRANCH  23  24
ENDBRANCH   9  23
TORSDOF 6
ENDMDL
MODEL      195
REMARK 921   NORMALIZED FREE ENERGY PREDICTED BY IDOCK:   -3.10 KCAL/MOL
REMARK 922        TOTAL FREE ENERGY PREDICTED BY IDOCK:   -5.53 KCAL/MOL
REMARK 923 INTER-LIGAND FREE ENERGY PREDICTED BY IDOCK:   -4.45 KCAL/MOL
REMARK 924 INTRA-LIGAND FREE ENERGY PREDICTED BY IDOCK:   -1.08 KCAL/MOL
REMARK 927      BINDING AFFINITY PREDICTED BY RF-SCORE:    0.00 PKD
ROOT
HETATM    1  C   UNL     1      -6.987  15.705  68.937  1.00  0.00    -0.130 C  
HETATM    2  C   UNL     1      -7.894  15.314  70.092  1.00  0.00     0.415 C  
HETATM    3  C   UNL     1      -9.298  15.234  69.492  1.00  0.00    -0.195 C  
HETATM    4  C   UNL     1      -9.113  14.994  67.978  1.00  0.00    -0.178 C  
HETATM    5  O   UNL     1      -9.985  16.472  69.679  1.00  0.00    -0.177 OA 
HETATM    6  H   UNL     1     -10.858  16.422  69.305  1.00  0.00     0.000 HD 
HETATM    7  C   UNL     1      -7.588  15.005  67.721  1.00  0.00    -0.175 C  
HETATM    8  C   UNL     1      -7.018  17.191  68.595  1.00  0.00    -0.209 C  
HETATM    9  C   UNL     1      -6.455  18.274  66.392  1.00  0.00    -0.237 C  
HETATM   10  C   UNL     1      -7.148  15.848  66.519  1.00  0.00     0.419 C  
HETATM   11  C   UNL     1      -6.856  17.208  67.101  1.00  0.00    -0.211 C  
ENDROOT
BRANCH   4  12
HETATM   12  C   UNL     1      -9.701  13.675  67.536  1.00  0.00    -0.227 C  
HETATM   13  C   UNL     1     -10.913  13.586  66.965  1.00  0.00    -0.297 C  
BRANCH  13  14
HETATM   14  C   UNL     1     -11.471  12.340  66.350  1.00  0.00    -0.378 C  
HETATM   15  O   UNL     1     -12.353  11.749  67.298  1.00  0.00    -0.211 OA 
HETATM   16  C   UNL     1     -12.226  12.616  65.026  1.00  0.00    -0.535 C  
HETATM   17  H   UNL     1     -12.707  10.959  66.908  1.00  0.00     0.000 HD 
HETATM   18  C   UNL     1     -11.301  13.203  63.940  1.00  0.00    -0.420 C  
HETATM   19  C   UNL     1     -13.447  13.527  65.218  1.00  0.00     0.745 C  
BRANCH  18  20
HETATM   20  C   UNL     1     -10.190  12.221  63.609  1.00  0.00    -0.430 C  
HETATM   21  C   UNL     1      -9.237  11.377  63.325  1.00  0.00    -0.200 C  
HETATM   22  C   UNL     1      -8.127  10.393  62.993  1.00  0.00    -0.146 C  
ENDBRANCH  18  20
ENDBRANCH  13  14
ENDBRANCH   4  12
BRANCH   9  23
HETATM   23  C   UNL     1      -6.128  19.612  67.000  1.00  0.00    -0.184 C  
BRANCH  23  24
HETATM   24  C   UNL     1      -7.358  20.517  67.125  1.00  0.00    -0.374 C  
BRANCH  24  25
HETATM   25  C   UNL     1      -8.306  20.070  68.235  1.00  0.00    -0.177 C  
HETATM   26  C   UNL     1      -9.576  19.468  67.685  1.00  0.00    -0.336 C  
HETATM   27  O   UNL     1      -9.847  19.334  66.504  1.00  0.00    -0.326 OA 
HETATM   28  O   UNL     1     -10.417  19.076  68.671  1.00  0.00    -0.278 OA 
ENDBRANCH  24  25
ENDBRANCH  23  24
ENDBRANCH   9  23
TORSDOF 6
ENDMDL
MODEL      196
REMARK 921   NORMALIZED FREE ENERGY PREDICTED BY IDOCK:   -3.09 KCAL/MOL
REMARK 922        TOTAL FREE ENERGY PREDICTED BY IDOCK:   -5.53 KCAL/MOL
REMARK 923 INTER-LIGAND FREE ENERGY PREDICTED BY IDOCK:   -4.42 KCAL/MOL
REMARK 924 INTRA-LIGAND FREE ENERGY PREDICTED BY IDOCK:   -1.10 KCAL/MOL
REMARK 927      BINDING AFFINITY PREDICTED BY RF-SCORE:    0.00 PKD
ROOT
HETATM    1  C   UNL     1      -9.856   6.487  69.551  1.00  0.00    -0.167 C  
HETATM    2  C   UNL     1     -10.855   7.633  69.579  1.00  0.00    -0.171 C  
HETATM    3  C   UNL     1     -10.156   8.756  70.346  1.00  0.00    -0.192 C  
HETATM    4  C   UNL     1      -8.640   8.488  70.228  1.00  0.00    -0.137 C  
HETATM    5  O   UNL     1     -10.523   8.712  71.726  1.00  0.00    -0.268 OA 
HETATM    6  H   UNL     1     -10.088   9.410  72.203  1.00  0.00     0.000 HD 
HETATM    7  C   UNL     1      -8.493   7.165  69.441  1.00  0.00    -0.134 C  
HETATM    8  C   UNL     1      -9.795   5.681  70.844  1.00  0.00    -0.237 C  
HETATM    9  C   UNL     1      -7.875   4.295  71.704  1.00  0.00    -0.078 C  
HETATM   10  C   UNL     1      -7.502   6.166  70.048  1.00  0.00    -0.087 C  
HETATM   11  C   UNL     1      -8.345   5.302  70.950  1.00  0.00    -0.116 C  
ENDROOT
BRANCH   4  12
HETATM   12  C   UNL     1      -7.921   9.602  69.503  1.00  0.00    -0.125 C  
HETATM   13  C   UNL     1      -8.572  10.511  68.761  1.00  0.00    -0.146 C  
BRANCH  13  14
HETATM   14  C   UNL     1      -7.939  11.731  68.167  1.00  0.00    -0.146 C  
HETATM   15  O   UNL     1      -6.541  11.658  68.421  1.00  0.00    -0.057 OA 
HETATM   16  C   UNL     1      -8.194  11.853  66.644  1.00  0.00    -0.088 C  
HETATM   17  H   UNL     1      -6.139  12.431  68.044  1.00  0.00     0.000 HD 
HETATM   18  C   UNL     1      -9.695  11.997  66.315  1.00  0.00    -0.251 C  
HETATM   19  C   UNL     1      -7.595  10.686  65.846  1.00  0.00    -0.138 C  
BRANCH  18  20
HETATM   20  C   UNL     1     -10.254  13.258  66.951  1.00  0.00    -0.250 C  
HETATM   21  C   UNL     1     -10.735  14.341  67.495  1.00  0.00    -0.270 C  
HETATM   22  C   UNL     1     -11.296  15.603  68.130  1.00  0.00    -0.340 C  
ENDBRANCH  18  20
ENDBRANCH  13  14
ENDBRANCH   4  12
BRANCH   9  23
HETATM   23  C   UNL     1      -8.742   3.417  72.566  1.00  0.00    -0.097 C  
BRANCH  23  24
HETATM   24  C   UNL     1      -8.945   3.990  73.972  1.00  0.00    -0.091 C  
BRANCH  24  25
HETATM   25  C   UNL     1      -8.219   5.318  74.176  1.00  0.00    -0.109 C  
HETATM   26  C   UNL     1      -9.183   6.463  74.377  1.00  0.00    -0.189 C  
HETATM   27  O   UNL     1     -10.400   6.377  74.384  1.00  0.00    -0.332 OA 
HETATM   28  O   UNL     1      -8.538   7.640  74.555  1.00  0.00    -0.208 OA 
ENDBRANCH  24  25
ENDBRANCH  23  24
ENDBRANCH   9  23
TORSDOF 6
ENDMDL
MODEL      197
REMARK 921   NORMALIZED FREE ENERGY PREDICTED BY IDOCK:   -3.08 KCAL/MOL
REMARK 922        TOTAL FREE ENERGY PREDICTED BY IDOCK:   -5.51 KCAL/MOL
REMARK 923 INTER-LIGAND FREE ENERGY PREDICTED BY IDOCK:   -5.23 KCAL/MOL
REMARK 924 INTRA-LIGAND FREE ENERGY PREDICTED BY IDOCK:   -0.28 KCAL/MOL
REMARK 927      BINDING AFFINITY PREDICTED BY RF-SCORE:    0.00 PKD
ROOT
HETATM    1  C   UNL     1     -11.089  11.423  67.747  1.00  0.00    -0.323 C  
HETATM    2  C   UNL     1     -11.973  12.659  67.770  1.00  0.00    -0.303 C  
HETATM    3  C   UNL     1     -11.153  13.726  68.496  1.00  0.00    -0.267 C  
HETATM    4  C   UNL     1      -9.672  13.313  68.350  1.00  0.00    -0.198 C  
HETATM    5  O   UNL     1     -11.489  13.747  69.883  1.00  0.00    -0.396 OA 
HETATM    6  H   UNL     1     -10.979  14.410  70.334  1.00  0.00     0.000 HD 
HETATM    7  C   UNL     1      -9.670  11.966  67.591  1.00  0.00    -0.186 C  
HETATM    8  C   UNL     1     -11.074  10.642  69.056  1.00  0.00    -0.307 C  
HETATM    9  C   UNL     1      -9.274   9.098  69.906  1.00  0.00    -0.194 C  
HETATM   10  C   UNL     1      -8.764  10.890  68.199  1.00  0.00    -0.133 C  
HETATM   11  C   UNL     1      -9.664  10.129  69.139  1.00  0.00    -0.225 C  
ENDROOT
BRANCH   4  12
HETATM   12  C   UNL     1      -8.868  14.337  67.585  1.00  0.00    -0.196 C  
HETATM   13  C   UNL     1      -8.320  15.408  68.180  1.00  0.00    -0.145 C  
BRANCH  13  14
HETATM   14  C   UNL     1      -7.372  16.356  67.512  1.00  0.00    -0.145 C  
HETATM   15  O   UNL     1      -6.653  15.624  66.526  1.00  0.00    -0.028 OA 
HETATM   16  C   UNL     1      -8.097  17.557  66.855  1.00  0.00    -0.254 C  
HETATM   17  H   UNL     1      -6.053  16.226  66.103  1.00  0.00     0.000 HD 
HETATM   18  C   UNL     1      -8.845  18.422  67.890  1.00  0.00    -0.293 C  
HETATM   19  C   UNL     1      -9.060  17.131  65.739  1.00  0.00     0.137 C  
BRANCH  18  20
HETATM   20  C   UNL     1      -7.865  19.004  68.897  1.00  0.00    -0.332 C  
HETATM   21  C   UNL     1      -7.024  19.502  69.759  1.00  0.00    -0.163 C  
HETATM   22  C   UNL     1      -6.043  20.084  70.764  1.00  0.00    -0.327 C  
ENDBRANCH  18  20
ENDBRANCH  13  14
ENDBRANCH   4  12
BRANCH   9  23
HETATM   23  C   UNL     1     -10.199   8.325  70.807  1.00  0.00    -0.219 C  
BRANCH  23  24
HETATM   24  C   UNL     1     -11.483   7.889  70.096  1.00  0.00    -0.025 C  
BRANCH  24  25
HETATM   25  C   UNL     1     -12.267   6.842  70.887  1.00  0.00    -0.404 C  
HETATM   26  C   UNL     1     -13.665   7.309  71.210  1.00  0.00    -0.224 C  
HETATM   27  O   UNL     1     -14.148   8.384  70.894  1.00  0.00    -0.008 OA 
HETATM   28  O   UNL     1     -14.357   6.383  71.913  1.00  0.00    -0.075 OA 
ENDBRANCH  24  25
ENDBRANCH  23  24
ENDBRANCH   9  23
TORSDOF 6
ENDMDL
MODEL      198
REMARK 921   NORMALIZED FREE ENERGY PREDICTED BY IDOCK:   -2.82 KCAL/MOL
REMARK 922        TOTAL FREE ENERGY PREDICTED BY IDOCK:   -5.15 KCAL/MOL
REMARK 923 INTER-LIGAND FREE ENERGY PREDICTED BY IDOCK:   -5.19 KCAL/MOL
REMARK 924 INTRA-LIGAND FREE ENERGY PREDICTED BY IDOCK:    0.04 KCAL/MOL
REMARK 927      BINDING AFFINITY PREDICTED BY RF-SCORE:    0.00 PKD
ROOT
HETATM    1  C   UNL     1      -8.310  13.295  68.354  1.00  0.00    -0.131 C  
HETATM    2  C   UNL     1      -6.979  13.540  69.047  1.00  0.00    -0.091 C  
HETATM    3  C   UNL     1      -6.157  14.367  68.057  1.00  0.00    -0.150 C  
HETATM    4  C   UNL     1      -7.170  15.064  67.124  1.00  0.00    -0.051 C  
HETATM    5  O   UNL     1      -5.324  13.512  67.272  1.00  0.00    -0.340 OA 
HETATM    6  H   UNL     1      -4.814  14.026  66.657  1.00  0.00     0.000 HD 
HETATM    7  C   UNL     1      -8.570  14.570  67.557  1.00  0.00    -0.198 C  
HETATM    8  C   UNL     1      -8.277  12.178  67.317  1.00  0.00    -0.180 C  
HETATM    9  C   UNL     1      -9.806  11.869  65.339  1.00  0.00    -0.258 C  
HETATM   10  C   UNL     1      -9.481  14.138  66.402  1.00  0.00    -0.289 C  
HETATM   11  C   UNL     1      -9.225  12.660  66.256  1.00  0.00    -0.114 C  
ENDROOT
BRANCH   4  12
HETATM   12  C   UNL     1      -7.099  16.570  67.232  1.00  0.00    -0.205 C  
HETATM   13  C   UNL     1      -7.740  17.380  66.375  1.00  0.00    -0.343 C  
BRANCH  13  14
HETATM   14  C   UNL     1      -7.851  18.865  66.533  1.00  0.00    -0.267 C  
HETATM   15  O   UNL     1      -8.019  19.425  65.236  1.00  0.00    -0.169 OA 
HETATM   16  C   UNL     1      -9.031  19.280  67.446  1.00  0.00    -0.340 C  
HETATM   17  H   UNL     1      -8.089  20.367  65.337  1.00  0.00     0.000 HD 
HETATM   18  C   UNL     1      -8.870  18.747  68.885  1.00  0.00    -0.237 C  
HETATM   19  C   UNL     1     -10.395  18.854  66.883  1.00  0.00    -0.469 C  
BRANCH  18  20
HETATM   20  C   UNL     1      -7.611  19.317  69.518  1.00  0.00    -0.013 C  
HETATM   21  C   UNL     1      -6.532  19.807  70.063  1.00  0.00    -0.328 C  
HETATM   22  C   UNL     1      -5.274  20.377  70.697  1.00  0.00    -0.308 C  
ENDBRANCH  18  20
ENDBRANCH  13  14
ENDBRANCH   4  12
BRANCH   9  23
HETATM   23  C   UNL     1      -9.568  10.386  65.237  1.00  0.00    -0.316 C  
BRANCH  23  24
HETATM   24  C   UNL     1      -8.428   9.911  66.142  1.00  0.00    -0.130 C  
BRANCH  24  25
HETATM   25  C   UNL     1      -7.624   8.768  65.525  1.00  0.00    -0.087 C  
HETATM   26  C   UNL     1      -6.194   9.166  65.254  1.00  0.00    -0.064 C  
HETATM   27  O   UNL     1      -5.701  10.257  65.489  1.00  0.00    -0.073 OA 
HETATM   28  O   UNL     1      -5.483   8.153  64.704  1.00  0.00    -0.039 OA 
ENDBRANCH  24  25
ENDBRANCH  23  24
ENDBRANCH   9  23
TORSDOF 6
ENDMDL
MODEL      199
REMARK 921   NORMALIZED FREE ENERGY PREDICTED BY IDOCK:   -2.77 KCAL/MOL
REMARK 922        TOTAL FREE ENERGY PREDICTED BY IDOCK:   -5.09 KCAL/MOL
REMARK 923 INTER-LIGAND FREE ENERGY PREDICTED BY IDOCK:   -4.65 KCAL/MOL
REMARK 924 INTRA-LIGAND FREE ENERGY PREDICTED BY IDOCK:   -0.44 KCAL/MOL
REMARK 927      BINDING AFFINITY PREDICTED BY RF-SCORE:    0.00 PKD
ROOT
HETATM    1  C   UNL     1     -10.757  13.067  67.646  1.00  0.00    -0.239 C  
HETATM    2  C   UNL     1     -11.810  12.238  66.928  1.00  0.00    -0.334 C  
HETATM    3  C   UNL     1     -11.070  11.565  65.771  1.00  0.00    -0.210 C  
HETATM    4  C   UNL     1      -9.579  11.526  66.169  1.00  0.00    -0.248 C  
HETATM    5  O   UNL     1     -11.207  12.341  64.580  1.00  0.00    -0.302 OA 
HETATM    6  H   UNL     1     -10.746  11.923  63.861  1.00  0.00     0.000 HD 
HETATM    7  C   UNL     1      -9.476  12.244  67.535  1.00  0.00    -0.182 C  
HETATM    8  C   UNL     1     -10.438  14.394  66.966  1.00  0.00    -0.268 C  
HETATM    9  C   UNL     1      -8.319  15.745  67.149  1.00  0.00    -0.231 C  
HETATM   10  C   UNL     1      -8.338  13.266  67.637  1.00  0.00    -0.181 C  
HETATM   11  C   UNL     1      -8.968  14.571  67.224  1.00  0.00    -0.220 C  
ENDROOT
BRANCH   4  12
HETATM   12  C   UNL     1      -9.059  10.113  66.290  1.00  0.00    -0.180 C  
HETATM   13  C   UNL     1      -9.005   9.467  67.465  1.00  0.00    -0.133 C  
BRANCH  13  14
HETATM   14  C   UNL     1      -8.667   8.017  67.621  1.00  0.00    -0.126 C  
HETATM   15  O   UNL     1      -8.854   7.676  68.990  1.00  0.00    -0.135 OA 
HETATM   16  C   UNL     1      -9.540   7.103  66.725  1.00  0.00    -0.230 C  
HETATM   17  H   UNL     1      -8.640   6.756  69.089  1.00  0.00     0.000 HD 
HETATM   18  C   UNL     1      -9.331   7.390  65.224  1.00  0.00     0.713 C  
HETATM   19  C   UNL     1     -11.034   7.186  67.069  1.00  0.00    -0.304 C  
BRANCH  18  20
HETATM   20  C   UNL     1      -7.886   7.128  64.834  1.00  0.00    -0.126 C  
HETATM   21  C   UNL     1      -6.646   6.901  64.500  1.00  0.00    -0.042 C  
HETATM   22  C   UNL     1      -5.200   6.638  64.110  1.00  0.00    -0.026 C  
ENDBRANCH  18  20
ENDBRANCH  13  14
ENDBRANCH   4  12
BRANCH   9  23
HETATM   23  C   UNL     1      -8.978  17.045  66.775  1.00  0.00    -0.267 C  
BRANCH  23  24
HETATM   24  C   UNL     1      -8.710  18.155  67.796  1.00  0.00    -0.259 C  
BRANCH  24  25
HETATM   25  C   UNL     1      -7.724  19.202  67.281  1.00  0.00    -0.255 C  
HETATM   26  C   UNL     1      -6.952  19.850  68.405  1.00  0.00    -0.300 C  
HETATM   27  O   UNL     1      -7.071  19.594  69.592  1.00  0.00    -0.310 OA 
HETATM   28  O   UNL     1      -6.081  20.780  67.948  1.00  0.00    -0.255 OA 
ENDBRANCH  24  25
ENDBRANCH  23  24
ENDBRANCH   9  23
TORSDOF 6
ENDMDL
MODEL      200
REMARK 921   NORMALIZED FREE ENERGY PREDICTED BY IDOCK:   -2.73 KCAL/MOL
REMARK 922        TOTAL FREE ENERGY PREDICTED BY IDOCK:   -5.03 KCAL/MOL
REMARK 923 INTER-LIGAND FREE ENERGY PREDICTED BY IDOCK:   -4.38 KCAL/MOL
REMARK 924 INTRA-LIGAND FREE ENERGY PREDICTED BY IDOCK:   -0.65 KCAL/MOL
REMARK 927      BINDING AFFINITY PREDICTED BY RF-SCORE:    0.00 PKD
ROOT
HETATM    1  C   UNL     1     -10.179  13.623  68.211  1.00  0.00    -0.243 C  
HETATM    2  C   UNL     1      -9.746  14.262  69.521  1.00  0.00     0.392 C  
HETATM    3  C   UNL     1      -8.368  14.863  69.238  1.00  0.00    -0.114 C  
HETATM    4  C   UNL     1      -8.294  15.087  67.712  1.00  0.00    -0.158 C  
HETATM    5  O   UNL     1      -7.342  13.945  69.616  1.00  0.00    -0.332 OA 
HETATM    6  H   UNL     1      -6.486  14.319  69.440  1.00  0.00     0.000 HD 
HETATM    7  C   UNL     1      -9.620  14.544  67.129  1.00  0.00    -0.233 C  
HETATM    8  C   UNL     1      -9.546  12.263  67.940  1.00  0.00    -0.203 C  
HETATM    9  C   UNL     1      -9.193  11.146  65.710  1.00  0.00    -0.234 C  
HETATM   10  C   UNL     1      -9.458  13.652  65.893  1.00  0.00    -0.057 C  
HETATM   11  C   UNL     1      -9.363  12.254  66.449  1.00  0.00    -0.219 C  
ENDROOT
BRANCH   4  12
HETATM   12  C   UNL     1      -8.136  16.547  67.359  1.00  0.00    -0.172 C  
HETATM   13  C   UNL     1      -8.902  17.504  67.906  1.00  0.00    -0.247 C  
BRANCH  13  14
HETATM   14  C   UNL     1      -8.677  18.974  67.730  1.00  0.00    -0.298 C  
HETATM   15  O   UNL     1      -9.805  19.650  68.273  1.00  0.00    -0.370 OA 
HETATM   16  C   UNL     1      -7.382  19.465  68.423  1.00  0.00    -0.347 C  
HETATM   17  H   UNL     1      -9.662  20.583  68.161  1.00  0.00     0.000 HD 
HETATM   18  C   UNL     1      -6.119  18.807  67.831  1.00  0.00    -0.193 C  
HETATM   19  C   UNL     1      -7.410  19.264  69.945  1.00  0.00     0.254 C  
BRANCH  18  20
HETATM   20  C   UNL     1      -5.984  19.159  66.358  1.00  0.00    -0.181 C  
HETATM   21  C   UNL     1      -5.869  19.461  65.095  1.00  0.00    -0.257 C  
HETATM   22  C   UNL     1      -5.735  19.813  63.622  1.00  0.00    -0.326 C  
ENDBRANCH  18  20
ENDBRANCH  13  14
ENDBRANCH   4  12
BRANCH   9  23
HETATM   23  C   UNL     1      -9.143   9.755  66.282  1.00  0.00    -0.192 C  
BRANCH  23  24
HETATM   24  C   UNL     1      -8.769   8.702  65.235  1.00  0.00    -0.200 C  
BRANCH  24  25
HETATM   25  C   UNL     1      -7.484   9.049  64.485  1.00  0.00    -0.104 C  
HETATM   26  C   UNL     1      -7.541   8.619  63.039  1.00  0.00    -0.111 C  
HETATM   27  O   UNL     1      -8.482   8.062  62.498  1.00  0.00    -0.142 OA 
HETATM   28  O   UNL     1      -6.401   8.924  62.376  1.00  0.00    -0.096 OA 
ENDBRANCH  24  25
ENDBRANCH  23  24
ENDBRANCH   9  23
TORSDOF 6
ENDMDL
MODEL      201
REMARK 921   NORMALIZED FREE ENERGY PREDICTED BY IDOCK:   -2.71 KCAL/MOL
REMARK 922        TOTAL FREE ENERGY PREDICTED BY IDOCK:   -5.01 KCAL/MOL
REMARK 923 INTER-LIGAND FREE ENERGY PREDICTED BY IDOCK:   -4.72 KCAL/MOL
REMARK 924 INTRA-LIGAND FREE ENERGY PREDICTED BY IDOCK:   -0.29 KCAL/MOL
REMARK 927      BINDING AFFINITY PREDICTED BY RF-SCORE:    0.00 PKD
ROOT
HETATM    1  C   UNL     1      -8.224  13.031  68.683  1.00  0.00     0.011 C  
HETATM    2  C   UNL     1      -6.768  12.947  69.112  1.00  0.00    -0.086 C  
HETATM    3  C   UNL     1      -6.016  13.883  68.165  1.00  0.00    -0.125 C  
HETATM    4  C   UNL     1      -7.054  14.896  67.636  1.00  0.00    -0.208 C  
HETATM    5  O   UNL     1      -5.489  13.148  67.060  1.00  0.00    -0.333 OA 
HETATM    6  H   UNL     1      -5.022  13.730  66.472  1.00  0.00     0.000 HD 
HETATM    7  C   UNL     1      -8.414  14.481  68.244  1.00  0.00    -0.161 C  
HETATM    8  C   UNL     1      -8.561  12.197  67.452  1.00  0.00    -0.175 C  
HETATM    9  C   UNL     1     -10.452  12.548  65.825  1.00  0.00    -0.296 C  
HETATM   10  C   UNL     1      -9.577  14.445  67.246  1.00  0.00    -0.227 C  
HETATM   11  C   UNL     1      -9.595  13.024  66.742  1.00  0.00    -0.248 C  
ENDROOT
BRANCH   4  12
HETATM   12  C   UNL     1      -6.721  16.314  68.039  1.00  0.00    -0.143 C  
HETATM   13  C   UNL     1      -6.701  17.323  67.154  1.00  0.00    -0.207 C  
BRANCH  13  14
HETATM   14  C   UNL     1      -6.552  18.768  67.520  1.00  0.00    -0.198 C  
HETATM   15  O   UNL     1      -5.177  19.001  67.802  1.00  0.00    -0.169 OA 
HETATM   16  C   UNL     1      -7.030  19.719  66.395  1.00  0.00    -0.239 C  
HETATM   17  H   UNL     1      -5.083  19.918  68.033  1.00  0.00     0.000 HD 
HETATM   18  C   UNL     1      -8.532  19.550  66.089  1.00  0.00    -0.329 C  
HETATM   19  C   UNL     1      -6.215  19.567  65.102  1.00  0.00    -0.300 C  
BRANCH  18  20
HETATM   20  C   UNL     1      -9.360  19.883  67.319  1.00  0.00    -0.470 C  
HETATM   21  C   UNL     1     -10.072  20.168  68.374  1.00  0.00    -0.439 C  
HETATM   22  C   UNL     1     -10.901  20.501  69.604  1.00  0.00     1.001 C  
ENDBRANCH  18  20
ENDBRANCH  13  14
ENDBRANCH   4  12
BRANCH   9  23
HETATM   23  C   UNL     1     -10.481  11.114  65.367  1.00  0.00    -0.321 C  
BRANCH  23  24
HETATM   24  C   UNL     1     -10.239  10.127  66.512  1.00  0.00    -0.288 C  
BRANCH  24  25
HETATM   25  C   UNL     1      -9.281   9.002  66.126  1.00  0.00    -0.272 C  
HETATM   26  C   UNL     1      -9.888   7.639  66.357  1.00  0.00    -0.104 C  
HETATM   27  O   UNL     1     -11.005   7.422  66.795  1.00  0.00    -0.249 OA 
HETATM   28  O   UNL     1      -9.036   6.643  66.018  1.00  0.00    -0.148 OA 
ENDBRANCH  24  25
ENDBRANCH  23  24
ENDBRANCH   9  23
TORSDOF 6
ENDMDL
MODEL      202
REMARK 921   NORMALIZED FREE ENERGY PREDICTED BY IDOCK:   -2.62 KCAL/MOL
REMARK 922        TOTAL FREE ENERGY PREDICTED BY IDOCK:   -4.88 KCAL/MOL
REMARK 923 INTER-LIGAND FREE ENERGY PREDICTED BY IDOCK:   -3.96 KCAL/MOL
REMARK 924 INTRA-LIGAND FREE ENERGY PREDICTED BY IDOCK:   -0.92 KCAL/MOL
REMARK 927      BINDING AFFINITY PREDICTED BY RF-SCORE:    0.00 PKD
ROOT
HETATM    1  C   UNL     1     -10.026   8.001  69.359  1.00  0.00    -0.190 C  
HETATM    2  C   UNL     1     -10.936   6.839  68.994  1.00  0.00    -0.281 C  
HETATM    3  C   UNL     1     -10.241   6.137  67.827  1.00  0.00    -0.172 C  
HETATM    4  C   UNL     1      -8.745   6.504  67.924  1.00  0.00    -0.116 C  
HETATM    5  O   UNL     1     -10.752   6.622  66.585  1.00  0.00    -0.480 OA 
HETATM    6  H   UNL     1     -10.320   6.185  65.859  1.00  0.00     0.000 HD 
HETATM    7  C   UNL     1      -8.613   7.475  69.121  1.00  0.00    -0.136 C  
HETATM    8  C   UNL     1     -10.160   9.211  68.440  1.00  0.00    -0.220 C  
HETATM    9  C   UNL     1      -8.447  11.004  67.999  1.00  0.00    -0.129 C  
HETATM   10  C   UNL     1      -7.766   8.722  68.843  1.00  0.00    -0.095 C  
HETATM   11  C   UNL     1      -8.761   9.753  68.374  1.00  0.00    -0.120 C  
ENDROOT
BRANCH   4  12
HETATM   12  C   UNL     1      -7.874   5.290  68.148  1.00  0.00    -0.088 C  
HETATM   13  C   UNL     1      -8.305   4.215  68.826  1.00  0.00    -0.093 C  
BRANCH  13  14
HETATM   14  C   UNL     1      -7.557   2.922  68.929  1.00  0.00    -0.047 C  
HETATM   15  O   UNL     1      -6.979   2.861  70.228  1.00  0.00    -0.033 OA 
HETATM   16  C   UNL     1      -8.466   1.689  68.697  1.00  0.00    -0.083 C  
HETATM   17  H   UNL     1      -6.505   2.040  70.293  1.00  0.00     0.000 HD 
HETATM   18  C   UNL     1      -9.074   1.673  67.279  1.00  0.00    -0.135 C  
HETATM   19  C   UNL     1      -9.582   1.568  69.744  1.00  0.00    -0.081 C  
BRANCH  18  20
HETATM   20  C   UNL     1      -7.972   1.602  66.235  1.00  0.00    -0.073 C  
HETATM   21  C   UNL     1      -7.026   1.544  65.339  1.00  0.00    -0.042 C  
HETATM   22  C   UNL     1      -5.924   1.475  64.295  1.00  0.00    -0.013 C  
ENDBRANCH  18  20
ENDBRANCH  13  14
ENDBRANCH   4  12
BRANCH   9  23
HETATM   23  C   UNL     1      -9.461  12.032  67.573  1.00  0.00    -0.178 C  
BRANCH  23  24
HETATM   24  C   UNL     1      -9.075  13.451  68.001  1.00  0.00    -0.205 C  
BRANCH  24  25
HETATM   25  C   UNL     1      -9.661  14.522  67.083  1.00  0.00    -0.240 C  
HETATM   26  C   UNL     1      -8.728  15.697  66.919  1.00  0.00    -0.253 C  
HETATM   27  O   UNL     1      -7.630  15.813  67.438  1.00  0.00    -0.154 OA 
HETATM   28  O   UNL     1      -9.251  16.647  66.108  1.00  0.00    -0.300 OA 
ENDBRANCH  24  25
ENDBRANCH  23  24
ENDBRANCH   9  23
TORSDOF 6
ENDMDL
MODEL      203
REMARK 921   NORMALIZED FREE ENERGY PREDICTED BY IDOCK:   -2.52 KCAL/MOL
REMARK 922        TOTAL FREE ENERGY PREDICTED BY IDOCK:   -4.75 KCAL/MOL
REMARK 923 INTER-LIGAND FREE ENERGY PREDICTED BY IDOCK:   -4.26 KCAL/MOL
REMARK 924 INTRA-LIGAND FREE ENERGY PREDICTED BY IDOCK:   -0.49 KCAL/MOL
REMARK 927      BINDING AFFINITY PREDICTED BY RF-SCORE:    0.00 PKD
ROOT
HETATM    1  C   UNL     1     -10.248   5.118  69.850  1.00  0.00    -0.361 C  
HETATM    2  C   UNL     1     -11.222   6.110  70.465  1.00  0.00    -0.403 C  
HETATM    3  C   UNL     1     -10.453   7.430  70.543  1.00  0.00    -0.218 C  
HETATM    4  C   UNL     1      -9.334   7.348  69.483  1.00  0.00    -0.156 C  
HETATM    5  O   UNL     1      -9.855   7.578  71.831  1.00  0.00    -0.162 OA 
HETATM    6  H   UNL     1      -9.378   8.398  71.879  1.00  0.00     0.000 HD 
HETATM    7  C   UNL     1      -9.438   5.940  68.851  1.00  0.00    -0.146 C  
HETATM    8  C   UNL     1      -9.221   4.562  70.831  1.00  0.00    -0.201 C  
HETATM    9  C   UNL     1      -6.949   3.609  70.306  1.00  0.00    -0.034 C  
HETATM   10  C   UNL     1      -8.103   5.200  68.717  1.00  0.00    -0.085 C  
HETATM   11  C   UNL     1      -7.987   4.400  69.990  1.00  0.00    -0.059 C  
ENDROOT
BRANCH   4  12
HETATM   12  C   UNL     1      -9.484   8.405  68.414  1.00  0.00    -0.145 C  
HETATM   13  C   UNL     1     -10.634   9.071  68.221  1.00  0.00    -0.213 C  
BRANCH  13  14
HETATM   14  C   UNL     1     -10.791  10.243  67.302  1.00  0.00    -0.250 C  
HETATM   15  O   UNL     1     -11.946  10.963  67.717  1.00  0.00    -0.691 OA 
HETATM   16  C   UNL     1      -9.554  11.175  67.311  1.00  0.00    -0.182 C  
HETATM   17  H   UNL     1     -12.045  11.707  67.134  1.00  0.00     0.000 HD 
HETATM   18  C   UNL     1      -8.282  10.460  66.811  1.00  0.00    -0.126 C  
HETATM   19  C   UNL     1      -9.293  11.802  68.687  1.00  0.00    -0.096 C  
BRANCH  18  20
HETATM   20  C   UNL     1      -8.468   9.998  65.375  1.00  0.00    -0.158 C  
HETATM   21  C   UNL     1      -8.628   9.602  64.143  1.00  0.00    -0.209 C  
HETATM   22  C   UNL     1      -8.815   9.142  62.707  1.00  0.00    -0.151 C  
ENDBRANCH  18  20
ENDBRANCH  13  14
ENDBRANCH   4  12
BRANCH   9  23
HETATM   23  C   UNL     1      -6.874   2.787  71.564  1.00  0.00    -0.031 C  
BRANCH  23  24
HETATM   24  C   UNL     1      -6.094   3.489  72.679  1.00  0.00    -0.009 C  
BRANCH  24  25
HETATM   25  C   UNL     1      -5.435   4.785  72.211  1.00  0.00    -0.008 C  
HETATM   26  C   UNL     1      -6.132   6.004  72.763  1.00  0.00    -0.049 C  
HETATM   27  O   UNL     1      -7.106   5.996  73.499  1.00  0.00    -0.083 OA 
HETATM   28  O   UNL     1      -5.550   7.152  72.345  1.00  0.00    -0.037 OA 
ENDBRANCH  24  25
ENDBRANCH  23  24
ENDBRANCH   9  23
TORSDOF 6
ENDMDL
MODEL      204
REMARK 921   NORMALIZED FREE ENERGY PREDICTED BY IDOCK:   -2.31 KCAL/MOL
REMARK 922        TOTAL FREE ENERGY PREDICTED BY IDOCK:   -4.47 KCAL/MOL
REMARK 923 INTER-LIGAND FREE ENERGY PREDICTED BY IDOCK:   -4.20 KCAL/MOL
REMARK 924 INTRA-LIGAND FREE ENERGY PREDICTED BY IDOCK:   -0.27 KCAL/MOL
REMARK 927      BINDING AFFINITY PREDICTED BY RF-SCORE:    0.00 PKD
ROOT
HETATM    1  C   UNL     1      -7.190   8.828  64.778  1.00  0.00    -0.091 C  
HETATM    2  C   UNL     1      -5.977   8.004  65.179  1.00  0.00    -0.045 C  
HETATM    3  C   UNL     1      -6.368   7.328  66.494  1.00  0.00    -0.044 C  
HETATM    4  C   UNL     1      -7.911   7.282  66.519  1.00  0.00    -0.115 C  
HETATM    5  O   UNL     1      -5.914   8.105  67.603  1.00  0.00    -0.044 OA 
HETATM    6  H   UNL     1      -6.158   7.685  68.420  1.00  0.00     0.000 HD 
HETATM    7  C   UNL     1      -8.388   8.000  65.235  1.00  0.00    -0.151 C  
HETATM    8  C   UNL     1      -7.317  10.153  65.521  1.00  0.00    -0.143 C  
HETATM    9  C   UNL     1      -9.410  11.495  65.927  1.00  0.00    -0.242 C  
HETATM   10  C   UNL     1      -9.515   9.016  65.450  1.00  0.00    -0.163 C  
HETATM   11  C   UNL     1      -8.802  10.324  65.675  1.00  0.00    -0.186 C  
ENDROOT
BRANCH   4  12
HETATM   12  C   UNL     1      -8.438   5.866  66.545  1.00  0.00    -0.113 C  
HETATM   13  C   UNL     1      -9.558   5.508  65.898  1.00  0.00    -0.085 C  
BRANCH  13  14
HETATM   14  C   UNL     1     -10.031   4.096  65.741  1.00  0.00    -0.190 C  
HETATM   15  O   UNL     1     -11.103   4.101  64.805  1.00  0.00    -0.712 OA 
HETATM   16  C   UNL     1      -8.911   3.143  65.256  1.00  0.00    -0.134 C  
HETATM   17  H   UNL     1     -11.403   3.206  64.706  1.00  0.00     0.000 HD 
HETATM   18  C   UNL     1      -7.747   3.052  66.265  1.00  0.00    -0.077 C  
HETATM   19  C   UNL     1      -8.370   3.519  63.870  1.00  0.00    -0.090 C  
BRANCH  18  20
HETATM   20  C   UNL     1      -8.243   2.499  67.591  1.00  0.00    -0.077 C  
HETATM   21  C   UNL     1      -8.669   2.026  68.730  1.00  0.00    -0.120 C  
HETATM   22  C   UNL     1      -9.166   1.474  70.056  1.00  0.00    -0.161 C  
ENDBRANCH  18  20
ENDBRANCH  13  14
ENDBRANCH   4  12
BRANCH   9  23
HETATM   23  C   UNL     1      -8.680  12.799  66.107  1.00  0.00     0.343 C  
BRANCH  23  24
HETATM   24  C   UNL     1      -9.607  13.935  66.547  1.00  0.00    -0.299 C  
BRANCH  24  25
HETATM   25  C   UNL     1      -9.118  15.306  66.084  1.00  0.00    -0.314 C  
HETATM   26  C   UNL     1     -10.078  16.406  66.464  1.00  0.00    -0.295 C  
HETATM   27  O   UNL     1     -11.127  16.259  67.070  1.00  0.00    -0.158 OA 
HETATM   28  O   UNL     1      -9.645  17.620  66.051  1.00  0.00    -0.493 OA 
ENDBRANCH  24  25
ENDBRANCH  23  24
ENDBRANCH   9  23
TORSDOF 6
ENDMDL
MODEL      205
REMARK 921   NORMALIZED FREE ENERGY PREDICTED BY IDOCK:   -2.18 KCAL/MOL
REMARK 922        TOTAL FREE ENERGY PREDICTED BY IDOCK:   -4.29 KCAL/MOL
REMARK 923 INTER-LIGAND FREE ENERGY PREDICTED BY IDOCK:   -3.48 KCAL/MOL
REMARK 924 INTRA-LIGAND FREE ENERGY PREDICTED BY IDOCK:   -0.81 KCAL/MOL
REMARK 927      BINDING AFFINITY PREDICTED BY RF-SCORE:    0.00 PKD
ROOT
HETATM    1  C   UNL     1      -6.292   9.750  69.603  1.00  0.00    -0.047 C  
HETATM    2  C   UNL     1      -6.414   9.166  71.002  1.00  0.00    -0.081 C  
HETATM    3  C   UNL     1      -7.828   8.588  71.074  1.00  0.00    -0.110 C  
HETATM    4  C   UNL     1      -8.262   8.314  69.618  1.00  0.00    -0.118 C  
HETATM    5  O   UNL     1      -8.723   9.541  71.647  1.00  0.00    -0.206 OA 
HETATM    6  H   UNL     1      -9.602   9.181  71.691  1.00  0.00     0.000 HD 
HETATM    7  C   UNL     1      -7.103   8.806  68.719  1.00  0.00    -0.063 C  
HETATM    8  C   UNL     1      -6.952  11.114  69.437  1.00  0.00    -0.124 C  
HETATM    9  C   UNL     1      -7.804  12.162  67.311  1.00  0.00    -0.176 C  
HETATM   10  C   UNL     1      -7.539   9.659  67.523  1.00  0.00    -0.095 C  
HETATM   11  C   UNL     1      -7.480  11.076  68.031  1.00  0.00    -0.090 C  
ENDROOT
BRANCH   4  12
HETATM   12  C   UNL     1      -8.521   6.846  69.368  1.00  0.00    -0.133 C  
HETATM   13  C   UNL     1      -7.825   6.141  68.462  1.00  0.00    -0.104 C  
BRANCH  13  14
HETATM   14  C   UNL     1      -7.914   4.656  68.294  1.00  0.00    -0.084 C  
HETATM   15  O   UNL     1      -8.077   4.085  69.587  1.00  0.00    -0.055 OA 
HETATM   16  C   UNL     1      -9.087   4.229  67.376  1.00  0.00    -0.155 C  
HETATM   17  H   UNL     1      -8.134   3.143  69.481  1.00  0.00     0.000 HD 
HETATM   18  C   UNL     1      -8.929   4.772  65.941  1.00  0.00    -0.130 C  
HETATM   19  C   UNL     1     -10.458   4.632  67.938  1.00  0.00     0.186 C  
BRANCH  18  20
HETATM   20  C   UNL     1      -7.661   4.224  65.307  1.00  0.00    -0.085 C  
HETATM   21  C   UNL     1      -6.574   3.752  64.764  1.00  0.00    -0.043 C  
HETATM   22  C   UNL     1      -5.306   3.203  64.131  1.00  0.00    -0.009 C  
ENDBRANCH  18  20
ENDBRANCH  13  14
ENDBRANCH   4  12
BRANCH   9  23
HETATM   23  C   UNL     1      -7.697  13.573  67.825  1.00  0.00    -0.163 C  
BRANCH  23  24
HETATM   24  C   UNL     1      -9.050  14.290  67.859  1.00  0.00    -0.190 C  
BRANCH  24  25
HETATM   25  C   UNL     1      -9.695  14.394  66.478  1.00  0.00    -0.305 C  
HETATM   26  C   UNL     1     -10.008  15.824  66.108  1.00  0.00    -0.311 C  
HETATM   27  O   UNL     1      -9.785  16.804  66.800  1.00  0.00    -0.243 OA 
HETATM   28  O   UNL     1     -10.582  15.915  64.885  1.00  0.00    -0.546 OA 
ENDBRANCH  24  25
ENDBRANCH  23  24
ENDBRANCH   9  23
TORSDOF 6
ENDMDL
MODEL      206
REMARK 921   NORMALIZED FREE ENERGY PREDICTED BY IDOCK:   -2.14 KCAL/MOL
REMARK 922        TOTAL FREE ENERGY PREDICTED BY IDOCK:   -4.24 KCAL/MOL
REMARK 923 INTER-LIGAND FREE ENERGY PREDICTED BY IDOCK:   -5.40 KCAL/MOL
REMARK 924 INTRA-LIGAND FREE ENERGY PREDICTED BY IDOCK:    1.16 KCAL/MOL
REMARK 927      BINDING AFFINITY PREDICTED BY RF-SCORE:    0.00 PKD
ROOT
HETATM    1  C   UNL     1      -8.320  12.532  68.270  1.00  0.00    -0.167 C  
HETATM    2  C   UNL     1      -6.906  12.695  68.806  1.00  0.00    -0.096 C  
HETATM    3  C   UNL     1      -6.206  13.626  67.815  1.00  0.00    -0.152 C  
HETATM    4  C   UNL     1      -7.319  14.427  67.106  1.00  0.00     0.091 C  
HETATM    5  O   UNL     1      -5.496  12.864  66.839  1.00  0.00    -0.375 OA 
HETATM    6  H   UNL     1      -5.061  13.442  66.223  1.00  0.00     0.000 HD 
HETATM    7  C   UNL     1      -8.660  13.890  67.660  1.00  0.00    -0.190 C  
HETATM    8  C   UNL     1      -8.439  11.539  67.120  1.00  0.00    -0.158 C  
HETATM    9  C   UNL     1     -10.216  11.457  65.336  1.00  0.00    -0.320 C  
HETATM   10  C   UNL     1      -9.719  13.592  66.593  1.00  0.00    -0.281 C  
HETATM   11  C   UNL     1      -9.509  12.139  66.252  1.00  0.00    -0.238 C  
ENDROOT
BRANCH   4  12
HETATM   12  C   UNL     1      -7.210  15.910  67.370  1.00  0.00    -0.227 C  
HETATM   13  C   UNL     1      -8.152  16.779  66.973  1.00  0.00    -0.225 C  
BRANCH  13  14
HETATM   14  C   UNL     1      -8.186  18.227  67.356  1.00  0.00    -0.237 C  
HETATM   15  O   UNL     1      -9.283  18.412  68.243  1.00  0.00    -0.298 OA 
HETATM   16  C   UNL     1      -6.874  18.694  68.033  1.00  0.00    -0.236 C  
HETATM   17  H   UNL     1      -9.304  19.330  68.486  1.00  0.00     0.000 HD 
HETATM   18  C   UNL     1      -5.657  18.570  67.092  1.00  0.00    -0.142 C  
HETATM   19  C   UNL     1      -6.590  17.957  69.350  1.00  0.00    -0.200 C  
BRANCH  18  20
HETATM   20  C   UNL     1      -5.849  19.448  65.867  1.00  0.00    -0.190 C  
HETATM   21  C   UNL     1      -6.014  20.201  64.814  1.00  0.00    -0.289 C  
HETATM   22  C   UNL     1      -6.206  21.077  63.587  1.00  0.00    -0.330 C  
ENDBRANCH  18  20
ENDBRANCH  13  14
ENDBRANCH   4  12
BRANCH   9  23
HETATM   23  C   UNL     1     -10.018   9.995  65.040  1.00  0.00    -0.320 C  
BRANCH  23  24
HETATM   24  C   UNL     1      -8.539   9.610  64.945  1.00  0.00    -0.188 C  
BRANCH  24  25
HETATM   25  C   UNL     1      -8.298   8.128  65.228  1.00  0.00    -0.160 C  
HETATM   26  C   UNL     1      -9.080   7.647  66.426  1.00  0.00    -0.174 C  
HETATM   27  O   UNL     1      -9.827   8.329  67.109  1.00  0.00    -0.177 OA 
HETATM   28  O   UNL     1      -8.863   6.335  66.678  1.00  0.00    -0.124 OA 
ENDBRANCH  24  25
ENDBRANCH  23  24
ENDBRANCH   9  23
TORSDOF 6
ENDMDL
MODEL      207
REMARK 921   NORMALIZED FREE ENERGY PREDICTED BY IDOCK:   -1.74 KCAL/MOL
REMARK 922        TOTAL FREE ENERGY PREDICTED BY IDOCK:   -3.70 KCAL/MOL
REMARK 923 INTER-LIGAND FREE ENERGY PREDICTED BY IDOCK:   -3.29 KCAL/MOL
REMARK 924 INTRA-LIGAND FREE ENERGY PREDICTED BY IDOCK:   -0.41 KCAL/MOL
REMARK 927      BINDING AFFINITY PREDICTED BY RF-SCORE:    0.00 PKD
ROOT
HETATM    1  C   UNL     1      -8.873   8.153  70.093  1.00  0.00    -0.145 C  
HETATM    2  C   UNL     1      -7.947   8.886  69.135  1.00  0.00    -0.105 C  
HETATM    3  C   UNL     1      -8.780   9.122  67.874  1.00  0.00    -0.128 C  
HETATM    4  C   UNL     1     -10.259   9.075  68.313  1.00  0.00    -0.241 C  
HETATM    5  O   UNL     1      -8.549   8.078  66.928  1.00  0.00    -0.123 OA 
HETATM    6  H   UNL     1      -9.067   8.225  66.144  1.00  0.00     0.000 HD 
HETATM    7  C   UNL     1     -10.254   8.744  69.823  1.00  0.00    -0.205 C  
HETATM    8  C   UNL     1      -9.015   6.663  69.805  1.00  0.00    -0.143 C  
HETATM    9  C   UNL     1     -10.930   5.151  70.433  1.00  0.00     0.226 C  
HETATM   10  C   UNL     1     -11.243   7.651  70.243  1.00  0.00    -0.230 C  
HETATM   11  C   UNL     1     -10.445   6.374  70.165  1.00  0.00    -0.269 C  
ENDROOT
BRANCH   4  12
HETATM   12  C   UNL     1     -10.965  10.390  68.076  1.00  0.00    -0.347 C  
HETATM   13  C   UNL     1     -10.433  11.362  67.318  1.00  0.00    -0.241 C  
BRANCH  13  14
HETATM   14  C   UNL     1     -11.156  12.607  66.906  1.00  0.00    -0.273 C  
HETATM   15  O   UNL     1     -12.329  12.212  66.205  1.00  0.00    -0.536 OA 
HETATM   16  C   UNL     1     -11.536  13.501  68.112  1.00  0.00    -0.368 C  
HETATM   17  H   UNL     1     -12.788  13.001  65.944  1.00  0.00     0.000 HD 
HETATM   18  C   UNL     1     -10.295  14.009  68.875  1.00  0.00    -0.183 C  
HETATM   19  C   UNL     1     -12.498  12.806  69.086  1.00  0.00     0.322 C  
BRANCH  18  20
HETATM   20  C   UNL     1      -9.428  14.859  67.961  1.00  0.00    -0.198 C  
HETATM   21  C   UNL     1      -8.684  15.588  67.176  1.00  0.00    -0.234 C  
HETATM   22  C   UNL     1      -7.817  16.438  66.262  1.00  0.00    -0.212 C  
ENDBRANCH  18  20
ENDBRANCH  13  14
ENDBRANCH   4  12
BRANCH   9  23
HETATM   23  C   UNL     1     -10.105   3.893  70.389  1.00  0.00     0.115 C  
BRANCH  23  24
HETATM   24  C   UNL     1     -10.022   3.293  68.983  1.00  0.00     0.456 C  
BRANCH  24  25
HETATM   25  C   UNL     1      -8.585   3.157  68.485  1.00  0.00    -0.121 C  
HETATM   26  C   UNL     1      -7.797   2.159  69.299  1.00  0.00    -0.042 C  
HETATM   27  O   UNL     1      -8.222   1.517  70.246  1.00  0.00    -0.041 OA 
HETATM   28  O   UNL     1      -6.522   2.042  68.859  1.00  0.00    -0.028 OA 
ENDBRANCH  24  25
ENDBRANCH  23  24
ENDBRANCH   9  23
TORSDOF 6
ENDMDL
MODEL      208
REMARK 921   NORMALIZED FREE ENERGY PREDICTED BY IDOCK:   -0.99 KCAL/MOL
REMARK 922        TOTAL FREE ENERGY PREDICTED BY IDOCK:   -2.69 KCAL/MOL
REMARK 923 INTER-LIGAND FREE ENERGY PREDICTED BY IDOCK:   -1.60 KCAL/MOL
REMARK 924 INTRA-LIGAND FREE ENERGY PREDICTED BY IDOCK:   -1.09 KCAL/MOL
REMARK 927      BINDING AFFINITY PREDICTED BY RF-SCORE:    0.00 PKD
ROOT
HETATM    1  C   UNL     1      -9.436  13.721  69.037  1.00  0.00     0.202 C  
HETATM    2  C   UNL     1      -8.719  14.482  70.141  1.00  0.00     1.197 C  
HETATM    3  C   UNL     1      -7.321  14.769  69.589  1.00  0.00    -0.114 C  
HETATM    4  C   UNL     1      -7.440  14.715  68.051  1.00  0.00    -0.137 C  
HETATM    5  O   UNL     1      -6.407  13.758  70.014  1.00  0.00    -0.222 OA 
HETATM    6  H   UNL     1      -5.539  13.936  69.671  1.00  0.00     0.000 HD 
HETATM    7  C   UNL     1      -8.905  14.330  67.742  1.00  0.00    -0.185 C  
HETATM    8  C   UNL     1      -9.070  12.243  68.960  1.00  0.00     0.421 C  
HETATM    9  C   UNL     1      -9.229  10.722  66.958  1.00  0.00    -0.166 C  
HETATM   10  C   UNL     1      -9.069  13.229  66.689  1.00  0.00    -0.181 C  
HETATM   11  C   UNL     1      -9.113  11.951  67.487  1.00  0.00    -0.178 C  
ENDROOT
BRANCH   4  12
HETATM   12  C   UNL     1      -7.109  16.042  67.409  1.00  0.00    -0.222 C  
HETATM   13  C   UNL     1      -7.846  17.144  67.620  1.00  0.00    -0.187 C  
BRANCH  13  14
HETATM   14  C   UNL     1      -7.470  18.517  67.156  1.00  0.00    -0.222 C  
HETATM   15  O   UNL     1      -7.225  18.446  65.756  1.00  0.00    -0.433 OA 
HETATM   16  C   UNL     1      -8.572  19.566  67.447  1.00  0.00    -0.346 C  
HETATM   17  H   UNL     1      -6.987  19.317  65.462  1.00  0.00     0.000 HD 
HETATM   18  C   UNL     1      -8.837  19.727  68.958  1.00  0.00    -0.085 C  
HETATM   19  C   UNL     1      -9.888  19.263  66.716  1.00  0.00    -0.430 C  
BRANCH  18  20
HETATM   20  C   UNL     1      -7.581  20.211  69.664  1.00  0.00     0.346 C  
HETATM   21  C   UNL     1      -6.503  20.625  70.269  1.00  0.00     0.387 C  
HETATM   22  C   UNL     1      -5.246  21.108  70.974  1.00  0.00     0.061 C  
ENDBRANCH  18  20
ENDBRANCH  13  14
ENDBRANCH   4  12
BRANCH   9  23
HETATM   23  C   UNL     1      -9.313   9.461  67.776  1.00  0.00    -0.144 C  
BRANCH  23  24
HETATM   24  C   UNL     1     -10.693   9.262  68.409  1.00  0.00    -0.192 C  
BRANCH  24  25
HETATM   25  C   UNL     1     -10.645   9.251  69.935  1.00  0.00    -0.246 C  
HETATM   26  C   UNL     1     -11.606  10.246  70.538  1.00  0.00    -0.338 C  
HETATM   27  O   UNL     1     -12.350  10.986  69.914  1.00  0.00    -0.322 OA 
HETATM   28  O   UNL     1     -11.560  10.238  71.891  1.00  0.00     0.136 OA 
ENDBRANCH  24  25
ENDBRANCH  23  24
ENDBRANCH   9  23
TORSDOF 6
ENDMDL
MODEL      209
REMARK 921   NORMALIZED FREE ENERGY PREDICTED BY IDOCK:   -0.38 KCAL/MOL
REMARK 922        TOTAL FREE ENERGY PREDICTED BY IDOCK:   -1.86 KCAL/MOL
REMARK 923 INTER-LIGAND FREE ENERGY PREDICTED BY IDOCK:   -0.71 KCAL/MOL
REMARK 924 INTRA-LIGAND FREE ENERGY PREDICTED BY IDOCK:   -1.15 KCAL/MOL
REMARK 927      BINDING AFFINITY PREDICTED BY RF-SCORE:    0.00 PKD
ROOT
HETATM    1  C   UNL     1     -10.559   4.542  66.820  1.00  0.00     0.221 C  
HETATM    2  C   UNL     1     -11.503   5.695  66.518  1.00  0.00     0.803 C  
HETATM    3  C   UNL     1     -10.822   6.935  67.099  1.00  0.00    -0.377 C  
HETATM    4  C   UNL     1      -9.315   6.608  67.180  1.00  0.00    -0.150 C  
HETATM    5  O   UNL     1     -11.306   7.191  68.418  1.00  0.00    -0.465 OA 
HETATM    6  H   UNL     1     -10.883   7.962  68.779  1.00  0.00     0.000 HD 
HETATM    7  C   UNL     1      -9.162   5.146  66.699  1.00  0.00    -0.129 C  
HETATM    8  C   UNL     1     -10.645   4.024  68.251  1.00  0.00     1.482 C  
HETATM    9  C   UNL     1      -8.871   2.798  69.553  1.00  0.00    -0.151 C  
HETATM   10  C   UNL     1      -8.273   4.270  67.589  1.00  0.00    -0.098 C  
HETATM   11  C   UNL     1      -9.228   3.637  68.567  1.00  0.00    -0.220 C  
ENDROOT
BRANCH   4  12
HETATM   12  C   UNL     1      -8.487   7.525  66.311  1.00  0.00    -0.141 C  
HETATM   13  C   UNL     1      -9.008   8.185  65.265  1.00  0.00     0.040 C  
BRANCH  13  14
HETATM   14  C   UNL     1      -8.286   9.235  64.479  1.00  0.00    -0.151 C  
HETATM   15  O   UNL     1      -8.169   8.768  63.140  1.00  0.00    -0.172 OA 
HETATM   16  C   UNL     1      -9.015  10.601  64.500  1.00  0.00    -0.214 C  
HETATM   17  H   UNL     1      -7.711   9.434  62.642  1.00  0.00     0.000 HD 
HETATM   18  C   UNL     1      -9.117  11.185  65.925  1.00  0.00    -0.218 C  
HETATM   19  C   UNL     1     -10.410  10.540  63.862  1.00  0.00    -0.085 C  
BRANCH  18  20
HETATM   20  C   UNL     1      -7.729  11.425  66.495  1.00  0.00    -0.093 C  
HETATM   21  C   UNL     1      -6.538  11.633  66.984  1.00  0.00    -0.144 C  
HETATM   22  C   UNL     1      -5.150  11.875  67.555  1.00  0.00    -0.076 C  
ENDBRANCH  18  20
ENDBRANCH  13  14
ENDBRANCH   4  12
BRANCH   9  23
HETATM   23  C   UNL     1      -9.847   2.144  70.494  1.00  0.00     0.063 C  
BRANCH  23  24
HETATM   24  C   UNL     1      -9.653   2.589  71.946  1.00  0.00    -0.208 C  
BRANCH  24  25
HETATM   25  C   UNL     1      -8.241   3.101  72.221  1.00  0.00    -0.067 C  
HETATM   26  C   UNL     1      -7.867   2.971  73.677  1.00  0.00    -0.061 C  
HETATM   27  O   UNL     1      -8.578   2.516  74.558  1.00  0.00    -0.069 OA 
HETATM   28  O   UNL     1      -6.615   3.428  73.920  1.00  0.00    -0.031 OA 
ENDBRANCH  24  25
ENDBRANCH  23  24
ENDBRANCH   9  23
TORSDOF 6
ENDMDL
MODEL      210
REMARK 921   NORMALIZED FREE ENERGY PREDICTED BY IDOCK:    0.23 KCAL/MOL
REMARK 922        TOTAL FREE ENERGY PREDICTED BY IDOCK:   -1.04 KCAL/MOL
REMARK 923 INTER-LIGAND FREE ENERGY PREDICTED BY IDOCK:   -0.10 KCAL/MOL
REMARK 924 INTRA-LIGAND FREE ENERGY PREDICTED BY IDOCK:   -0.93 KCAL/MOL
REMARK 927      BINDING AFFINITY PREDICTED BY RF-SCORE:    0.00 PKD
ROOT
HETATM    1  C   UNL     1      -8.085  10.447  65.420  1.00  0.00    -0.152 C  
HETATM    2  C   UNL     1      -8.862  11.726  65.152  1.00  0.00     0.387 C  
HETATM    3  C   UNL     1     -10.239  11.498  65.776  1.00  0.00    -0.249 C  
HETATM    4  C   UNL     1     -10.055  10.412  66.857  1.00  0.00    -0.269 C  
HETATM    5  O   UNL     1     -11.153  11.014  64.791  1.00  0.00    -0.158 OA 
HETATM    6  H   UNL     1     -12.009  10.872  65.179  1.00  0.00     0.000 HD 
HETATM    7  C   UNL     1      -8.571   9.981  66.790  1.00  0.00    -0.129 C  
HETATM    8  C   UNL     1      -8.421   9.302  64.470  1.00  0.00    -0.195 C  
HETATM    9  C   UNL     1      -8.150   6.832  64.881  1.00  0.00    -0.112 C  
HETATM   10  C   UNL     1      -8.343   8.465  66.799  1.00  0.00    -0.109 C  
HETATM   11  C   UNL     1      -8.310   8.083  65.341  1.00  0.00    -0.161 C  
ENDROOT
BRANCH   4  12
HETATM   12  C   UNL     1     -10.381  10.924  68.240  1.00  0.00    -0.194 C  
HETATM   13  C   UNL     1     -10.198  12.206  68.590  1.00  0.00    -0.186 C  
BRANCH  13  14
HETATM   14  C   UNL     1     -10.664  12.807  69.880  1.00  0.00     0.884 C  
HETATM   15  O   UNL     1      -9.816  13.912  70.172  1.00  0.00     0.737 OA 
HETATM   16  C   UNL     1     -12.139  13.275  69.821  1.00  0.00    -0.355 C  
HETATM   17  H   UNL     1     -10.111  14.293  70.990  1.00  0.00     0.000 HD 
HETATM   18  C   UNL     1     -13.111  12.104  69.566  1.00  0.00     1.625 C  
HETATM   19  C   UNL     1     -12.371  14.380  68.780  1.00  0.00    -0.080 C  
BRANCH  18  20
HETATM   20  C   UNL     1     -13.022  11.092  70.696  1.00  0.00    -0.213 C  
HETATM   21  C   UNL     1     -12.945  10.223  71.666  1.00  0.00    -0.570 C  
HETATM   22  C   UNL     1     -12.855   9.212  72.797  1.00  0.00    -0.117 C  
ENDBRANCH  18  20
ENDBRANCH  13  14
ENDBRANCH   4  12
BRANCH   9  23
HETATM   23  C   UNL     1      -8.079   6.478  63.420  1.00  0.00    -0.018 C  
BRANCH  23  24
HETATM   24  C   UNL     1      -7.992   4.967  63.185  1.00  0.00    -0.085 C  
BRANCH  24  25
HETATM   25  C   UNL     1      -8.851   4.169  64.163  1.00  0.00    -0.133 C  
HETATM   26  C   UNL     1     -10.245   3.938  63.632  1.00  0.00    -0.184 C  
HETATM   27  O   UNL     1     -10.670   4.325  62.556  1.00  0.00    -0.149 OA 
HETATM   28  O   UNL     1     -11.007   3.234  64.502  1.00  0.00     0.078 OA 
ENDBRANCH  24  25
ENDBRANCH  23  24
ENDBRANCH   9  23
TORSDOF 6
ENDMDL
MODEL      211
REMARK 921   NORMALIZED FREE ENERGY PREDICTED BY IDOCK:    1.68 KCAL/MOL
REMARK 922        TOTAL FREE ENERGY PREDICTED BY IDOCK:    0.92 KCAL/MOL
REMARK 923 INTER-LIGAND FREE ENERGY PREDICTED BY IDOCK:   -3.09 KCAL/MOL
REMARK 924 INTRA-LIGAND FREE ENERGY PREDICTED BY IDOCK:    4.00 KCAL/MOL
REMARK 927      BINDING AFFINITY PREDICTED BY RF-SCORE:    0.00 PKD
ROOT
HETATM    1  C   UNL     1      -6.133   5.579  68.437  1.00  0.00    -0.022 C  
HETATM    2  C   UNL     1      -6.793   5.171  67.129  1.00  0.00    -0.060 C  
HETATM    3  C   UNL     1      -7.986   6.113  66.970  1.00  0.00    -0.102 C  
HETATM    4  C   UNL     1      -7.668   7.367  67.813  1.00  0.00    -0.112 C  
HETATM    5  O   UNL     1      -9.169   5.502  67.486  1.00  0.00    -0.111 OA 
HETATM    6  H   UNL     1      -9.911   6.089  67.388  1.00  0.00     0.000 HD 
HETATM    7  C   UNL     1      -6.311   7.093  68.502  1.00  0.00    -0.036 C  
HETATM    8  C   UNL     1      -6.831   5.043  69.681  1.00  0.00    -0.052 C  
HETATM    9  C   UNL     1      -6.764   5.994  72.013  1.00  0.00    -0.064 C  
HETATM   10  C   UNL     1      -6.272   7.434  69.996  1.00  0.00    -0.027 C  
HETATM   11  C   UNL     1      -6.652   6.147  70.684  1.00  0.00    -0.048 C  
ENDROOT
BRANCH   4  12
HETATM   12  C   UNL     1      -7.573   8.614  66.965  1.00  0.00    -0.084 C  
HETATM   13  C   UNL     1      -7.046   8.602  65.731  1.00  0.00    -0.079 C  
BRANCH  13  14
HETATM   14  C   UNL     1      -7.084   9.759  64.781  1.00  0.00    -0.126 C  
HETATM   15  O   UNL     1      -5.993   9.613  63.880  1.00  0.00    -0.089 OA 
HETATM   16  C   UNL     1      -8.414   9.838  63.993  1.00  0.00    -0.186 C  
HETATM   17  H   UNL     1      -6.017  10.347  63.278  1.00  0.00     0.000 HD 
HETATM   18  C   UNL     1      -9.628  10.058  64.919  1.00  0.00    -0.375 C  
HETATM   19  C   UNL     1      -8.652   8.609  63.105  1.00  0.00    -0.035 C  
BRANCH  18  20
HETATM   20  C   UNL     1      -9.488  11.373  65.667  1.00  0.00    -0.253 C  
HETATM   21  C   UNL     1      -9.367  12.502  66.309  1.00  0.00    -0.177 C  
HETATM   22  C   UNL     1      -9.225  13.817  67.057  1.00  0.00    -0.256 C  
ENDBRANCH  18  20
ENDBRANCH  13  14
ENDBRANCH   4  12
BRANCH   9  23
HETATM   23  C   UNL     1      -7.104   4.689  72.681  1.00  0.00    -0.076 C  
BRANCH  23  24
HETATM   24  C   UNL     1      -7.478   4.864  74.156  1.00  0.00    -0.082 C  
BRANCH  24  25
HETATM   25  C   UNL     1      -8.638   5.836  74.357  1.00  0.00    -0.114 C  
HETATM   26  C   UNL     1      -9.286   6.220  73.050  1.00  0.00    -0.138 C  
HETATM   27  O   UNL     1      -8.953   5.823  71.945  1.00  0.00    -0.138 OA 
HETATM   28  O   UNL     1     -10.313   7.085  73.229  1.00  0.00    -0.243 OA 
ENDBRANCH  24  25
ENDBRANCH  23  24
ENDBRANCH   9  23
TORSDOF 6
ENDMDL
MODEL      212
REMARK 921   NORMALIZED FREE ENERGY PREDICTED BY IDOCK:    3.95 KCAL/MOL
REMARK 922        TOTAL FREE ENERGY PREDICTED BY IDOCK:    3.98 KCAL/MOL
REMARK 923 INTER-LIGAND FREE ENERGY PREDICTED BY IDOCK:    4.74 KCAL/MOL
REMARK 924 INTRA-LIGAND FREE ENERGY PREDICTED BY IDOCK:   -0.76 KCAL/MOL
REMARK 927      BINDING AFFINITY PREDICTED BY RF-SCORE:    0.00 PKD
ROOT
HETATM    1  C   UNL     1      -9.987  14.391  64.564  1.00  0.00     0.562 C  
HETATM    2  C   UNL     1     -11.199  15.057  63.932  1.00  0.00     0.713 C  
HETATM    3  C   UNL     1     -12.115  15.418  65.102  1.00  0.00     0.242 C  
HETATM    4  C   UNL     1     -11.212  15.509  66.351  1.00  0.00    -0.098 C  
HETATM    5  O   UNL     1     -13.082  14.388  65.309  1.00  0.00    -0.629 OA 
HETATM    6  H   UNL     1     -13.650  14.613  66.036  1.00  0.00     0.000 HD 
HETATM    7  C   UNL     1      -9.787  15.130  65.885  1.00  0.00    -0.372 C  
HETATM    8  C   UNL     1     -10.208  12.934  64.953  1.00  0.00    -0.296 C  
HETATM    9  C   UNL     1      -8.979  11.606  66.707  1.00  0.00    -0.189 C  
HETATM   10  C   UNL     1      -9.062  14.130  66.793  1.00  0.00    -0.266 C  
HETATM   11  C   UNL     1      -9.395  12.782  66.208  1.00  0.00    -0.156 C  
ENDROOT
BRANCH   4  12
HETATM   12  C   UNL     1     -11.206  16.897  66.949  1.00  0.00     0.414 C  
HETATM   13  C   UNL     1     -10.407  17.231  67.974  1.00  0.00    -0.353 C  
BRANCH  13  14
HETATM   14  C   UNL     1     -10.230  18.625  68.491  1.00  0.00    -0.353 C  
HETATM   15  O   UNL     1     -11.457  19.318  68.291  1.00  0.00     0.280 OA 
HETATM   16  C   UNL     1      -9.842  18.659  69.990  1.00  0.00     1.000 C  
HETATM   17  H   UNL     1     -11.344  20.202  68.619  1.00  0.00     0.000 HD 
HETATM   18  C   UNL     1      -8.487  17.973  70.257  1.00  0.00     3.064 C  
HETATM   19  C   UNL     1     -10.921  18.051  70.897  1.00  0.00     2.567 C  
BRANCH  18  20
HETATM   20  C   UNL     1      -7.377  18.690  69.505  1.00  0.00     0.102 C  
HETATM   21  C   UNL     1      -6.425  19.304  68.859  1.00  0.00    -0.308 C  
HETATM   22  C   UNL     1      -5.316  20.021  68.106  1.00  0.00    -0.211 C  
ENDBRANCH  18  20
ENDBRANCH  13  14
ENDBRANCH   4  12
BRANCH   9  23
HETATM   23  C   UNL     1      -9.289  10.273  66.082  1.00  0.00    -0.211 C  
BRANCH  23  24
HETATM   24  C   UNL     1     -10.678   9.753  66.465  1.00  0.00    -0.059 C  
BRANCH  24  25
HETATM   25  C   UNL     1     -10.682   9.018  67.804  1.00  0.00    -0.217 C  
HETATM   26  C   UNL     1      -9.979   7.685  67.719  1.00  0.00    -0.174 C  
HETATM   27  O   UNL     1      -9.457   7.217  66.720  1.00  0.00    -0.156 OA 
HETATM   28  O   UNL     1      -9.987   7.033  68.905  1.00  0.00    -0.154 OA 
ENDBRANCH  24  25
ENDBRANCH  23  24
ENDBRANCH   9  23
TORSDOF 6
ENDMDL
MODEL      213
REMARK 921   NORMALIZED FREE ENERGY PREDICTED BY IDOCK:    4.18 KCAL/MOL
REMARK 922        TOTAL FREE ENERGY PREDICTED BY IDOCK:    4.30 KCAL/MOL
REMARK 923 INTER-LIGAND FREE ENERGY PREDICTED BY IDOCK:    0.45 KCAL/MOL
REMARK 924 INTRA-LIGAND FREE ENERGY PREDICTED BY IDOCK:    3.85 KCAL/MOL
REMARK 927      BINDING AFFINITY PREDICTED BY RF-SCORE:    0.00 PKD
ROOT
HETATM    1  C   UNL     1     -11.225  10.678  70.911  1.00  0.00     0.080 C  
HETATM    2  C   UNL     1     -11.992   9.377  71.090  1.00  0.00    -0.413 C  
HETATM    3  C   UNL     1     -11.589   8.506  69.900  1.00  0.00     0.287 C  
HETATM    4  C   UNL     1     -10.224   9.036  69.413  1.00  0.00    -0.206 C  
HETATM    5  O   UNL     1     -12.539   8.646  68.842  1.00  0.00     3.014 OA 
HETATM    6  H   UNL     1     -12.288   8.105  68.103  1.00  0.00     0.000 HD 
HETATM    7  C   UNL     1      -9.891  10.258  70.300  1.00  0.00     0.122 C  
HETATM    8  C   UNL     1     -11.845  11.631  69.894  1.00  0.00    -0.434 C  
HETATM    9  C   UNL     1     -10.688  13.445  68.583  1.00  0.00    -0.275 C  
HETATM   10  C   UNL     1      -9.399  11.491  69.533  1.00  0.00     0.813 C  
HETATM   11  C   UNL     1     -10.651  12.284  69.258  1.00  0.00     0.064 C  
ENDROOT
BRANCH   4  12
HETATM   12  C   UNL     1      -9.133   7.997  69.536  1.00  0.00    -0.152 C  
HETATM   13  C   UNL     1      -9.386   6.736  69.920  1.00  0.00    -0.157 C  
BRANCH  13  14
HETATM   14  C   UNL     1      -8.383   5.624  69.892  1.00  0.00    -0.117 C  
HETATM   15  O   UNL     1      -8.215   5.230  68.535  1.00  0.00    -0.090 OA 
HETATM   16  C   UNL     1      -7.018   6.039  70.495  1.00  0.00    -0.059 C  
HETATM   17  H   UNL     1      -7.578   4.525  68.517  1.00  0.00     0.000 HD 
HETATM   18  C   UNL     1      -7.132   6.420  71.985  1.00  0.00    -0.082 C  
HETATM   19  C   UNL     1      -6.346   7.179  69.716  1.00  0.00    -0.035 C  
BRANCH  18  20
HETATM   20  C   UNL     1      -7.621   5.231  72.796  1.00  0.00    -0.097 C  
HETATM   21  C   UNL     1      -8.041   4.210  73.491  1.00  0.00    -0.090 C  
HETATM   22  C   UNL     1      -8.530   3.021  74.301  1.00  0.00    -0.069 C  
ENDBRANCH  18  20
ENDBRANCH  13  14
ENDBRANCH   4  12
BRANCH   9  23
HETATM   23  C   UNL     1     -11.944  14.243  68.356  1.00  0.00    -0.344 C  
BRANCH  23  24
HETATM   24  C   UNL     1     -11.696  15.753  68.395  1.00  0.00    -0.279 C  
BRANCH  24  25
HETATM   25  C   UNL     1     -11.837  16.336  69.800  1.00  0.00     0.017 C  
HETATM   26  C   UNL     1     -12.045  15.262  70.839  1.00  0.00    -0.344 C  
HETATM   27  O   UNL     1     -12.096  14.062  70.623  1.00  0.00    -0.326 OA 
HETATM   28  O   UNL     1     -12.173  15.780  72.083  1.00  0.00    -0.376 OA 
ENDBRANCH  24  25
ENDBRANCH  23  24
ENDBRANCH   9  23
TORSDOF 6
ENDMDL
MODEL      214
REMARK 921   NORMALIZED FREE ENERGY PREDICTED BY IDOCK:    4.19 KCAL/MOL
REMARK 922        TOTAL FREE ENERGY PREDICTED BY IDOCK:    4.31 KCAL/MOL
REMARK 923 INTER-LIGAND FREE ENERGY PREDICTED BY IDOCK:    0.35 KCAL/MOL
REMARK 924 INTRA-LIGAND FREE ENERGY PREDICTED BY IDOCK:    3.95 KCAL/MOL
REMARK 927      BINDING AFFINITY PREDICTED BY RF-SCORE:    0.00 PKD
ROOT
HETATM    1  C   UNL     1     -11.225  10.678  70.911  1.00  0.00     0.080 C  
HETATM    2  C   UNL     1     -11.992   9.377  71.090  1.00  0.00    -0.413 C  
HETATM    3  C   UNL     1     -11.589   8.506  69.900  1.00  0.00     0.287 C  
HETATM    4  C   UNL     1     -10.224   9.036  69.413  1.00  0.00    -0.206 C  
HETATM    5  O   UNL     1     -12.539   8.646  68.842  1.00  0.00     3.014 OA 
HETATM    6  H   UNL     1     -12.288   8.105  68.103  1.00  0.00     0.000 HD 
HETATM    7  C   UNL     1      -9.891  10.258  70.300  1.00  0.00     0.122 C  
HETATM    8  C   UNL     1     -11.845  11.631  69.894  1.00  0.00    -0.434 C  
HETATM    9  C   UNL     1     -10.688  13.445  68.583  1.00  0.00    -0.275 C  
HETATM   10  C   UNL     1      -9.399  11.491  69.533  1.00  0.00     0.813 C  
HETATM   11  C   UNL     1     -10.651  12.284  69.258  1.00  0.00     0.064 C  
ENDROOT
BRANCH   4  12
HETATM   12  C   UNL     1      -9.133   7.997  69.536  1.00  0.00    -0.152 C  
HETATM   13  C   UNL     1      -8.694   7.291  68.483  1.00  0.00    -0.123 C  
BRANCH  13  14
HETATM   14  C   UNL     1      -7.505   6.381  68.508  1.00  0.00    -0.088 C  
HETATM   15  O   UNL     1      -6.339   7.196  68.511  1.00  0.00    -0.033 OA 
HETATM   16  C   UNL     1      -7.498   5.445  69.742  1.00  0.00    -0.066 C  
HETATM   17  H   UNL     1      -5.585   6.619  68.528  1.00  0.00     0.000 HD 
HETATM   18  C   UNL     1      -8.713   4.495  69.758  1.00  0.00    -0.111 C  
HETATM   19  C   UNL     1      -7.420   6.213  71.070  1.00  0.00    -0.085 C  
BRANCH  18  20
HETATM   20  C   UNL     1      -8.695   3.597  68.532  1.00  0.00    -0.137 C  
HETATM   21  C   UNL     1      -8.678   2.827  67.480  1.00  0.00    -0.136 C  
HETATM   22  C   UNL     1      -8.658   1.929  66.254  1.00  0.00    -0.112 C  
ENDBRANCH  18  20
ENDBRANCH  13  14
ENDBRANCH   4  12
BRANCH   9  23
HETATM   23  C   UNL     1     -11.944  14.243  68.356  1.00  0.00    -0.344 C  
BRANCH  23  24
HETATM   24  C   UNL     1     -11.696  15.753  68.395  1.00  0.00    -0.279 C  
BRANCH  24  25
HETATM   25  C   UNL     1     -11.837  16.336  69.800  1.00  0.00     0.017 C  
HETATM   26  C   UNL     1     -12.045  15.262  70.839  1.00  0.00    -0.344 C  
HETATM   27  O   UNL     1     -12.096  14.062  70.623  1.00  0.00    -0.326 OA 
HETATM   28  O   UNL     1     -12.173  15.780  72.083  1.00  0.00    -0.376 OA 
ENDBRANCH  24  25
ENDBRANCH  23  24
ENDBRANCH   9  23
TORSDOF 6
ENDMDL
MODEL      215
REMARK 921   NORMALIZED FREE ENERGY PREDICTED BY IDOCK:    4.67 KCAL/MOL
REMARK 922        TOTAL FREE ENERGY PREDICTED BY IDOCK:    4.96 KCAL/MOL
REMARK 923 INTER-LIGAND FREE ENERGY PREDICTED BY IDOCK:    6.07 KCAL/MOL
REMARK 924 INTRA-LIGAND FREE ENERGY PREDICTED BY IDOCK:   -1.11 KCAL/MOL
REMARK 927      BINDING AFFINITY PREDICTED BY RF-SCORE:    0.00 PKD
ROOT
HETATM    1  C   UNL     1      -9.801  13.379  68.771  1.00  0.00    -0.030 C  
HETATM    2  C   UNL     1      -9.863  13.894  70.201  1.00  0.00     1.899 C  
HETATM    3  C   UNL     1      -8.470  14.457  70.485  1.00  0.00     2.327 C  
HETATM    4  C   UNL     1      -7.848  14.797  69.114  1.00  0.00    -0.141 C  
HETATM    5  O   UNL     1      -7.660  13.470  71.124  1.00  0.00     2.515 OA 
HETATM    6  H   UNL     1      -6.795  13.820  71.301  1.00  0.00     0.000 HD 
HETATM    7  C   UNL     1      -8.879  14.358  68.048  1.00  0.00    -0.178 C  
HETATM    8  C   UNL     1      -9.128  12.019  68.627  1.00  0.00    -0.030 C  
HETATM    9  C   UNL     1      -8.006  11.067  66.583  1.00  0.00    -0.156 C  
HETATM   10  C   UNL     1      -8.291  13.560  66.879  1.00  0.00    -0.012 C  
HETATM   11  C   UNL     1      -8.419  12.120  67.306  1.00  0.00    -0.178 C  
ENDROOT
BRANCH   4  12
HETATM   12  C   UNL     1      -7.556  16.272  68.971  1.00  0.00    -0.219 C  
HETATM   13  C   UNL     1      -7.167  16.816  67.808  1.00  0.00    -0.152 C  
BRANCH  13  14
HETATM   14  C   UNL     1      -7.034  18.287  67.562  1.00  0.00    -0.199 C  
HETATM   15  O   UNL     1      -5.650  18.612  67.630  1.00  0.00    -0.164 OA 
HETATM   16  C   UNL     1      -7.611  18.716  66.190  1.00  0.00    -0.276 C  
HETATM   17  H   UNL     1      -5.566  19.545  67.474  1.00  0.00     0.000 HD 
HETATM   18  C   UNL     1      -9.125  18.441  66.083  1.00  0.00    -0.123 C  
HETATM   19  C   UNL     1      -6.879  18.065  65.008  1.00  0.00     0.966 C  
BRANCH  18  20
HETATM   20  C   UNL     1      -9.879  19.234  67.138  1.00  0.00    -0.425 C  
HETATM   21  C   UNL     1     -10.526  19.914  68.044  1.00  0.00    -0.490 C  
HETATM   22  C   UNL     1     -11.280  20.706  69.099  1.00  0.00     1.681 C  
ENDBRANCH  18  20
ENDBRANCH  13  14
ENDBRANCH   4  12
BRANCH   9  23
HETATM   23  C   UNL     1      -8.181   9.634  67.009  1.00  0.00    -0.117 C  
BRANCH  23  24
HETATM   24  C   UNL     1      -7.998   8.649  65.852  1.00  0.00    -0.105 C  
BRANCH  24  25
HETATM   25  C   UNL     1      -7.204   9.247  64.691  1.00  0.00    -0.100 C  
HETATM   26  C   UNL     1      -7.645   8.690  63.360  1.00  0.00    -0.117 C  
HETATM   27  O   UNL     1      -8.526   7.864  63.190  1.00  0.00    -0.009 OA 
HETATM   28  O   UNL     1      -6.939   9.218  62.332  1.00  0.00    -0.099 OA 
ENDBRANCH  24  25
ENDBRANCH  23  24
ENDBRANCH   9  23
TORSDOF 6
ENDMDL
MODEL      216
REMARK 921   NORMALIZED FREE ENERGY PREDICTED BY IDOCK:   16.16 KCAL/MOL
REMARK 922        TOTAL FREE ENERGY PREDICTED BY IDOCK:   20.48 KCAL/MOL
REMARK 923 INTER-LIGAND FREE ENERGY PREDICTED BY IDOCK:   20.64 KCAL/MOL
REMARK 924 INTRA-LIGAND FREE ENERGY PREDICTED BY IDOCK:   -0.16 KCAL/MOL
REMARK 927      BINDING AFFINITY PREDICTED BY RF-SCORE:    0.00 PKD
ROOT
HETATM    1  C   UNL     1      -7.071  10.304  71.742  1.00  0.00     2.233 C  
HETATM    2  C   UNL     1      -7.951   9.915  72.919  1.00  0.00     4.348 C  
HETATM    3  C   UNL     1      -9.325   9.622  72.315  1.00  0.00     2.620 C  
HETATM    4  C   UNL     1      -9.083   9.272  70.831  1.00  0.00    -0.288 C  
HETATM    5  O   UNL     1     -10.152  10.784  72.383  1.00  0.00     6.272 OA 
HETATM    6  H   UNL     1     -11.005  10.602  72.007  1.00  0.00     0.000 HD 
HETATM    7  C   UNL     1      -7.564   9.435  70.588  1.00  0.00    -0.163 C  
HETATM    8  C   UNL     1      -7.264  11.741  71.268  1.00  0.00     5.233 C  
HETATM    9  C   UNL     1      -6.784  12.684  68.982  1.00  0.00    -0.097 C  
HETATM   10  C   UNL     1      -7.199  10.215  69.320  1.00  0.00    -0.085 C  
HETATM   11  C   UNL     1      -7.076  11.644  69.780  1.00  0.00     0.229 C  
ENDROOT
BRANCH   4  12
HETATM   12  C   UNL     1      -9.508   7.860  70.503  1.00  0.00    -0.162 C  
HETATM   13  C   UNL     1      -8.626   6.905  70.171  1.00  0.00    -0.141 C  
BRANCH  13  14
HETATM   14  C   UNL     1      -8.966   5.456  70.008  1.00  0.00    -0.129 C  
HETATM   15  O   UNL     1     -10.282   5.380  69.471  1.00  0.00    -0.219 OA 
HETATM   16  C   UNL     1      -7.973   4.712  69.080  1.00  0.00    -0.071 C  
HETATM   17  H   UNL     1     -10.497   4.461  69.368  1.00  0.00     0.000 HD 
HETATM   18  C   UNL     1      -6.538   4.711  69.645  1.00  0.00    -0.033 C  
HETATM   19  C   UNL     1      -7.969   5.266  67.648  1.00  0.00    -0.100 C  
BRANCH  18  20
HETATM   20  C   UNL     1      -6.500   3.994  70.985  1.00  0.00    -0.026 C  
HETATM   21  C   UNL     1      -6.468   3.378  72.133  1.00  0.00    -0.015 C  
HETATM   22  C   UNL     1      -6.431   2.660  73.472  1.00  0.00    -0.021 C  
ENDBRANCH  18  20
ENDBRANCH  13  14
ENDBRANCH   4  12
BRANCH   9  23
HETATM   23  C   UNL     1      -6.624  14.098  69.470  1.00  0.00    -0.124 C  
BRANCH  23  24
HETATM   24  C   UNL     1      -5.227  14.661  69.195  1.00  0.00    -0.085 C  
BRANCH  24  25
HETATM   25  C   UNL     1      -5.185  16.186  69.252  1.00  0.00    -0.111 C  
HETATM   26  C   UNL     1      -6.074  16.735  70.342  1.00  0.00     0.204 C  
HETATM   27  O   UNL     1      -6.757  16.072  71.105  1.00  0.00     1.458 OA 
HETATM   28  O   UNL     1      -6.038  18.087  70.389  1.00  0.00    -0.083 OA 
ENDBRANCH  24  25
ENDBRANCH  23  24
ENDBRANCH   9  23
TORSDOF 6
ENDMDL
