MODEL        1
REMARK 921   NORMALIZED FREE ENERGY PREDICTED BY IDOCK:   -8.51 KCAL/MOL
REMARK 922        TOTAL FREE ENERGY PREDICTED BY IDOCK:  -13.14 KCAL/MOL
REMARK 923 INTER-LIGAND FREE ENERGY PREDICTED BY IDOCK:  -11.99 KCAL/MOL
REMARK 924 INTRA-LIGAND FREE ENERGY PREDICTED BY IDOCK:   -1.15 KCAL/MOL
REMARK 927      BINDING AFFINITY PREDICTED BY RF-SCORE:    0.00 PKD
ROOT
HETATM    1  C   UNL     1      -5.370  19.486  67.915  1.00  0.00    -0.175 C  
HETATM    2  N   UNL     1      -6.797  19.580  68.223  1.00  0.00    -0.274 NA 
HETATM    3  C   UNL     1      -7.498  20.420  67.232  1.00  0.00    -0.321 C  
HETATM    4  C   UNL     1      -7.752  19.734  65.870  1.00  0.00    -0.320 C  
HETATM    5  N   UNL     1      -8.441  18.425  65.964  1.00  0.00    -0.509 NA 
HETATM    6  C   UNL     1      -7.419  18.241  68.284  1.00  0.00    -0.279 C  
HETATM    7  C   UNL     1      -7.695  17.577  66.911  1.00  0.00    -0.217 C  
ENDROOT
BRANCH   5   8
HETATM    8  C   UNL     1      -9.864  18.541  66.356  1.00  0.00    -0.361 C  
BRANCH   8   9
HETATM    9  C   UNL     1     -10.579  17.209  66.251  1.00  0.00    -0.185 A  
HETATM   10  C   UNL     1     -10.908  16.509  67.418  1.00  0.00    -0.202 A  
HETATM   11  C   UNL     1     -11.245  15.161  67.347  1.00  0.00    -0.323 A  
HETATM   12  C   UNL     1     -11.263  14.502  66.110  1.00  0.00    -0.339 A  
HETATM   13  C   UNL     1     -10.734  16.586  65.005  1.00  0.00    -0.228 A  
HETATM   14  C   UNL     1     -11.067  15.233  64.931  1.00  0.00    -0.435 A  
BRANCH  12  15
HETATM   15  C   UNL     1     -11.328  13.017  66.128  1.00  0.00    -0.314 C  
HETATM   16  O   UNL     1     -12.336  12.465  65.697  1.00  0.00    -0.639 OA 
HETATM   17  N   UNL     1     -10.213  12.350  66.614  1.00  0.00    -0.222 N  
HETATM   18  H   UNL     1      -9.406  12.889  66.930  1.00  0.00     0.000 HD 
BRANCH  17  19
HETATM   19  C   UNL     1     -10.174  10.943  66.681  1.00  0.00    -0.234 A  
HETATM   20  C   UNL     1     -10.656  10.341  67.837  1.00  0.00    -0.282 A  
HETATM   21  C   UNL     1     -10.434   8.977  68.105  1.00  0.00    -0.207 A  
HETATM   22  C   UNL     1      -9.620  10.161  65.677  1.00  0.00    -0.302 A  
HETATM   23  C   UNL     1      -9.861   8.186  67.088  1.00  0.00    -0.281 A  
HETATM   24  C   UNL     1      -9.575   6.715  67.226  1.00  0.00    -0.157 C  
HETATM   25  C   UNL     1      -9.500   8.783  65.865  1.00  0.00    -0.278 A  
BRANCH  21  26
HETATM   26  N   UNL     1     -10.673   8.483  69.400  1.00  0.00    -0.347 NA 
HETATM   27  H   UNL     1     -10.086   7.699  69.687  1.00  0.00     0.000 HD 
BRANCH  26  28
HETATM   28  C   UNL     1     -11.603   8.919  70.346  1.00  0.00    -0.101 A  
HETATM   29  N   UNL     1     -12.170   7.985  71.115  1.00  0.00    -0.282 NA 
HETATM   30  C   UNL     1     -13.034   8.415  72.052  1.00  0.00    -0.358 A  
HETATM   31  C   UNL     1     -13.344   9.739  72.264  1.00  0.00    -0.472 A  
HETATM   32  C   UNL     1     -12.725  10.643  71.431  1.00  0.00    -0.440 A  
HETATM   33  N   UNL     1     -11.868  10.228  70.481  1.00  0.00    -0.304 NA 
BRANCH  32  34
HETATM   34  C   UNL     1     -12.919  12.104  71.486  1.00  0.00    -0.398 A  
HETATM   35  C   UNL     1     -13.754  12.726  72.414  1.00  0.00    -0.360 A  
HETATM   36  N   UNL     1     -13.980  14.063  72.492  1.00  0.00    -0.670 NA 
HETATM   37  C   UNL     1     -13.339  14.841  71.589  1.00  0.00    -0.360 A  
HETATM   38  C   UNL     1     -12.493  14.343  70.618  1.00  0.00    -0.419 A  
HETATM   39  C   UNL     1     -12.285  12.966  70.571  1.00  0.00    -0.395 A  
ENDBRANCH  32  34
ENDBRANCH  26  28
ENDBRANCH  21  26
ENDBRANCH  17  19
ENDBRANCH  12  15
ENDBRANCH   8   9
ENDBRANCH   5   8
TORSDOF 7
ENDMDL
MODEL        2
REMARK 921   NORMALIZED FREE ENERGY PREDICTED BY IDOCK:   -8.25 KCAL/MOL
REMARK 922        TOTAL FREE ENERGY PREDICTED BY IDOCK:  -12.78 KCAL/MOL
REMARK 923 INTER-LIGAND FREE ENERGY PREDICTED BY IDOCK:  -12.25 KCAL/MOL
REMARK 924 INTRA-LIGAND FREE ENERGY PREDICTED BY IDOCK:   -0.53 KCAL/MOL
REMARK 927      BINDING AFFINITY PREDICTED BY RF-SCORE:    0.00 PKD
ROOT
HETATM    1  C   UNL     1      -7.542   1.822  65.180  1.00  0.00    -0.066 C  
HETATM    2  N   UNL     1      -8.798   2.201  65.828  1.00  0.00    -0.120 NA 
HETATM    3  C   UNL     1      -8.590   2.482  67.262  1.00  0.00    -0.107 C  
HETATM    4  C   UNL     1      -7.926   3.845  67.562  1.00  0.00    -0.090 C  
HETATM    5  N   UNL     1      -8.605   5.006  66.940  1.00  0.00    -0.106 NA 
HETATM    6  C   UNL     1      -9.408   3.373  65.165  1.00  0.00    -0.155 C  
HETATM    7  C   UNL     1      -8.752   4.737  65.498  1.00  0.00    -0.135 C  
ENDROOT
BRANCH   5   8
HETATM    8  C   UNL     1      -9.912   5.321  67.560  1.00  0.00    -0.171 C  
BRANCH   8   9
HETATM    9  C   UNL     1     -10.009   6.784  67.939  1.00  0.00    -0.164 A  
HETATM   10  C   UNL     1     -10.175   7.139  69.284  1.00  0.00    -0.193 A  
HETATM   11  C   UNL     1     -10.603   8.421  69.615  1.00  0.00    -0.219 A  
HETATM   12  C   UNL     1     -10.860   9.361  68.608  1.00  0.00    -0.149 A  
HETATM   13  C   UNL     1     -10.131   7.766  66.945  1.00  0.00    -0.356 A  
HETATM   14  C   UNL     1     -10.564   9.051  67.275  1.00  0.00    -0.301 A  
BRANCH  12  15
HETATM   15  C   UNL     1     -11.596  10.594  68.997  1.00  0.00    -0.261 C  
HETATM   16  O   UNL     1     -12.150  11.251  68.121  1.00  0.00    -0.635 OA 
HETATM   17  N   UNL     1     -11.625  10.902  70.348  1.00  0.00    -0.350 N  
HETATM   18  H   UNL     1     -11.156  10.285  71.012  1.00  0.00     0.000 HD 
BRANCH  17  19
HETATM   19  C   UNL     1     -12.288  12.051  70.823  1.00  0.00    -0.308 A  
HETATM   20  C   UNL     1     -12.038  13.253  70.173  1.00  0.00    -0.403 A  
HETATM   21  C   UNL     1     -12.448  14.485  70.715  1.00  0.00    -0.351 A  
HETATM   22  C   UNL     1     -13.116  12.031  71.938  1.00  0.00    -0.475 A  
HETATM   23  C   UNL     1     -13.280  14.464  71.854  1.00  0.00    -0.444 A  
HETATM   24  C   UNL     1     -13.804  15.698  72.537  1.00  0.00    -0.642 C  
HETATM   25  C   UNL     1     -13.640  13.228  72.427  1.00  0.00    -0.694 A  
BRANCH  21  26
HETATM   26  N   UNL     1     -11.924  15.678  70.188  1.00  0.00    -0.360 NA 
HETATM   27  H   UNL     1     -11.912  16.474  70.825  1.00  0.00     0.000 HD 
BRANCH  26  28
HETATM   28  C   UNL     1     -11.416  15.921  68.909  1.00  0.00    -0.386 A  
HETATM   29  N   UNL     1     -10.684  17.027  68.748  1.00  0.00    -0.335 NA 
HETATM   30  C   UNL     1     -10.163  17.236  67.525  1.00  0.00    -0.328 A  
HETATM   31  C   UNL     1     -10.329  16.378  66.461  1.00  0.00    -0.306 A  
HETATM   32  C   UNL     1     -11.099  15.262  66.702  1.00  0.00    -0.276 A  
HETATM   33  N   UNL     1     -11.637  15.047  67.916  1.00  0.00    -0.340 NA 
BRANCH  32  34
HETATM   34  C   UNL     1     -11.404  14.222  65.702  1.00  0.00    -0.317 A  
HETATM   35  C   UNL     1     -12.638  13.576  65.629  1.00  0.00    -0.459 A  
HETATM   36  N   UNL     1     -12.959  12.600  64.741  1.00  0.00    -0.867 NA 
HETATM   37  C   UNL     1     -11.994  12.234  63.865  1.00  0.00    -0.491 A  
HETATM   38  C   UNL     1     -10.733  12.794  63.842  1.00  0.00    -0.443 A  
HETATM   39  C   UNL     1     -10.442  13.794  64.768  1.00  0.00    -0.448 A  
ENDBRANCH  32  34
ENDBRANCH  26  28
ENDBRANCH  21  26
ENDBRANCH  17  19
ENDBRANCH  12  15
ENDBRANCH   8   9
ENDBRANCH   5   8
TORSDOF 7
ENDMDL
MODEL        3
REMARK 921   NORMALIZED FREE ENERGY PREDICTED BY IDOCK:   -8.14 KCAL/MOL
REMARK 922        TOTAL FREE ENERGY PREDICTED BY IDOCK:  -12.62 KCAL/MOL
REMARK 923 INTER-LIGAND FREE ENERGY PREDICTED BY IDOCK:  -11.90 KCAL/MOL
REMARK 924 INTRA-LIGAND FREE ENERGY PREDICTED BY IDOCK:   -0.72 KCAL/MOL
REMARK 927      BINDING AFFINITY PREDICTED BY RF-SCORE:    0.00 PKD
ROOT
HETATM    1  C   UNL     1      -9.941   2.087  71.929  1.00  0.00    -0.152 C  
HETATM    2  N   UNL     1      -8.870   3.012  71.555  1.00  0.00    -0.077 NA 
HETATM    3  C   UNL     1      -8.363   2.715  70.201  1.00  0.00    -0.041 C  
HETATM    4  C   UNL     1      -9.284   3.183  69.051  1.00  0.00    -0.159 C  
HETATM    5  N   UNL     1      -9.665   4.614  69.117  1.00  0.00    -0.179 NA 
HETATM    6  C   UNL     1      -9.328   4.416  71.628  1.00  0.00    -0.141 C  
HETATM    7  C   UNL     1     -10.226   4.881  70.454  1.00  0.00    -0.222 C  
ENDROOT
BRANCH   5   8
HETATM    8  C   UNL     1      -8.545   5.533  68.814  1.00  0.00    -0.100 C  
BRANCH   8   9
HETATM    9  C   UNL     1      -9.024   6.962  68.665  1.00  0.00    -0.129 A  
HETATM   10  C   UNL     1      -8.735   7.894  69.670  1.00  0.00    -0.134 A  
HETATM   11  C   UNL     1      -9.438   9.094  69.726  1.00  0.00    -0.191 A  
HETATM   12  C   UNL     1     -10.428   9.377  68.775  1.00  0.00    -0.236 A  
HETATM   13  C   UNL     1      -9.912   7.307  67.637  1.00  0.00    -0.207 A  
HETATM   14  C   UNL     1     -10.622   8.508  67.694  1.00  0.00    -0.268 A  
BRANCH  12  15
HETATM   15  C   UNL     1     -11.341  10.515  69.060  1.00  0.00    -0.257 C  
HETATM   16  O   UNL     1     -12.000  10.988  68.137  1.00  0.00    -0.610 OA 
HETATM   17  N   UNL     1     -11.404  10.951  70.374  1.00  0.00    -0.446 N  
HETATM   18  H   UNL     1     -10.838  10.483  71.084  1.00  0.00     0.000 HD 
BRANCH  17  19
HETATM   19  C   UNL     1     -12.233  12.027  70.750  1.00  0.00    -0.286 A  
HETATM   20  C   UNL     1     -12.137  13.200  70.012  1.00  0.00    -0.375 A  
HETATM   21  C   UNL     1     -12.728  14.399  70.453  1.00  0.00    -0.304 A  
HETATM   22  C   UNL     1     -13.076  11.973  71.851  1.00  0.00    -0.475 A  
HETATM   23  C   UNL     1     -13.576  14.346  71.579  1.00  0.00    -0.445 A  
HETATM   24  C   UNL     1     -14.284  15.541  72.158  1.00  0.00    -0.617 C  
HETATM   25  C   UNL     1     -13.774  13.118  72.240  1.00  0.00    -0.647 A  
BRANCH  21  26
HETATM   26  N   UNL     1     -12.363  15.612  69.842  1.00  0.00    -0.494 NA 
HETATM   27  H   UNL     1     -12.658  16.458  70.330  1.00  0.00     0.000 HD 
BRANCH  26  28
HETATM   28  C   UNL     1     -11.650  15.816  68.658  1.00  0.00    -0.386 A  
HETATM   29  N   UNL     1     -10.772  16.823  68.645  1.00  0.00    -0.342 NA 
HETATM   30  C   UNL     1     -10.059  16.990  67.516  1.00  0.00    -0.294 A  
HETATM   31  C   UNL     1     -10.173  16.183  66.407  1.00  0.00    -0.315 A  
HETATM   32  C   UNL     1     -11.100  15.168  66.494  1.00  0.00    -0.305 A  
HETATM   33  N   UNL     1     -11.829  14.997  67.610  1.00  0.00    -0.272 NA 
BRANCH  32  34
HETATM   34  C   UNL     1     -11.381  14.195  65.421  1.00  0.00    -0.322 A  
HETATM   35  C   UNL     1     -12.222  14.474  64.343  1.00  0.00    -0.458 A  
HETATM   36  N   UNL     1     -12.527  13.606  63.344  1.00  0.00    -0.800 NA 
HETATM   37  C   UNL     1     -11.965  12.377  63.414  1.00  0.00    -0.504 A  
HETATM   38  C   UNL     1     -11.123  11.981  64.433  1.00  0.00    -0.399 A  
HETATM   39  C   UNL     1     -10.832  12.900  65.440  1.00  0.00    -0.307 A  
ENDBRANCH  32  34
ENDBRANCH  26  28
ENDBRANCH  21  26
ENDBRANCH  17  19
ENDBRANCH  12  15
ENDBRANCH   8   9
ENDBRANCH   5   8
TORSDOF 7
ENDMDL
MODEL        4
REMARK 921   NORMALIZED FREE ENERGY PREDICTED BY IDOCK:   -8.14 KCAL/MOL
REMARK 922        TOTAL FREE ENERGY PREDICTED BY IDOCK:  -12.62 KCAL/MOL
REMARK 923 INTER-LIGAND FREE ENERGY PREDICTED BY IDOCK:  -11.24 KCAL/MOL
REMARK 924 INTRA-LIGAND FREE ENERGY PREDICTED BY IDOCK:   -1.38 KCAL/MOL
REMARK 927      BINDING AFFINITY PREDICTED BY RF-SCORE:    0.00 PKD
ROOT
HETATM    1  C   UNL     1      -7.384  20.052  65.581  1.00  0.00    -0.291 C  
HETATM    2  N   UNL     1      -8.062  19.889  66.868  1.00  0.00    -0.298 NA 
HETATM    3  C   UNL     1      -9.524  20.017  66.715  1.00  0.00    -0.406 C  
HETATM    4  C   UNL     1     -10.218  18.780  66.099  1.00  0.00    -0.421 C  
HETATM    5  N   UNL     1      -9.916  17.503  66.789  1.00  0.00    -0.300 NA 
HETATM    6  C   UNL     1      -7.727  18.589  67.487  1.00  0.00    -0.229 C  
HETATM    7  C   UNL     1      -8.452  17.362  66.880  1.00  0.00    -0.241 C  
ENDROOT
BRANCH   5   8
HETATM    8  C   UNL     1     -10.547  17.396  68.124  1.00  0.00    -0.376 C  
BRANCH   8   9
HETATM    9  C   UNL     1     -11.256  16.069  68.298  1.00  0.00    -0.350 A  
HETATM   10  C   UNL     1     -11.762  15.717  69.556  1.00  0.00    -0.369 A  
HETATM   11  C   UNL     1     -12.102  14.394  69.821  1.00  0.00    -0.386 A  
HETATM   12  C   UNL     1     -11.947  13.413  68.833  1.00  0.00    -0.362 A  
HETATM   13  C   UNL     1     -11.235  15.115  67.271  1.00  0.00    -0.324 A  
HETATM   14  C   UNL     1     -11.570  13.787  67.536  1.00  0.00    -0.387 A  
BRANCH  12  15
HETATM   15  C   UNL     1     -12.033  11.992  69.262  1.00  0.00    -0.270 C  
HETATM   16  O   UNL     1     -12.210  11.128  68.408  1.00  0.00    -0.610 OA 
HETATM   17  N   UNL     1     -11.878  11.740  70.616  1.00  0.00    -0.469 N  
HETATM   18  H   UNL     1     -11.710  12.518  71.254  1.00  0.00     0.000 HD 
BRANCH  17  19
HETATM   19  C   UNL     1     -11.949  10.429  71.129  1.00  0.00    -0.362 A  
HETATM   20  C   UNL     1     -10.894   9.570  70.846  1.00  0.00    -0.407 A  
HETATM   21  C   UNL     1     -10.982   8.188  71.094  1.00  0.00    -0.237 A  
HETATM   22  C   UNL     1     -13.047   9.960  71.837  1.00  0.00    -0.559 A  
HETATM   23  C   UNL     1     -12.104   7.711  71.803  1.00  0.00    -0.337 A  
HETATM   24  C   UNL     1     -12.329   6.264  72.150  1.00  0.00    -0.193 C  
HETATM   25  C   UNL     1     -13.105   8.616  72.206  1.00  0.00    -0.415 A  
BRANCH  21  26
HETATM   26  N   UNL     1     -10.027   7.325  70.528  1.00  0.00    -0.190 NA 
HETATM   27  H   UNL     1      -9.324   6.961  71.172  1.00  0.00     0.000 HD 
BRANCH  26  28
HETATM   28  C   UNL     1      -9.909   6.897  69.203  1.00  0.00    -0.156 A  
HETATM   29  N   UNL     1     -10.057   5.590  68.973  1.00  0.00    -0.187 NA 
HETATM   30  C   UNL     1      -9.983   5.189  67.690  1.00  0.00    -0.161 A  
HETATM   31  C   UNL     1      -9.787   6.041  66.627  1.00  0.00    -0.202 A  
HETATM   32  C   UNL     1      -9.640   7.373  66.943  1.00  0.00    -0.187 A  
HETATM   33  N   UNL     1      -9.698   7.787  68.221  1.00  0.00    -0.155 NA 
BRANCH  32  34
HETATM   34  C   UNL     1      -9.417   8.449  65.959  1.00  0.00    -0.224 A  
HETATM   35  C   UNL     1      -8.456   8.370  64.951  1.00  0.00    -0.122 A  
HETATM   36  N   UNL     1      -8.201   9.341  64.035  1.00  0.00    -0.154 NA 
HETATM   37  C   UNL     1      -8.945  10.468  64.122  1.00  0.00    -0.218 A  
HETATM   38  C   UNL     1      -9.920  10.667  65.078  1.00  0.00    -0.369 A  
HETATM   39  C   UNL     1     -10.153   9.648  65.999  1.00  0.00    -0.318 A  
ENDBRANCH  32  34
ENDBRANCH  26  28
ENDBRANCH  21  26
ENDBRANCH  17  19
ENDBRANCH  12  15
ENDBRANCH   8   9
ENDBRANCH   5   8
TORSDOF 7
ENDMDL
MODEL        5
REMARK 921   NORMALIZED FREE ENERGY PREDICTED BY IDOCK:   -8.09 KCAL/MOL
REMARK 922        TOTAL FREE ENERGY PREDICTED BY IDOCK:  -12.55 KCAL/MOL
REMARK 923 INTER-LIGAND FREE ENERGY PREDICTED BY IDOCK:  -11.61 KCAL/MOL
REMARK 924 INTRA-LIGAND FREE ENERGY PREDICTED BY IDOCK:   -0.93 KCAL/MOL
REMARK 927      BINDING AFFINITY PREDICTED BY RF-SCORE:    0.00 PKD
ROOT
HETATM    1  C   UNL     1      -9.394   2.075  72.329  1.00  0.00    -0.086 C  
HETATM    2  N   UNL     1      -8.789   3.290  72.878  1.00  0.00    -0.084 NA 
HETATM    3  C   UNL     1      -8.981   4.434  71.966  1.00  0.00    -0.121 C  
HETATM    4  C   UNL     1     -10.404   5.037  71.979  1.00  0.00    -0.213 C  
HETATM    5  N   UNL     1     -10.899   5.407  73.326  1.00  0.00    -0.275 NA 
HETATM    6  C   UNL     1      -9.342   3.605  74.212  1.00  0.00    -0.092 C  
HETATM    7  C   UNL     1     -10.757   4.236  74.209  1.00  0.00    -0.208 C  
ENDROOT
BRANCH   5   8
HETATM    8  C   UNL     1     -10.216   6.591  73.894  1.00  0.00    -0.332 C  
BRANCH   8   9
HETATM    9  C   UNL     1     -10.378   7.807  73.005  1.00  0.00    -0.410 A  
HETATM   10  C   UNL     1     -11.664   8.262  72.687  1.00  0.00    -0.406 A  
HETATM   11  C   UNL     1     -11.845   9.140  71.623  1.00  0.00    -0.443 A  
HETATM   12  C   UNL     1     -10.745   9.577  70.873  1.00  0.00    -0.403 A  
HETATM   13  C   UNL     1      -9.269   8.354  72.345  1.00  0.00    -0.345 A  
HETATM   14  C   UNL     1      -9.449   9.231  71.274  1.00  0.00    -0.245 A  
BRANCH  12  15
HETATM   15  C   UNL     1     -11.027  10.258  69.582  1.00  0.00    -0.270 C  
HETATM   16  O   UNL     1     -12.092  10.853  69.449  1.00  0.00    -0.328 OA 
HETATM   17  N   UNL     1     -10.036  10.193  68.614  1.00  0.00    -0.165 N  
HETATM   18  H   UNL     1      -9.169   9.696  68.818  1.00  0.00     0.000 HD 
BRANCH  17  19
HETATM   19  C   UNL     1     -10.204  10.799  67.353  1.00  0.00    -0.204 A  
HETATM   20  C   UNL     1     -10.418  12.172  67.322  1.00  0.00    -0.238 A  
HETATM   21  C   UNL     1     -10.842  12.827  66.151  1.00  0.00    -0.279 A  
HETATM   22  C   UNL     1     -10.228  10.073  66.170  1.00  0.00    -0.283 A  
HETATM   23  C   UNL     1     -10.877  12.085  64.952  1.00  0.00    -0.349 A  
HETATM   24  C   UNL     1     -11.298  12.651  63.623  1.00  0.00    -0.544 C  
HETATM   25  C   UNL     1     -10.525  10.721  64.970  1.00  0.00    -0.307 A  
BRANCH  21  26
HETATM   26  N   UNL     1     -11.327  14.144  66.236  1.00  0.00    -0.329 NA 
HETATM   27  H   UNL     1     -11.897  14.455  65.449  1.00  0.00     0.000 HD 
BRANCH  26  28
HETATM   28  C   UNL     1     -11.135  15.084  67.251  1.00  0.00    -0.334 A  
HETATM   29  N   UNL     1     -10.478  16.201  66.927  1.00  0.00    -0.302 NA 
HETATM   30  C   UNL     1     -10.332  17.121  67.897  1.00  0.00    -0.350 A  
HETATM   31  C   UNL     1     -10.829  16.980  69.173  1.00  0.00    -0.164 A  
HETATM   32  C   UNL     1     -11.491  15.801  69.434  1.00  0.00    -0.355 A  
HETATM   33  N   UNL     1     -11.634  14.866  68.478  1.00  0.00    -0.311 NA 
BRANCH  32  34
HETATM   34  C   UNL     1     -12.094  15.448  70.733  1.00  0.00    -0.413 A  
HETATM   35  C   UNL     1     -13.009  14.406  70.888  1.00  0.00    -0.348 A  
HETATM   36  N   UNL     1     -13.605  14.056  72.057  1.00  0.00    -0.420 NA 
HETATM   37  C   UNL     1     -13.278  14.785  73.148  1.00  0.00    -0.436 A  
HETATM   38  C   UNL     1     -12.393  15.844  73.121  1.00  0.00    -0.619 A  
HETATM   39  C   UNL     1     -11.800  16.172  71.903  1.00  0.00    -0.605 A  
ENDBRANCH  32  34
ENDBRANCH  26  28
ENDBRANCH  21  26
ENDBRANCH  17  19
ENDBRANCH  12  15
ENDBRANCH   8   9
ENDBRANCH   5   8
TORSDOF 7
ENDMDL
MODEL        6
REMARK 921   NORMALIZED FREE ENERGY PREDICTED BY IDOCK:   -7.97 KCAL/MOL
REMARK 922        TOTAL FREE ENERGY PREDICTED BY IDOCK:  -12.38 KCAL/MOL
REMARK 923 INTER-LIGAND FREE ENERGY PREDICTED BY IDOCK:  -11.96 KCAL/MOL
REMARK 924 INTRA-LIGAND FREE ENERGY PREDICTED BY IDOCK:   -0.42 KCAL/MOL
REMARK 927      BINDING AFFINITY PREDICTED BY RF-SCORE:    0.00 PKD
ROOT
HETATM    1  C   UNL     1      -8.882   4.510  64.011  1.00  0.00    -0.144 C  
HETATM    2  N   UNL     1      -8.108   4.871  65.200  1.00  0.00    -0.108 NA 
HETATM    3  C   UNL     1      -8.614   6.122  65.800  1.00  0.00    -0.151 C  
HETATM    4  C   UNL     1      -9.928   5.966  66.600  1.00  0.00    -0.174 C  
HETATM    5  N   UNL     1      -9.888   4.914  67.643  1.00  0.00    -0.165 NA 
HETATM    6  C   UNL     1      -8.128   3.784  66.200  1.00  0.00    -0.100 C  
HETATM    7  C   UNL     1      -9.439   3.658  67.015  1.00  0.00    -0.190 C  
ENDROOT
BRANCH   5   8
HETATM    8  C   UNL     1      -9.034   5.269  68.799  1.00  0.00    -0.110 C  
BRANCH   8   9
HETATM    9  C   UNL     1      -9.737   6.230  69.735  1.00  0.00    -0.185 A  
HETATM   10  C   UNL     1     -11.103   6.064  69.996  1.00  0.00    -0.451 A  
HETATM   11  C   UNL     1     -11.833   7.105  70.561  1.00  0.00    -0.286 A  
HETATM   12  C   UNL     1     -11.205   8.317  70.877  1.00  0.00    -0.292 A  
HETATM   13  C   UNL     1      -9.085   7.388  70.181  1.00  0.00    -0.148 A  
HETATM   14  C   UNL     1      -9.816   8.436  70.743  1.00  0.00    -0.215 A  
BRANCH  12  15
HETATM   15  C   UNL     1     -12.080   9.479  71.187  1.00  0.00    -0.347 C  
HETATM   16  O   UNL     1     -13.136   9.280  71.781  1.00  0.00    -0.346 OA 
HETATM   17  N   UNL     1     -11.619  10.727  70.800  1.00  0.00    -0.367 N  
HETATM   18  H   UNL     1     -10.716  10.804  70.331  1.00  0.00     0.000 HD 
BRANCH  17  19
HETATM   19  C   UNL     1     -12.374  11.893  71.040  1.00  0.00    -0.259 A  
HETATM   20  C   UNL     1     -12.152  12.985  70.209  1.00  0.00    -0.388 A  
HETATM   21  C   UNL     1     -12.663  14.260  70.515  1.00  0.00    -0.328 A  
HETATM   22  C   UNL     1     -13.265  12.003  72.099  1.00  0.00    -0.400 A  
HETATM   23  C   UNL     1     -13.560  14.373  71.598  1.00  0.00    -0.463 A  
HETATM   24  C   UNL     1     -14.193  15.666  72.036  1.00  0.00    -0.500 C  
HETATM   25  C   UNL     1     -13.884  13.228  72.352  1.00  0.00    -0.630 A  
BRANCH  21  26
HETATM   26  N   UNL     1     -12.176  15.381  69.821  1.00  0.00    -0.489 NA 
HETATM   27  H   UNL     1     -12.410  16.287  70.228  1.00  0.00     0.000 HD 
BRANCH  26  28
HETATM   28  C   UNL     1     -11.414  15.424  68.651  1.00  0.00    -0.346 A  
HETATM   29  N   UNL     1     -10.361  16.246  68.642  1.00  0.00    -0.249 NA 
HETATM   30  C   UNL     1      -9.608  16.253  67.527  1.00  0.00    -0.230 A  
HETATM   31  C   UNL     1      -9.851  15.460  66.428  1.00  0.00    -0.301 A  
HETATM   32  C   UNL     1     -10.955  14.642  66.509  1.00  0.00    -0.318 A  
HETATM   33  N   UNL     1     -11.726  14.633  67.612  1.00  0.00    -0.363 NA 
BRANCH  32  34
HETATM   34  C   UNL     1     -11.396  13.719  65.446  1.00  0.00    -0.314 A  
HETATM   35  C   UNL     1     -12.717  13.294  65.307  1.00  0.00    -0.412 A  
HETATM   36  N   UNL     1     -13.166  12.432  64.359  1.00  0.00    -0.778 NA 
HETATM   37  C   UNL     1     -12.248  11.956  63.487  1.00  0.00    -0.482 A  
HETATM   38  C   UNL     1     -10.911  12.297  63.525  1.00  0.00    -0.508 A  
HETATM   39  C   UNL     1     -10.488  13.185  64.512  1.00  0.00    -0.425 A  
ENDBRANCH  32  34
ENDBRANCH  26  28
ENDBRANCH  21  26
ENDBRANCH  17  19
ENDBRANCH  12  15
ENDBRANCH   8   9
ENDBRANCH   5   8
TORSDOF 7
ENDMDL
MODEL        7
REMARK 921   NORMALIZED FREE ENERGY PREDICTED BY IDOCK:   -7.70 KCAL/MOL
REMARK 922        TOTAL FREE ENERGY PREDICTED BY IDOCK:  -12.01 KCAL/MOL
REMARK 923 INTER-LIGAND FREE ENERGY PREDICTED BY IDOCK:  -11.19 KCAL/MOL
REMARK 924 INTRA-LIGAND FREE ENERGY PREDICTED BY IDOCK:   -0.82 KCAL/MOL
REMARK 927      BINDING AFFINITY PREDICTED BY RF-SCORE:    0.00 PKD
ROOT
HETATM    1  C   UNL     1      -8.749   2.082  63.706  1.00  0.00    -0.085 C  
HETATM    2  N   UNL     1      -8.057   3.094  64.505  1.00  0.00    -0.082 NA 
HETATM    3  C   UNL     1      -8.850   4.336  64.588  1.00  0.00    -0.141 C  
HETATM    4  C   UNL     1     -10.051   4.270  65.559  1.00  0.00    -0.223 C  
HETATM    5  N   UNL     1      -9.705   3.828  66.931  1.00  0.00    -0.180 NA 
HETATM    6  C   UNL     1      -7.760   2.589  65.863  1.00  0.00    -0.080 C  
HETATM    7  C   UNL     1      -8.967   2.556  66.834  1.00  0.00    -0.136 C  
ENDROOT
BRANCH   5   8
HETATM    8  C   UNL     1      -8.935   4.837  67.693  1.00  0.00    -0.110 C  
BRANCH   8   9
HETATM    9  C   UNL     1      -9.827   5.953  68.197  1.00  0.00    -0.155 A  
HETATM   10  C   UNL     1      -9.703   7.235  67.647  1.00  0.00    -0.173 A  
HETATM   11  C   UNL     1     -10.251   8.329  68.309  1.00  0.00    -0.246 A  
HETATM   12  C   UNL     1     -10.931   8.152  69.522  1.00  0.00    -0.056 A  
HETATM   13  C   UNL     1     -10.626   5.762  69.332  1.00  0.00    -0.383 A  
HETATM   14  C   UNL     1     -11.172   6.859  70.001  1.00  0.00    -0.347 A  
BRANCH  12  15
HETATM   15  C   UNL     1     -11.222   9.370  70.325  1.00  0.00    -0.246 C  
HETATM   16  O   UNL     1     -10.637   9.525  71.393  1.00  0.00    -0.336 OA 
HETATM   17  N   UNL     1     -12.129  10.269  69.787  1.00  0.00    -0.490 N  
HETATM   18  H   UNL     1     -12.551  10.072  68.879  1.00  0.00     0.000 HD 
BRANCH  17  19
HETATM   19  C   UNL     1     -12.480  11.451  70.469  1.00  0.00    -0.293 A  
HETATM   20  C   UNL     1     -11.953  12.647  69.997  1.00  0.00    -0.377 A  
HETATM   21  C   UNL     1     -12.037  13.836  70.745  1.00  0.00    -0.319 A  
HETATM   22  C   UNL     1     -13.267  11.450  71.613  1.00  0.00    -0.413 A  
HETATM   23  C   UNL     1     -12.827  13.831  71.914  1.00  0.00    -0.400 A  
HETATM   24  C   UNL     1     -13.019  15.026  72.807  1.00  0.00    -0.528 C  
HETATM   25  C   UNL     1     -13.470  12.642  72.310  1.00  0.00    -0.541 A  
BRANCH  21  26
HETATM   26  N   UNL     1     -11.244  14.938  70.378  1.00  0.00    -0.386 NA 
HETATM   27  H   UNL     1     -10.719  15.376  71.135  1.00  0.00     0.000 HD 
BRANCH  26  28
HETATM   28  C   UNL     1     -11.078  15.515  69.116  1.00  0.00    -0.272 A  
HETATM   29  N   UNL     1     -10.713  16.800  69.081  1.00  0.00    -0.339 NA 
HETATM   30  C   UNL     1     -10.515  17.339  67.864  1.00  0.00    -0.382 A  
HETATM   31  C   UNL     1     -10.647  16.644  66.683  1.00  0.00    -0.203 A  
HETATM   32  C   UNL     1     -11.028  15.327  66.799  1.00  0.00    -0.306 A  
HETATM   33  N   UNL     1     -11.243  14.777  68.008  1.00  0.00    -0.286 NA 
BRANCH  32  34
HETATM   34  C   UNL     1     -11.231  14.408  65.663  1.00  0.00    -0.323 A  
HETATM   35  C   UNL     1     -12.162  14.644  64.651  1.00  0.00    -0.434 A  
HETATM   36  N   UNL     1     -12.398  13.820  63.597  1.00  0.00    -0.729 NA 
HETATM   37  C   UNL     1     -11.665  12.684  63.539  1.00  0.00    -0.531 A  
HETATM   38  C   UNL     1     -10.719  12.337  64.482  1.00  0.00    -0.358 A  
HETATM   39  C   UNL     1     -10.504  13.208  65.548  1.00  0.00    -0.297 A  
ENDBRANCH  32  34
ENDBRANCH  26  28
ENDBRANCH  21  26
ENDBRANCH  17  19
ENDBRANCH  12  15
ENDBRANCH   8   9
ENDBRANCH   5   8
TORSDOF 7
ENDMDL
MODEL        8
REMARK 921   NORMALIZED FREE ENERGY PREDICTED BY IDOCK:   -7.68 KCAL/MOL
REMARK 922        TOTAL FREE ENERGY PREDICTED BY IDOCK:  -11.97 KCAL/MOL
REMARK 923 INTER-LIGAND FREE ENERGY PREDICTED BY IDOCK:  -10.71 KCAL/MOL
REMARK 924 INTRA-LIGAND FREE ENERGY PREDICTED BY IDOCK:   -1.26 KCAL/MOL
REMARK 927      BINDING AFFINITY PREDICTED BY RF-SCORE:    0.00 PKD
ROOT
HETATM    1  C   UNL     1      -7.866   3.289  74.252  1.00  0.00    -0.065 C  
HETATM    2  N   UNL     1      -9.161   3.922  74.510  1.00  0.00    -0.095 NA 
HETATM    3  C   UNL     1      -9.042   5.393  74.503  1.00  0.00    -0.121 C  
HETATM    4  C   UNL     1      -8.921   6.022  73.096  1.00  0.00    -0.130 C  
HETATM    5  N   UNL     1      -9.992   5.622  72.153  1.00  0.00    -0.175 NA 
HETATM    6  C   UNL     1     -10.172   3.489  73.523  1.00  0.00    -0.144 C  
HETATM    7  C   UNL     1     -10.058   4.150  72.126  1.00  0.00    -0.178 C  
ENDROOT
BRANCH   5   8
HETATM    8  C   UNL     1     -11.310   6.210  72.482  1.00  0.00    -0.286 C  
BRANCH   8   9
HETATM    9  C   UNL     1     -11.601   7.431  71.634  1.00  0.00    -0.302 A  
HETATM   10  C   UNL     1     -11.025   7.541  70.362  1.00  0.00    -0.264 A  
HETATM   11  C   UNL     1     -10.995   8.774  69.718  1.00  0.00    -0.146 A  
HETATM   12  C   UNL     1     -11.547   9.905  70.334  1.00  0.00    -0.356 A  
HETATM   13  C   UNL     1     -12.275   8.531  72.184  1.00  0.00    -0.446 A  
HETATM   14  C   UNL     1     -12.242   9.770  71.542  1.00  0.00    -0.493 A  
BRANCH  12  15
HETATM   15  C   UNL     1     -11.218  11.231  69.745  1.00  0.00    -0.220 C  
HETATM   16  O   UNL     1     -10.234  11.326  69.018  1.00  0.00    -0.205 OA 
HETATM   17  N   UNL     1     -12.079  12.276  70.045  1.00  0.00    -0.303 N  
HETATM   18  H   UNL     1     -12.889  12.102  70.641  1.00  0.00     0.000 HD 
BRANCH  17  19
HETATM   19  C   UNL     1     -11.856  13.574  69.544  1.00  0.00    -0.334 A  
HETATM   20  C   UNL     1     -11.875  13.743  68.165  1.00  0.00    -0.411 A  
HETATM   21  C   UNL     1     -11.422  14.931  67.561  1.00  0.00    -0.348 A  
HETATM   22  C   UNL     1     -11.559  14.653  70.366  1.00  0.00    -0.326 A  
HETATM   23  C   UNL     1     -11.109  16.023  68.397  1.00  0.00    -0.351 A  
HETATM   24  C   UNL     1     -10.624  17.356  67.896  1.00  0.00    -0.383 C  
HETATM   25  C   UNL     1     -11.225  15.882  69.794  1.00  0.00    -0.339 A  
BRANCH  21  26
HETATM   26  N   UNL     1     -11.180  14.950  66.176  1.00  0.00    -0.336 NA 
HETATM   27  H   UNL     1     -10.851  15.839  65.798  1.00  0.00     0.000 HD 
BRANCH  26  28
HETATM   28  C   UNL     1     -11.329  13.918  65.247  1.00  0.00    -0.314 A  
HETATM   29  N   UNL     1     -12.172  14.132  64.232  1.00  0.00    -0.601 NA 
HETATM   30  C   UNL     1     -12.282  13.151  63.319  1.00  0.00    -0.360 A  
HETATM   31  C   UNL     1     -11.572  11.972  63.366  1.00  0.00    -0.495 A  
HETATM   32  C   UNL     1     -10.727  11.821  64.442  1.00  0.00    -0.327 A  
HETATM   33  N   UNL     1     -10.616  12.788  65.370  1.00  0.00    -0.281 NA 
BRANCH  32  34
HETATM   34  C   UNL     1      -9.881  10.638  64.684  1.00  0.00    -0.382 A  
HETATM   35  C   UNL     1      -8.954  10.162  63.757  1.00  0.00    -0.246 A  
HETATM   36  N   UNL     1      -8.168   9.067  63.926  1.00  0.00    -0.164 NA 
HETATM   37  C   UNL     1      -8.308   8.394  65.092  1.00  0.00    -0.167 A  
HETATM   38  C   UNL     1      -9.194   8.761  66.084  1.00  0.00    -0.273 A  
HETATM   39  C   UNL     1      -9.982   9.891  65.873  1.00  0.00    -0.347 A  
ENDBRANCH  32  34
ENDBRANCH  26  28
ENDBRANCH  21  26
ENDBRANCH  17  19
ENDBRANCH  12  15
ENDBRANCH   8   9
ENDBRANCH   5   8
TORSDOF 7
ENDMDL
MODEL        9
REMARK 921   NORMALIZED FREE ENERGY PREDICTED BY IDOCK:   -7.57 KCAL/MOL
REMARK 922        TOTAL FREE ENERGY PREDICTED BY IDOCK:  -11.82 KCAL/MOL
REMARK 923 INTER-LIGAND FREE ENERGY PREDICTED BY IDOCK:  -10.44 KCAL/MOL
REMARK 924 INTRA-LIGAND FREE ENERGY PREDICTED BY IDOCK:   -1.37 KCAL/MOL
REMARK 927      BINDING AFFINITY PREDICTED BY RF-SCORE:    0.00 PKD
ROOT
HETATM    1  C   UNL     1     -10.580   5.081  74.408  1.00  0.00    -0.206 C  
HETATM    2  N   UNL     1     -11.149   4.688  73.118  1.00  0.00    -0.282 NA 
HETATM    3  C   UNL     1     -11.232   5.844  72.203  1.00  0.00    -0.287 C  
HETATM    4  C   UNL     1      -9.883   6.266  71.574  1.00  0.00    -0.173 C  
HETATM    5  N   UNL     1      -9.154   5.167  70.897  1.00  0.00    -0.137 NA 
HETATM    6  C   UNL     1     -10.362   3.603  72.496  1.00  0.00    -0.127 C  
HETATM    7  C   UNL     1      -9.027   4.045  71.844  1.00  0.00    -0.118 C  
ENDROOT
BRANCH   5   8
HETATM    8  C   UNL     1      -9.793   4.732  69.635  1.00  0.00    -0.221 C  
BRANCH   8   9
HETATM    9  C   UNL     1      -9.673   5.791  68.558  1.00  0.00    -0.161 A  
HETATM   10  C   UNL     1      -8.448   6.440  68.363  1.00  0.00    -0.116 A  
HETATM   11  C   UNL     1      -8.399   7.626  67.637  1.00  0.00    -0.118 A  
HETATM   12  C   UNL     1      -9.571   8.170  67.094  1.00  0.00    -0.227 A  
HETATM   13  C   UNL     1     -10.817   6.260  67.897  1.00  0.00    -0.417 A  
HETATM   14  C   UNL     1     -10.771   7.453  67.172  1.00  0.00    -0.400 A  
BRANCH  12  15
HETATM   15  C   UNL     1      -9.508   9.571  66.600  1.00  0.00    -0.170 C  
HETATM   16  O   UNL     1      -8.410  10.109  66.490  1.00  0.00    -0.121 OA 
HETATM   17  N   UNL     1     -10.714  10.170  66.269  1.00  0.00    -0.049 N  
HETATM   18  H   UNL     1     -11.580   9.639  66.369  1.00  0.00     0.000 HD 
BRANCH  17  19
HETATM   19  C   UNL     1     -10.767  11.497  65.798  1.00  0.00    -0.271 A  
HETATM   20  C   UNL     1     -10.675  12.517  66.737  1.00  0.00    -0.261 A  
HETATM   21  C   UNL     1     -10.965  13.853  66.406  1.00  0.00    -0.303 A  
HETATM   22  C   UNL     1     -10.970  11.809  64.461  1.00  0.00    -0.382 A  
HETATM   23  C   UNL     1     -11.183  14.168  65.048  1.00  0.00    -0.356 A  
HETATM   24  C   UNL     1     -11.492  15.551  64.543  1.00  0.00    -0.311 C  
HETATM   25  C   UNL     1     -11.138  13.142  64.083  1.00  0.00    -0.426 A  
BRANCH  21  26
HETATM   26  N   UNL     1     -11.149  14.794  67.435  1.00  0.00    -0.314 NA 
HETATM   27  H   UNL     1     -10.927  15.760  67.194  1.00  0.00     0.000 HD 
BRANCH  26  28
HETATM   28  C   UNL     1     -11.594  14.584  68.743  1.00  0.00    -0.312 A  
HETATM   29  N   UNL     1     -11.907  15.669  69.457  1.00  0.00    -0.367 NA 
HETATM   30  C   UNL     1     -12.374  15.460  70.701  1.00  0.00    -0.403 A  
HETATM   31  C   UNL     1     -12.558  14.214  71.256  1.00  0.00    -0.438 A  
HETATM   32  C   UNL     1     -12.210  13.144  70.461  1.00  0.00    -0.328 A  
HETATM   33  N   UNL     1     -11.730  13.338  69.220  1.00  0.00    -0.308 NA 
BRANCH  32  34
HETATM   34  C   UNL     1     -12.324  11.730  70.862  1.00  0.00    -0.420 A  
HETATM   35  C   UNL     1     -13.263  11.274  71.787  1.00  0.00    -0.375 A  
HETATM   36  N   UNL     1     -13.394   9.987  72.201  1.00  0.00    -0.431 NA 
HETATM   37  C   UNL     1     -12.536   9.087  71.667  1.00  0.00    -0.348 A  
HETATM   38  C   UNL     1     -11.560   9.416  70.749  1.00  0.00    -0.364 A  
HETATM   39  C   UNL     1     -11.458  10.747  70.347  1.00  0.00    -0.397 A  
ENDBRANCH  32  34
ENDBRANCH  26  28
ENDBRANCH  21  26
ENDBRANCH  17  19
ENDBRANCH  12  15
ENDBRANCH   8   9
ENDBRANCH   5   8
TORSDOF 7
ENDMDL
MODEL       10
REMARK 921   NORMALIZED FREE ENERGY PREDICTED BY IDOCK:   -7.50 KCAL/MOL
REMARK 922        TOTAL FREE ENERGY PREDICTED BY IDOCK:  -11.73 KCAL/MOL
REMARK 923 INTER-LIGAND FREE ENERGY PREDICTED BY IDOCK:  -10.63 KCAL/MOL
REMARK 924 INTRA-LIGAND FREE ENERGY PREDICTED BY IDOCK:   -1.10 KCAL/MOL
REMARK 927      BINDING AFFINITY PREDICTED BY RF-SCORE:    0.00 PKD
ROOT
HETATM    1  C   UNL     1      -7.856  20.275  67.212  1.00  0.00    -0.327 C  
HETATM    2  N   UNL     1      -8.745  19.429  68.009  1.00  0.00    -0.311 NA 
HETATM    3  C   UNL     1     -10.098  19.381  67.421  1.00  0.00    -0.398 C  
HETATM    4  C   UNL     1     -10.225  18.480  66.170  1.00  0.00    -0.398 C  
HETATM    5  N   UNL     1      -9.734  17.095  66.362  1.00  0.00    -0.281 NA 
HETATM    6  C   UNL     1      -8.201  18.061  68.144  1.00  0.00    -0.271 C  
HETATM    7  C   UNL     1      -8.361  17.160  66.894  1.00  0.00    -0.224 C  
ENDROOT
BRANCH   5   8
HETATM    8  C   UNL     1     -10.608  16.281  67.238  1.00  0.00    -0.298 C  
BRANCH   8   9
HETATM    9  C   UNL     1     -10.862  14.909  66.649  1.00  0.00    -0.319 A  
HETATM   10  C   UNL     1     -11.061  13.818  67.504  1.00  0.00    -0.295 A  
HETATM   11  C   UNL     1     -10.954  12.521  67.010  1.00  0.00    -0.306 A  
HETATM   12  C   UNL     1     -10.656  12.303  65.658  1.00  0.00    -0.295 A  
HETATM   13  C   UNL     1     -10.704  14.689  65.274  1.00  0.00    -0.396 A  
HETATM   14  C   UNL     1     -10.592  13.390  64.777  1.00  0.00    -0.420 A  
BRANCH  12  15
HETATM   15  C   UNL     1     -10.259  10.927  65.260  1.00  0.00    -0.288 C  
HETATM   16  O   UNL     1     -10.372  10.597  64.083  1.00  0.00    -0.351 OA 
HETATM   17  N   UNL     1      -9.754  10.110  66.261  1.00  0.00    -0.206 N  
HETATM   18  H   UNL     1      -9.672  10.475  67.210  1.00  0.00     0.000 HD 
BRANCH  17  19
HETATM   19  C   UNL     1      -9.354   8.786  65.992  1.00  0.00    -0.232 A  
HETATM   20  C   UNL     1     -10.112   7.761  66.544  1.00  0.00    -0.224 A  
HETATM   21  C   UNL     1      -9.661   6.428  66.545  1.00  0.00    -0.145 A  
HETATM   22  C   UNL     1      -8.212   8.482  65.263  1.00  0.00    -0.149 A  
HETATM   23  C   UNL     1      -8.494   6.122  65.814  1.00  0.00    -0.147 A  
HETATM   24  C   UNL     1      -7.899   4.743  65.715  1.00  0.00    -0.095 C  
HETATM   25  C   UNL     1      -7.807   7.152  65.143  1.00  0.00    -0.124 A  
BRANCH  21  26
HETATM   26  N   UNL     1     -10.306   5.483  67.364  1.00  0.00    -0.216 NA 
HETATM   27  H   UNL     1     -10.711   4.682  66.878  1.00  0.00     0.000 HD 
BRANCH  26  28
HETATM   28  C   UNL     1     -10.468   5.492  68.751  1.00  0.00    -0.191 A  
HETATM   29  N   UNL     1      -9.792   4.573  69.446  1.00  0.00    -0.205 NA 
HETATM   30  C   UNL     1      -9.919   4.612  70.785  1.00  0.00    -0.214 A  
HETATM   31  C   UNL     1     -10.679   5.541  71.460  1.00  0.00    -0.290 A  
HETATM   32  C   UNL     1     -11.349   6.454  70.676  1.00  0.00    -0.357 A  
HETATM   33  N   UNL     1     -11.242   6.420  69.336  1.00  0.00    -0.388 NA 
BRANCH  32  34
HETATM   34  C   UNL     1     -12.217   7.527  71.195  1.00  0.00    -0.330 A  
HETATM   35  C   UNL     1     -11.812   8.859  71.280  1.00  0.00    -0.310 A  
HETATM   36  N   UNL     1     -12.566   9.878  71.767  1.00  0.00    -0.403 NA 
HETATM   37  C   UNL     1     -13.807   9.559  72.204  1.00  0.00    -0.303 A  
HETATM   38  C   UNL     1     -14.319   8.278  72.179  1.00  0.00    -0.498 A  
HETATM   39  C   UNL     1     -13.515   7.260  71.669  1.00  0.00    -0.428 A  
ENDBRANCH  32  34
ENDBRANCH  26  28
ENDBRANCH  21  26
ENDBRANCH  17  19
ENDBRANCH  12  15
ENDBRANCH   8   9
ENDBRANCH   5   8
TORSDOF 7
ENDMDL
MODEL       11
REMARK 921   NORMALIZED FREE ENERGY PREDICTED BY IDOCK:   -7.48 KCAL/MOL
REMARK 922        TOTAL FREE ENERGY PREDICTED BY IDOCK:  -11.69 KCAL/MOL
REMARK 923 INTER-LIGAND FREE ENERGY PREDICTED BY IDOCK:  -10.05 KCAL/MOL
REMARK 924 INTRA-LIGAND FREE ENERGY PREDICTED BY IDOCK:   -1.64 KCAL/MOL
REMARK 927      BINDING AFFINITY PREDICTED BY RF-SCORE:    0.00 PKD
ROOT
HETATM    1  C   UNL     1      -9.520   4.371  72.610  1.00  0.00    -0.134 C  
HETATM    2  N   UNL     1      -9.903   4.326  71.198  1.00  0.00    -0.185 NA 
HETATM    3  C   UNL     1     -10.435   5.628  70.751  1.00  0.00    -0.265 C  
HETATM    4  C   UNL     1      -9.362   6.715  70.512  1.00  0.00    -0.166 C  
HETATM    5  N   UNL     1      -8.269   6.304  69.599  1.00  0.00    -0.122 NA 
HETATM    6  C   UNL     1      -8.761   3.926  70.348  1.00  0.00    -0.079 C  
HETATM    7  C   UNL     1      -7.708   5.033  70.092  1.00  0.00    -0.063 C  
ENDROOT
BRANCH   5   8
HETATM    8  C   UNL     1      -8.700   6.186  68.187  1.00  0.00    -0.114 C  
BRANCH   8   9
HETATM    9  C   UNL     1      -8.871   7.546  67.543  1.00  0.00    -0.127 A  
HETATM   10  C   UNL     1      -7.930   8.552  67.796  1.00  0.00    -0.107 A  
HETATM   11  C   UNL     1      -8.237   9.878  67.505  1.00  0.00    -0.114 A  
HETATM   12  C   UNL     1      -9.481  10.209  66.953  1.00  0.00    -0.203 A  
HETATM   13  C   UNL     1     -10.055   7.863  66.863  1.00  0.00    -0.362 A  
HETATM   14  C   UNL     1     -10.367   9.192  66.575  1.00  0.00    -0.269 A  
BRANCH  12  15
HETATM   15  C   UNL     1      -9.865  11.646  66.949  1.00  0.00    -0.198 C  
HETATM   16  O   UNL     1     -10.884  11.983  66.353  1.00  0.00    -0.256 OA 
HETATM   17  N   UNL     1      -9.044  12.512  67.654  1.00  0.00    -0.179 N  
HETATM   18  H   UNL     1      -8.228  12.142  68.142  1.00  0.00     0.000 HD 
BRANCH  17  19
HETATM   19  C   UNL     1      -9.314  13.895  67.708  1.00  0.00    -0.204 A  
HETATM   20  C   UNL     1     -10.162  14.345  68.713  1.00  0.00    -0.239 A  
HETATM   21  C   UNL     1     -10.688  15.650  68.704  1.00  0.00    -0.256 A  
HETATM   22  C   UNL     1      -8.822  14.791  66.770  1.00  0.00    -0.281 A  
HETATM   23  C   UNL     1     -10.196  16.557  67.743  1.00  0.00    -0.278 A  
HETATM   24  C   UNL     1     -10.655  17.985  67.619  1.00  0.00    -0.413 C  
HETATM   25  C   UNL     1      -9.231  16.125  66.812  1.00  0.00    -0.255 A  
BRANCH  21  26
HETATM   26  N   UNL     1     -11.759  15.966  69.558  1.00  0.00    -0.343 NA 
HETATM   27  H   UNL     1     -12.104  16.924  69.497  1.00  0.00     0.000 HD 
BRANCH  26  28
HETATM   28  C   UNL     1     -12.415  15.146  70.480  1.00  0.00    -0.379 A  
HETATM   29  N   UNL     1     -13.252  15.743  71.334  1.00  0.00    -0.486 NA 
HETATM   30  C   UNL     1     -13.912  14.945  72.192  1.00  0.00    -0.496 A  
HETATM   31  C   UNL     1     -13.786  13.574  72.221  1.00  0.00    -0.700 A  
HETATM   32  C   UNL     1     -12.903  13.032  71.315  1.00  0.00    -0.281 A  
HETATM   33  N   UNL     1     -12.226  13.818  70.459  1.00  0.00    -0.353 NA 
BRANCH  32  34
HETATM   34  C   UNL     1     -12.616  11.591  71.182  1.00  0.00    -0.463 A  
HETATM   35  C   UNL     1     -13.200  10.621  71.997  1.00  0.00    -0.368 A  
HETATM   36  N   UNL     1     -12.953   9.287  71.926  1.00  0.00    -0.378 NA 
HETATM   37  C   UNL     1     -12.067   8.883  70.987  1.00  0.00    -0.233 A  
HETATM   38  C   UNL     1     -11.419   9.746  70.127  1.00  0.00    -0.272 A  
HETATM   39  C   UNL     1     -11.700  11.107  70.229  1.00  0.00    -0.431 A  
ENDBRANCH  32  34
ENDBRANCH  26  28
ENDBRANCH  21  26
ENDBRANCH  17  19
ENDBRANCH  12  15
ENDBRANCH   8   9
ENDBRANCH   5   8
TORSDOF 7
ENDMDL
MODEL       12
REMARK 921   NORMALIZED FREE ENERGY PREDICTED BY IDOCK:   -7.42 KCAL/MOL
REMARK 922        TOTAL FREE ENERGY PREDICTED BY IDOCK:  -11.61 KCAL/MOL
REMARK 923 INTER-LIGAND FREE ENERGY PREDICTED BY IDOCK:  -10.27 KCAL/MOL
REMARK 924 INTRA-LIGAND FREE ENERGY PREDICTED BY IDOCK:   -1.35 KCAL/MOL
REMARK 927      BINDING AFFINITY PREDICTED BY RF-SCORE:    0.00 PKD
ROOT
HETATM    1  C   UNL     1      -7.763  20.296  67.120  1.00  0.00    -0.323 C  
HETATM    2  N   UNL     1      -8.520  19.308  67.891  1.00  0.00    -0.299 NA 
HETATM    3  C   UNL     1      -9.944  19.315  67.505  1.00  0.00    -0.365 C  
HETATM    4  C   UNL     1     -10.250  18.621  66.158  1.00  0.00    -0.416 C  
HETATM    5  N   UNL     1      -9.729  17.237  66.051  1.00  0.00    -0.497 NA 
HETATM    6  C   UNL     1      -7.954  17.953  67.723  1.00  0.00    -0.230 C  
HETATM    7  C   UNL     1      -8.293  17.257  66.380  1.00  0.00    -0.280 C  
ENDROOT
BRANCH   5   8
HETATM    8  C   UNL     1     -10.459  16.270  66.901  1.00  0.00    -0.302 C  
BRANCH   8   9
HETATM    9  C   UNL     1      -9.801  14.906  66.882  1.00  0.00    -0.246 A  
HETATM   10  C   UNL     1     -10.085  14.018  65.837  1.00  0.00    -0.336 A  
HETATM   11  C   UNL     1      -9.775  12.668  65.971  1.00  0.00    -0.232 A  
HETATM   12  C   UNL     1      -9.173  12.195  67.145  1.00  0.00    -0.193 A  
HETATM   13  C   UNL     1      -9.074  14.456  67.993  1.00  0.00    -0.188 A  
HETATM   14  C   UNL     1      -8.767  13.102  68.132  1.00  0.00    -0.193 A  
BRANCH  12  15
HETATM   15  C   UNL     1      -9.146  10.723  67.352  1.00  0.00    -0.143 C  
HETATM   16  O   UNL     1      -8.640  10.281  68.379  1.00  0.00    -0.118 OA 
HETATM   17  N   UNL     1      -9.729   9.944  66.364  1.00  0.00    -0.198 N  
HETATM   18  H   UNL     1     -10.149  10.397  65.552  1.00  0.00     0.000 HD 
BRANCH  17  19
HETATM   19  C   UNL     1      -9.751   8.538  66.459  1.00  0.00    -0.260 A  
HETATM   20  C   UNL     1     -10.649   7.968  67.354  1.00  0.00    -0.337 A  
HETATM   21  C   UNL     1     -10.579   6.607  67.704  1.00  0.00    -0.263 A  
HETATM   22  C   UNL     1      -8.877   7.725  65.750  1.00  0.00    -0.141 A  
HETATM   23  C   UNL     1      -9.682   5.784  66.991  1.00  0.00    -0.155 A  
HETATM   24  C   UNL     1      -9.504   4.312  67.246  1.00  0.00    -0.209 C  
HETATM   25  C   UNL     1      -8.871   6.350  65.988  1.00  0.00    -0.160 A  
BRANCH  21  26
HETATM   26  N   UNL     1     -11.301   6.144  68.818  1.00  0.00    -0.403 NA 
HETATM   27  H   UNL     1     -11.737   5.228  68.711  1.00  0.00     0.000 HD 
BRANCH  26  28
HETATM   28  C   UNL     1     -11.504   6.769  70.051  1.00  0.00    -0.334 A  
HETATM   29  N   UNL     1     -11.380   6.009  71.143  1.00  0.00    -0.271 NA 
HETATM   30  C   UNL     1     -11.536   6.624  72.329  1.00  0.00    -0.283 A  
HETATM   31  C   UNL     1     -11.793   7.969  72.471  1.00  0.00    -0.419 A  
HETATM   32  C   UNL     1     -11.911   8.686  71.302  1.00  0.00    -0.293 A  
HETATM   33  N   UNL     1     -11.771   8.083  70.108  1.00  0.00     0.071 NA 
BRANCH  32  34
HETATM   34  C   UNL     1     -12.188  10.133  71.229  1.00  0.00    -0.496 A  
HETATM   35  C   UNL     1     -13.057  10.786  72.104  1.00  0.00    -0.244 A  
HETATM   36  N   UNL     1     -13.358  12.109  72.065  1.00  0.00    -0.467 NA 
HETATM   37  C   UNL     1     -12.763  12.840  71.093  1.00  0.00    -0.263 A  
HETATM   38  C   UNL     1     -11.891  12.307  70.165  1.00  0.00    -0.352 A  
HETATM   39  C   UNL     1     -11.605  10.945  70.239  1.00  0.00    -0.426 A  
ENDBRANCH  32  34
ENDBRANCH  26  28
ENDBRANCH  21  26
ENDBRANCH  17  19
ENDBRANCH  12  15
ENDBRANCH   8   9
ENDBRANCH   5   8
TORSDOF 7
ENDMDL
MODEL       13
REMARK 921   NORMALIZED FREE ENERGY PREDICTED BY IDOCK:   -7.40 KCAL/MOL
REMARK 922        TOTAL FREE ENERGY PREDICTED BY IDOCK:  -11.57 KCAL/MOL
REMARK 923 INTER-LIGAND FREE ENERGY PREDICTED BY IDOCK:  -10.38 KCAL/MOL
REMARK 924 INTRA-LIGAND FREE ENERGY PREDICTED BY IDOCK:   -1.20 KCAL/MOL
REMARK 927      BINDING AFFINITY PREDICTED BY RF-SCORE:    0.00 PKD
ROOT
HETATM    1  C   UNL     1     -11.647   2.005  73.569  1.00  0.00    -0.189 C  
HETATM    2  N   UNL     1     -10.405   2.718  73.871  1.00  0.00    -0.127 NA 
HETATM    3  C   UNL     1      -9.422   2.553  72.781  1.00  0.00    -0.093 C  
HETATM    4  C   UNL     1      -9.705   3.406  71.524  1.00  0.00    -0.163 C  
HETATM    5  N   UNL     1      -9.885   4.853  71.794  1.00  0.00    -0.173 NA 
HETATM    6  C   UNL     1     -10.659   4.154  74.111  1.00  0.00    -0.241 C  
HETATM    7  C   UNL     1     -10.912   5.003  72.840  1.00  0.00    -0.277 C  
ENDROOT
BRANCH   5   8
HETATM    8  C   UNL     1      -8.628   5.536  72.175  1.00  0.00    -0.126 C  
BRANCH   8   9
HETATM    9  C   UNL     1      -8.232   6.582  71.153  1.00  0.00    -0.121 A  
HETATM   10  C   UNL     1      -8.365   7.940  71.469  1.00  0.00    -0.130 A  
HETATM   11  C   UNL     1      -8.338   8.893  70.455  1.00  0.00    -0.177 A  
HETATM   12  C   UNL     1      -8.170   8.499  69.121  1.00  0.00    -0.119 A  
HETATM   13  C   UNL     1      -7.924   6.204  69.838  1.00  0.00    -0.114 A  
HETATM   14  C   UNL     1      -7.902   7.158  68.820  1.00  0.00    -0.122 A  
BRANCH  12  15
HETATM   15  C   UNL     1      -8.452   9.513  68.070  1.00  0.00    -0.119 C  
HETATM   16  O   UNL     1      -7.566  10.306  67.762  1.00  0.00    -0.089 OA 
HETATM   17  N   UNL     1      -9.708   9.472  67.485  1.00  0.00    -0.150 N  
HETATM   18  H   UNL     1     -10.377   8.762  67.785  1.00  0.00     0.000 HD 
BRANCH  17  19
HETATM   19  C   UNL     1     -10.080  10.392  66.484  1.00  0.00    -0.228 A  
HETATM   20  C   UNL     1     -10.595  11.615  66.894  1.00  0.00    -0.276 A  
HETATM   21  C   UNL     1     -11.220  12.493  65.989  1.00  0.00    -0.315 A  
HETATM   22  C   UNL     1     -10.010  10.094  65.130  1.00  0.00    -0.379 A  
HETATM   23  C   UNL     1     -11.159  12.183  64.615  1.00  0.00    -0.366 A  
HETATM   24  C   UNL     1     -11.772  13.030  63.532  1.00  0.00    -0.532 C  
HETATM   25  C   UNL     1     -10.512  11.003  64.198  1.00  0.00    -0.434 A  
BRANCH  21  26
HETATM   26  N   UNL     1     -11.981  13.566  66.486  1.00  0.00    -0.400 NA 
HETATM   27  H   UNL     1     -12.949  13.607  66.166  1.00  0.00     0.000 HD 
BRANCH  26  28
HETATM   28  C   UNL     1     -11.591  14.585  67.359  1.00  0.00    -0.385 A  
HETATM   29  N   UNL     1     -10.799  15.539  66.862  1.00  0.00    -0.315 NA 
HETATM   30  C   UNL     1     -10.460  16.540  67.695  1.00  0.00    -0.305 A  
HETATM   31  C   UNL     1     -10.893  16.636  68.998  1.00  0.00    -0.314 A  
HETATM   32  C   UNL     1     -11.703  15.615  69.441  1.00  0.00    -0.383 A  
HETATM   33  N   UNL     1     -12.040  14.602  68.623  1.00  0.00    -0.251 NA 
BRANCH  32  34
HETATM   34  C   UNL     1     -12.271  15.523  70.799  1.00  0.00    -0.450 A  
HETATM   35  C   UNL     1     -13.412  14.778  71.097  1.00  0.00    -0.390 A  
HETATM   36  N   UNL     1     -13.983  14.679  72.325  1.00  0.00    -0.461 NA 
HETATM   37  C   UNL     1     -13.387  15.364  73.329  1.00  0.00    -0.445 A  
HETATM   38  C   UNL     1     -12.259  16.141  73.158  1.00  0.00    -0.643 A  
HETATM   39  C   UNL     1     -11.702  16.216  71.883  1.00  0.00    -0.575 A  
ENDBRANCH  32  34
ENDBRANCH  26  28
ENDBRANCH  21  26
ENDBRANCH  17  19
ENDBRANCH  12  15
ENDBRANCH   8   9
ENDBRANCH   5   8
TORSDOF 7
ENDMDL
MODEL       14
REMARK 921   NORMALIZED FREE ENERGY PREDICTED BY IDOCK:   -7.37 KCAL/MOL
REMARK 922        TOTAL FREE ENERGY PREDICTED BY IDOCK:  -11.54 KCAL/MOL
REMARK 923 INTER-LIGAND FREE ENERGY PREDICTED BY IDOCK:  -10.26 KCAL/MOL
REMARK 924 INTRA-LIGAND FREE ENERGY PREDICTED BY IDOCK:   -1.28 KCAL/MOL
REMARK 927      BINDING AFFINITY PREDICTED BY RF-SCORE:    0.00 PKD
ROOT
HETATM    1  C   UNL     1      -8.174   1.639  65.447  1.00  0.00    -0.078 C  
HETATM    2  N   UNL     1      -7.430   2.881  65.663  1.00  0.00    -0.071 NA 
HETATM    3  C   UNL     1      -7.882   3.936  64.734  1.00  0.00    -0.085 C  
HETATM    4  C   UNL     1      -9.236   4.584  65.104  1.00  0.00    -0.157 C  
HETATM    5  N   UNL     1      -9.308   5.102  66.490  1.00  0.00    -0.135 NA 
HETATM    6  C   UNL     1      -7.561   3.345  67.060  1.00  0.00    -0.079 C  
HETATM    7  C   UNL     1      -8.912   4.019  67.409  1.00  0.00    -0.129 C  
ENDROOT
BRANCH   5   8
HETATM    8  C   UNL     1      -8.483   6.313  66.705  1.00  0.00    -0.111 C  
BRANCH   8   9
HETATM    9  C   UNL     1      -9.287   7.578  66.484  1.00  0.00    -0.231 A  
HETATM   10  C   UNL     1      -8.833   8.531  65.564  1.00  0.00    -0.196 A  
HETATM   11  C   UNL     1      -9.350   9.822  65.591  1.00  0.00    -0.285 A  
HETATM   12  C   UNL     1     -10.328  10.172  66.532  1.00  0.00    -0.270 A  
HETATM   13  C   UNL     1     -10.362   7.890  67.328  1.00  0.00    -0.377 A  
HETATM   14  C   UNL     1     -10.878   9.186  67.361  1.00  0.00    -0.140 A  
BRANCH  12  15
HETATM   15  C   UNL     1     -10.615  11.620  66.713  1.00  0.00    -0.244 C  
HETATM   16  O   UNL     1     -11.783  11.998  66.679  1.00  0.00    -0.522 OA 
HETATM   17  N   UNL     1      -9.526  12.448  66.936  1.00  0.00    -0.213 N  
HETATM   18  H   UNL     1      -8.590  12.044  66.973  1.00  0.00     0.000 HD 
BRANCH  17  19
HETATM   19  C   UNL     1      -9.687  13.836  67.114  1.00  0.00    -0.244 A  
HETATM   20  C   UNL     1     -10.012  14.289  68.387  1.00  0.00    -0.240 A  
HETATM   21  C   UNL     1     -10.435  15.611  68.614  1.00  0.00    -0.231 A  
HETATM   22  C   UNL     1      -9.598  14.741  66.064  1.00  0.00    -0.334 A  
HETATM   23  C   UNL     1     -10.355  16.527  67.544  1.00  0.00    -0.294 A  
HETATM   24  C   UNL     1     -10.761  17.972  67.640  1.00  0.00    -0.360 C  
HETATM   25  C   UNL     1      -9.893  16.086  66.288  1.00  0.00    -0.331 A  
BRANCH  21  26
HETATM   26  N   UNL     1     -11.031  15.942  69.844  1.00  0.00    -0.313 NA 
HETATM   27  H   UNL     1     -10.722  16.820  70.262  1.00  0.00     0.000 HD 
BRANCH  26  28
HETATM   28  C   UNL     1     -11.988  15.231  70.572  1.00  0.00    -0.344 A  
HETATM   29  N   UNL     1     -12.970  15.940  71.136  1.00  0.00    -0.433 NA 
HETATM   30  C   UNL     1     -13.912  15.247  71.801  1.00  0.00    -0.539 A  
HETATM   31  C   UNL     1     -13.924  13.875  71.912  1.00  0.00    -0.512 A  
HETATM   32  C   UNL     1     -12.879  13.213  71.308  1.00  0.00    -0.296 A  
HETATM   33  N   UNL     1     -11.923  13.893  70.651  1.00  0.00    -0.317 NA 
BRANCH  32  34
HETATM   34  C   UNL     1     -12.700  11.749  71.310  1.00  0.00    -0.420 A  
HETATM   35  C   UNL     1     -13.505  10.885  72.053  1.00  0.00    -0.181 A  
HETATM   36  N   UNL     1     -13.367   9.535  72.102  1.00  0.00    -0.443 NA 
HETATM   37  C   UNL     1     -12.363   9.000  71.369  1.00  0.00    -0.318 A  
HETATM   38  C   UNL     1     -11.497   9.750  70.600  1.00  0.00    -0.397 A  
HETATM   39  C   UNL     1     -11.671  11.132  70.573  1.00  0.00    -0.392 A  
ENDBRANCH  32  34
ENDBRANCH  26  28
ENDBRANCH  21  26
ENDBRANCH  17  19
ENDBRANCH  12  15
ENDBRANCH   8   9
ENDBRANCH   5   8
TORSDOF 7
ENDMDL
MODEL       15
REMARK 921   NORMALIZED FREE ENERGY PREDICTED BY IDOCK:   -7.32 KCAL/MOL
REMARK 922        TOTAL FREE ENERGY PREDICTED BY IDOCK:  -11.47 KCAL/MOL
REMARK 923 INTER-LIGAND FREE ENERGY PREDICTED BY IDOCK:  -10.18 KCAL/MOL
REMARK 924 INTRA-LIGAND FREE ENERGY PREDICTED BY IDOCK:   -1.29 KCAL/MOL
REMARK 927      BINDING AFFINITY PREDICTED BY RF-SCORE:    0.00 PKD
ROOT
HETATM    1  C   UNL     1      -8.955   2.202  73.511  1.00  0.00    -0.069 C  
HETATM    2  N   UNL     1     -10.046   2.560  72.603  1.00  0.00    -0.147 NA 
HETATM    3  C   UNL     1     -10.531   3.928  72.872  1.00  0.00    -0.168 C  
HETATM    4  C   UNL     1      -9.611   5.052  72.343  1.00  0.00    -0.145 C  
HETATM    5  N   UNL     1      -9.268   4.937  70.906  1.00  0.00    -0.140 NA 
HETATM    6  C   UNL     1      -9.627   2.437  71.191  1.00  0.00    -0.145 C  
HETATM    7  C   UNL     1      -8.730   3.586  70.666  1.00  0.00    -0.074 C  
ENDROOT
BRANCH   5   8
HETATM    8  C   UNL     1     -10.410   5.225  70.008  1.00  0.00    -0.295 C  
BRANCH   8   9
HETATM    9  C   UNL     1     -10.202   6.514  69.240  1.00  0.00    -0.216 A  
HETATM   10  C   UNL     1      -9.980   7.706  69.941  1.00  0.00    -0.190 A  
HETATM   11  C   UNL     1     -10.126   8.928  69.293  1.00  0.00    -0.205 A  
HETATM   12  C   UNL     1     -10.488   8.971  67.940  1.00  0.00    -0.291 A  
HETATM   13  C   UNL     1     -10.424   6.556  67.856  1.00  0.00    -0.273 A  
HETATM   14  C   UNL     1     -10.577   7.782  67.206  1.00  0.00    -0.376 A  
BRANCH  12  15
HETATM   15  C   UNL     1     -10.922  10.284  67.390  1.00  0.00    -0.252 C  
HETATM   16  O   UNL     1     -11.778  10.922  67.996  1.00  0.00    -0.540 OA 
HETATM   17  N   UNL     1     -10.298  10.710  66.228  1.00  0.00    -0.245 N  
HETATM   18  H   UNL     1      -9.577  10.125  65.804  1.00  0.00     0.000 HD 
BRANCH  17  19
HETATM   19  C   UNL     1     -10.640  11.935  65.621  1.00  0.00    -0.268 A  
HETATM   20  C   UNL     1      -9.824  13.030  65.879  1.00  0.00    -0.243 A  
HETATM   21  C   UNL     1     -10.212  14.337  65.530  1.00  0.00    -0.357 A  
HETATM   22  C   UNL     1     -11.779  12.093  64.844  1.00  0.00    -0.373 A  
HETATM   23  C   UNL     1     -11.376  14.498  64.750  1.00  0.00    -0.397 A  
HETATM   24  C   UNL     1     -11.907  15.830  64.294  1.00  0.00    -0.120 C  
HETATM   25  C   UNL     1     -12.123  13.363  64.379  1.00  0.00    -0.468 A  
BRANCH  21  26
HETATM   26  N   UNL     1      -9.508  15.430  66.066  1.00  0.00    -0.330 NA 
HETATM   27  H   UNL     1      -8.695  15.736  65.531  1.00  0.00     0.000 HD 
BRANCH  26  28
HETATM   28  C   UNL     1      -9.771  16.154  67.231  1.00  0.00    -0.233 A  
HETATM   29  N   UNL     1      -9.352  17.423  67.264  1.00  0.00    -0.236 NA 
HETATM   30  C   UNL     1      -9.644  18.128  68.372  1.00  0.00    -0.337 A  
HETATM   31  C   UNL     1     -10.351  17.625  69.441  1.00  0.00    -0.006 A  
HETATM   32  C   UNL     1     -10.746  16.310  69.336  1.00  0.00    -0.318 A  
HETATM   33  N   UNL     1     -10.451  15.589  68.241  1.00  0.00    -0.238 NA 
BRANCH  32  34
HETATM   34  C   UNL     1     -11.508  15.579  70.366  1.00  0.00    -0.364 A  
HETATM   35  C   UNL     1     -11.961  14.271  70.191  1.00  0.00    -0.326 A  
HETATM   36  N   UNL     1     -12.681  13.564  71.100  1.00  0.00    -0.354 NA 
HETATM   37  C   UNL     1     -12.976  14.192  72.262  1.00  0.00    -0.382 A  
HETATM   38  C   UNL     1     -12.590  15.485  72.550  1.00  0.00    -0.497 A  
HETATM   39  C   UNL     1     -11.851  16.178  71.593  1.00  0.00    -0.557 A  
ENDBRANCH  32  34
ENDBRANCH  26  28
ENDBRANCH  21  26
ENDBRANCH  17  19
ENDBRANCH  12  15
ENDBRANCH   8   9
ENDBRANCH   5   8
TORSDOF 7
ENDMDL
MODEL       16
REMARK 921   NORMALIZED FREE ENERGY PREDICTED BY IDOCK:   -7.31 KCAL/MOL
REMARK 922        TOTAL FREE ENERGY PREDICTED BY IDOCK:  -11.46 KCAL/MOL
REMARK 923 INTER-LIGAND FREE ENERGY PREDICTED BY IDOCK:  -10.52 KCAL/MOL
REMARK 924 INTRA-LIGAND FREE ENERGY PREDICTED BY IDOCK:   -0.94 KCAL/MOL
REMARK 927      BINDING AFFINITY PREDICTED BY RF-SCORE:    0.00 PKD
ROOT
HETATM    1  C   UNL     1      -5.429   2.379  66.229  1.00  0.00    -0.016 C  
HETATM    2  N   UNL     1      -6.581   1.919  67.006  1.00  0.00    -0.034 NA 
HETATM    3  C   UNL     1      -6.481   2.360  68.411  1.00  0.00    -0.029 C  
HETATM    4  C   UNL     1      -6.813   3.852  68.643  1.00  0.00    -0.047 C  
HETATM    5  N   UNL     1      -8.123   4.279  68.098  1.00  0.00    -0.089 NA 
HETATM    6  C   UNL     1      -7.848   2.396  66.413  1.00  0.00    -0.076 C  
HETATM    7  C   UNL     1      -8.183   3.886  66.679  1.00  0.00    -0.100 C  
ENDROOT
BRANCH   5   8
HETATM    8  C   UNL     1      -9.276   3.737  68.852  1.00  0.00    -0.156 C  
BRANCH   8   9
HETATM    9  C   UNL     1     -10.082   4.841  69.505  1.00  0.00    -0.260 A  
HETATM   10  C   UNL     1     -10.767   5.761  68.702  1.00  0.00    -0.303 A  
HETATM   11  C   UNL     1     -11.220   6.957  69.250  1.00  0.00    -0.188 A  
HETATM   12  C   UNL     1     -10.999   7.241  70.604  1.00  0.00    -0.278 A  
HETATM   13  C   UNL     1      -9.987   5.064  70.886  1.00  0.00    -0.286 A  
HETATM   14  C   UNL     1     -10.436   6.266  71.436  1.00  0.00    -0.264 A  
BRANCH  12  15
HETATM   15  C   UNL     1     -11.228   8.640  71.054  1.00  0.00    -0.271 C  
HETATM   16  O   UNL     1     -10.555   9.079  71.982  1.00  0.00    -0.345 OA 
HETATM   17  N   UNL     1     -12.184   9.368  70.363  1.00  0.00    -0.468 N  
HETATM   18  H   UNL     1     -12.681   8.931  69.586  1.00  0.00     0.000 HD 
BRANCH  17  19
HETATM   19  C   UNL     1     -12.483  10.701  70.712  1.00  0.00    -0.385 A  
HETATM   20  C   UNL     1     -11.809  11.710  70.036  1.00  0.00    -0.435 A  
HETATM   21  C   UNL     1     -11.848  13.046  70.476  1.00  0.00    -0.084 A  
HETATM   22  C   UNL     1     -13.363  11.027  71.735  1.00  0.00    -0.400 A  
HETATM   23  C   UNL     1     -12.734  13.374  71.523  1.00  0.00    -0.386 A  
HETATM   24  C   UNL     1     -12.892  14.759  72.090  1.00  0.00    -0.407 C  
HETATM   25  C   UNL     1     -13.517  12.362  72.111  1.00  0.00    -0.481 A  
BRANCH  21  26
HETATM   26  N   UNL     1     -10.928  13.971  69.950  1.00  0.00    -0.459 NA 
HETATM   27  H   UNL     1     -10.177  14.253  70.581  1.00  0.00     0.000 HD 
BRANCH  26  28
HETATM   28  C   UNL     1     -10.902  14.555  68.682  1.00  0.00    -0.251 A  
HETATM   29  N   UNL     1     -11.196  13.766  67.644  1.00  0.00    -0.283 NA 
HETATM   30  C   UNL     1     -11.210  14.344  66.429  1.00  0.00    -0.345 A  
HETATM   31  C   UNL     1     -10.959  15.679  66.209  1.00  0.00    -0.201 A  
HETATM   32  C   UNL     1     -10.660  16.428  67.324  1.00  0.00    -0.293 A  
HETATM   33  N   UNL     1     -10.630  15.862  68.544  1.00  0.00    -0.252 NA 
BRANCH  32  34
HETATM   34  C   UNL     1     -10.357  17.871  67.310  1.00  0.00    -0.374 A  
HETATM   35  C   UNL     1     -10.088  18.604  68.466  1.00  0.00    -0.382 A  
HETATM   36  N   UNL     1      -9.823  19.935  68.505  1.00  0.00    -0.378 NA 
HETATM   37  C   UNL     1      -9.826  20.590  67.321  1.00  0.00    -0.441 A  
HETATM   38  C   UNL     1     -10.084  19.978  66.111  1.00  0.00    -0.588 A  
HETATM   39  C   UNL     1     -10.349  18.610  66.112  1.00  0.00    -0.481 A  
ENDBRANCH  32  34
ENDBRANCH  26  28
ENDBRANCH  21  26
ENDBRANCH  17  19
ENDBRANCH  12  15
ENDBRANCH   8   9
ENDBRANCH   5   8
TORSDOF 7
ENDMDL
MODEL       17
REMARK 921   NORMALIZED FREE ENERGY PREDICTED BY IDOCK:   -7.31 KCAL/MOL
REMARK 922        TOTAL FREE ENERGY PREDICTED BY IDOCK:  -11.45 KCAL/MOL
REMARK 923 INTER-LIGAND FREE ENERGY PREDICTED BY IDOCK:  -10.39 KCAL/MOL
REMARK 924 INTRA-LIGAND FREE ENERGY PREDICTED BY IDOCK:   -1.06 KCAL/MOL
REMARK 927      BINDING AFFINITY PREDICTED BY RF-SCORE:    0.00 PKD
ROOT
HETATM    1  C   UNL     1      -8.143  17.851  68.176  1.00  0.00    -0.267 C  
HETATM    2  N   UNL     1      -9.481  17.266  68.270  1.00  0.00    -0.273 NA 
HETATM    3  C   UNL     1     -10.157  17.278  66.958  1.00  0.00    -0.303 C  
HETATM    4  C   UNL     1      -9.663  16.196  65.969  1.00  0.00    -0.344 C  
HETATM    5  N   UNL     1      -9.686  14.817  66.510  1.00  0.00    -0.264 NA 
HETATM    6  C   UNL     1      -9.425  15.888  68.800  1.00  0.00    -0.221 C  
HETATM    7  C   UNL     1      -8.956  14.810  67.791  1.00  0.00    -0.182 C  
ENDROOT
BRANCH   5   8
HETATM    8  C   UNL     1     -11.055  14.276  66.673  1.00  0.00    -0.321 C  
BRANCH   8   9
HETATM    9  C   UNL     1     -11.070  12.764  66.570  1.00  0.00    -0.321 A  
HETATM   10  C   UNL     1     -11.620  12.008  67.613  1.00  0.00    -0.392 A  
HETATM   11  C   UNL     1     -11.344  10.647  67.702  1.00  0.00    -0.284 A  
HETATM   12  C   UNL     1     -10.524  10.029  66.748  1.00  0.00    -0.267 A  
HETATM   13  C   UNL     1     -10.369  12.118  65.543  1.00  0.00    -0.296 A  
HETATM   14  C   UNL     1     -10.087  10.754  65.633  1.00  0.00    -0.327 A  
BRANCH  12  15
HETATM   15  C   UNL     1     -10.023   8.664  67.061  1.00  0.00    -0.249 C  
HETATM   16  O   UNL     1      -8.826   8.513  67.289  1.00  0.00    -0.128 OA 
HETATM   17  N   UNL     1     -10.965   7.648  67.099  1.00  0.00    -0.514 N  
HETATM   18  H   UNL     1     -11.945   7.867  66.920  1.00  0.00     0.000 HD 
BRANCH  17  19
HETATM   19  C   UNL     1     -10.595   6.317  67.380  1.00  0.00    -0.291 A  
HETATM   20  C   UNL     1     -10.616   5.910  68.708  1.00  0.00    -0.340 A  
HETATM   21  C   UNL     1     -10.033   4.697  69.117  1.00  0.00    -0.138 A  
HETATM   22  C   UNL     1     -10.157   5.439  66.398  1.00  0.00    -0.239 A  
HETATM   23  C   UNL     1      -9.577   3.810  68.119  1.00  0.00    -0.176 A  
HETATM   24  C   UNL     1      -8.943   2.475  68.403  1.00  0.00    -0.183 C  
HETATM   25  C   UNL     1      -9.687   4.177  66.763  1.00  0.00    -0.234 A  
BRANCH  21  26
HETATM   26  N   UNL     1      -9.813   4.465  70.486  1.00  0.00    -0.216 NA 
HETATM   27  H   UNL     1      -9.469   3.535  70.727  1.00  0.00     0.000 HD 
BRANCH  26  28
HETATM   28  C   UNL     1     -10.001   5.336  71.562  1.00  0.00    -0.182 A  
HETATM   29  N   UNL     1      -9.385   5.027  72.707  1.00  0.00    -0.135 NA 
HETATM   30  C   UNL     1      -9.536   5.890  73.728  1.00  0.00    -0.147 A  
HETATM   31  C   UNL     1     -10.262   7.057  73.649  1.00  0.00    -0.396 A  
HETATM   32  C   UNL     1     -10.871   7.306  72.439  1.00  0.00    -0.255 A  
HETATM   33  N   UNL     1     -10.740   6.446  71.413  1.00  0.00    -0.237 NA 
BRANCH  32  34
HETATM   34  C   UNL     1     -11.696   8.493  72.144  1.00  0.00    -0.448 A  
HETATM   35  C   UNL     1     -13.027   8.612  72.543  1.00  0.00    -0.290 A  
HETATM   36  N   UNL     1     -13.831   9.675  72.278  1.00  0.00    -0.318 NA 
HETATM   37  C   UNL     1     -13.284  10.688  71.568  1.00  0.00    -0.360 A  
HETATM   38  C   UNL     1     -11.981  10.684  71.112  1.00  0.00    -0.401 A  
HETATM   39  C   UNL     1     -11.187   9.577  71.405  1.00  0.00    -0.452 A  
ENDBRANCH  32  34
ENDBRANCH  26  28
ENDBRANCH  21  26
ENDBRANCH  17  19
ENDBRANCH  12  15
ENDBRANCH   8   9
ENDBRANCH   5   8
TORSDOF 7
ENDMDL
MODEL       18
REMARK 921   NORMALIZED FREE ENERGY PREDICTED BY IDOCK:   -7.29 KCAL/MOL
REMARK 922        TOTAL FREE ENERGY PREDICTED BY IDOCK:  -11.43 KCAL/MOL
REMARK 923 INTER-LIGAND FREE ENERGY PREDICTED BY IDOCK:  -10.08 KCAL/MOL
REMARK 924 INTRA-LIGAND FREE ENERGY PREDICTED BY IDOCK:   -1.35 KCAL/MOL
REMARK 927      BINDING AFFINITY PREDICTED BY RF-SCORE:    0.00 PKD
ROOT
HETATM    1  C   UNL     1      -9.450   4.663  74.017  1.00  0.00    -0.117 C  
HETATM    2  N   UNL     1      -8.490   4.749  72.915  1.00  0.00    -0.110 NA 
HETATM    3  C   UNL     1      -8.481   3.504  72.123  1.00  0.00    -0.083 C  
HETATM    4  C   UNL     1      -9.687   3.339  71.170  1.00  0.00    -0.142 C  
HETATM    5  N   UNL     1      -9.908   4.487  70.258  1.00  0.00    -0.220 NA 
HETATM    6  C   UNL     1      -8.782   5.905  72.042  1.00  0.00    -0.137 C  
HETATM    7  C   UNL     1      -9.974   5.715  71.071  1.00  0.00    -0.192 C  
ENDROOT
BRANCH   5   8
HETATM    8  C   UNL     1      -8.878   4.601  69.201  1.00  0.00    -0.093 C  
BRANCH   8   9
HETATM    9  C   UNL     1      -9.183   5.739  68.249  1.00  0.00    -0.119 A  
HETATM   10  C   UNL     1      -8.313   6.834  68.183  1.00  0.00    -0.118 A  
HETATM   11  C   UNL     1      -8.734   8.020  67.590  1.00  0.00    -0.126 A  
HETATM   12  C   UNL     1     -10.024   8.120  67.052  1.00  0.00    -0.329 A  
HETATM   13  C   UNL     1     -10.417   5.796  67.587  1.00  0.00    -0.299 A  
HETATM   14  C   UNL     1     -10.845   6.986  66.996  1.00  0.00    -0.413 A  
BRANCH  12  15
HETATM   15  C   UNL     1     -10.519   9.481  66.713  1.00  0.00    -0.193 C  
HETATM   16  O   UNL     1     -11.275  10.046  67.497  1.00  0.00    -0.228 OA 
HETATM   17  N   UNL     1     -10.060  10.034  65.527  1.00  0.00    -0.289 N  
HETATM   18  H   UNL     1      -9.412   9.502  64.945  1.00  0.00     0.000 HD 
BRANCH  17  19
HETATM   19  C   UNL     1     -10.472  11.315  65.109  1.00  0.00    -0.291 A  
HETATM   20  C   UNL     1      -9.876  12.413  65.719  1.00  0.00    -0.253 A  
HETATM   21  C   UNL     1     -10.387  13.714  65.557  1.00  0.00    -0.309 A  
HETATM   22  C   UNL     1     -11.479  11.510  64.174  1.00  0.00    -0.299 A  
HETATM   23  C   UNL     1     -11.419  13.909  64.615  1.00  0.00    -0.386 A  
HETATM   24  C   UNL     1     -12.055  15.241  64.326  1.00  0.00    -0.222 C  
HETATM   25  C   UNL     1     -11.923  12.804  63.900  1.00  0.00    -0.554 A  
BRANCH  21  26
HETATM   26  N   UNL     1      -9.947  14.738  66.414  1.00  0.00    -0.265 NA 
HETATM   27  H   UNL     1      -9.148  15.279  66.081  1.00  0.00     0.000 HD 
BRANCH  26  28
HETATM   28  C   UNL     1     -10.454  15.116  67.659  1.00  0.00    -0.253 A  
HETATM   29  N   UNL     1     -10.381  16.412  67.975  1.00  0.00    -0.277 NA 
HETATM   30  C   UNL     1     -10.908  16.778  69.158  1.00  0.00    -0.287 A  
HETATM   31  C   UNL     1     -11.521  15.906  70.030  1.00  0.00    -0.354 A  
HETATM   32  C   UNL     1     -11.555  14.587  69.638  1.00  0.00    -0.299 A  
HETATM   33  N   UNL     1     -11.021  14.204  68.464  1.00  0.00    -0.245 NA 
BRANCH  32  34
HETATM   34  C   UNL     1     -12.158  13.494  70.423  1.00  0.00    -0.415 A  
HETATM   35  C   UNL     1     -13.030  13.714  71.489  1.00  0.00    -0.360 A  
HETATM   36  N   UNL     1     -13.595  12.743  72.253  1.00  0.00    -0.542 NA 
HETATM   37  C   UNL     1     -13.275  11.465  71.943  1.00  0.00    -0.380 A  
HETATM   38  C   UNL     1     -12.420  11.120  70.917  1.00  0.00    -0.509 A  
HETATM   39  C   UNL     1     -11.862  12.144  70.155  1.00  0.00    -0.368 A  
ENDBRANCH  32  34
ENDBRANCH  26  28
ENDBRANCH  21  26
ENDBRANCH  17  19
ENDBRANCH  12  15
ENDBRANCH   8   9
ENDBRANCH   5   8
TORSDOF 7
ENDMDL
MODEL       19
REMARK 921   NORMALIZED FREE ENERGY PREDICTED BY IDOCK:   -7.22 KCAL/MOL
REMARK 922        TOTAL FREE ENERGY PREDICTED BY IDOCK:  -11.32 KCAL/MOL
REMARK 923 INTER-LIGAND FREE ENERGY PREDICTED BY IDOCK:  -10.49 KCAL/MOL
REMARK 924 INTRA-LIGAND FREE ENERGY PREDICTED BY IDOCK:   -0.83 KCAL/MOL
REMARK 927      BINDING AFFINITY PREDICTED BY RF-SCORE:    0.00 PKD
ROOT
HETATM    1  C   UNL     1     -10.561   3.362  73.727  1.00  0.00    -0.197 C  
HETATM    2  N   UNL     1     -10.937   4.733  74.073  1.00  0.00    -0.298 NA 
HETATM    3  C   UNL     1      -9.766   5.501  74.540  1.00  0.00    -0.194 C  
HETATM    4  C   UNL     1      -8.806   5.958  73.417  1.00  0.00    -0.126 C  
HETATM    5  N   UNL     1      -9.463   6.704  72.318  1.00  0.00    -0.147 NA 
HETATM    6  C   UNL     1     -11.569   5.419  72.926  1.00  0.00    -0.228 C  
HETATM    7  C   UNL     1     -10.593   5.898  71.823  1.00  0.00    -0.234 C  
ENDROOT
BRANCH   5   8
HETATM    8  C   UNL     1      -9.907   8.060  72.715  1.00  0.00    -0.282 C  
BRANCH   8   9
HETATM    9  C   UNL     1     -10.408   8.851  71.525  1.00  0.00    -0.394 A  
HETATM   10  C   UNL     1      -9.526   9.159  70.481  1.00  0.00    -0.291 A  
HETATM   11  C   UNL     1      -9.857  10.152  69.564  1.00  0.00    -0.255 A  
HETATM   12  C   UNL     1     -11.072  10.840  69.677  1.00  0.00    -0.339 A  
HETATM   13  C   UNL     1     -11.679   9.441  71.552  1.00  0.00    -0.465 A  
HETATM   14  C   UNL     1     -12.011  10.441  70.637  1.00  0.00    -0.448 A  
BRANCH  12  15
HETATM   15  C   UNL     1     -11.233  12.078  68.869  1.00  0.00    -0.261 C  
HETATM   16  O   UNL     1     -12.015  12.068  67.923  1.00  0.00    -0.526 OA 
HETATM   17  N   UNL     1     -10.494  13.182  69.266  1.00  0.00    -0.422 N  
HETATM   18  H   UNL     1      -9.884  13.109  70.081  1.00  0.00     0.000 HD 
BRANCH  17  19
HETATM   19  C   UNL     1     -10.567  14.403  68.565  1.00  0.00    -0.255 A  
HETATM   20  C   UNL     1      -9.551  14.687  67.661  1.00  0.00    -0.212 A  
HETATM   21  C   UNL     1      -9.398  15.969  67.103  1.00  0.00    -0.211 A  
HETATM   22  C   UNL     1     -11.567  15.338  68.794  1.00  0.00    -0.379 A  
HETATM   23  C   UNL     1     -10.408  16.923  67.345  1.00  0.00    -0.309 A  
HETATM   24  C   UNL     1     -10.387  18.329  66.807  1.00  0.00    -0.403 C  
HETATM   25  C   UNL     1     -11.507  16.578  68.156  1.00  0.00    -0.037 A  
BRANCH  21  26
HETATM   26  N   UNL     1      -8.203  16.292  66.436  1.00  0.00    -0.311 NA 
HETATM   27  H   UNL     1      -7.883  15.609  65.749  1.00  0.00     0.000 HD 
BRANCH  26  28
HETATM   28  C   UNL     1      -7.394  17.421  66.586  1.00  0.00    -0.247 A  
HETATM   29  N   UNL     1      -7.040  18.066  65.471  1.00  0.00    -0.502 NA 
HETATM   30  C   UNL     1      -6.296  19.176  65.623  1.00  0.00    -0.239 A  
HETATM   31  C   UNL     1      -5.904  19.679  66.844  1.00  0.00    -0.173 A  
HETATM   32  C   UNL     1      -6.303  18.959  67.947  1.00  0.00    -0.204 A  
HETATM   33  N   UNL     1      -7.037  17.840  67.810  1.00  0.00    -0.192 NA 
BRANCH  32  34
HETATM   34  C   UNL     1      -5.989  19.319  69.343  1.00  0.00    -0.284 A  
HETATM   35  C   UNL     1      -5.917  20.638  69.790  1.00  0.00    -0.242 A  
HETATM   36  N   UNL     1      -5.612  21.020  71.057  1.00  0.00    -0.452 NA 
HETATM   37  C   UNL     1      -5.360  20.030  71.945  1.00  0.00    -0.363 A  
HETATM   38  C   UNL     1      -5.393  18.689  71.622  1.00  0.00    -0.167 A  
HETATM   39  C   UNL     1      -5.711  18.337  70.312  1.00  0.00    -0.198 A  
ENDBRANCH  32  34
ENDBRANCH  26  28
ENDBRANCH  21  26
ENDBRANCH  17  19
ENDBRANCH  12  15
ENDBRANCH   8   9
ENDBRANCH   5   8
TORSDOF 7
ENDMDL
MODEL       20
REMARK 921   NORMALIZED FREE ENERGY PREDICTED BY IDOCK:   -7.14 KCAL/MOL
REMARK 922        TOTAL FREE ENERGY PREDICTED BY IDOCK:  -11.22 KCAL/MOL
REMARK 923 INTER-LIGAND FREE ENERGY PREDICTED BY IDOCK:  -10.11 KCAL/MOL
REMARK 924 INTRA-LIGAND FREE ENERGY PREDICTED BY IDOCK:   -1.11 KCAL/MOL
REMARK 927      BINDING AFFINITY PREDICTED BY RF-SCORE:    0.00 PKD
ROOT
HETATM    1  C   UNL     1      -7.442  20.719  67.435  1.00  0.00    -0.324 C  
HETATM    2  N   UNL     1      -8.164  19.917  66.446  1.00  0.00    -0.332 NA 
HETATM    3  C   UNL     1      -7.679  18.522  66.441  1.00  0.00    -0.264 C  
HETATM    4  C   UNL     1      -8.177  17.663  67.626  1.00  0.00    -0.224 C  
HETATM    5  N   UNL     1      -9.649  17.659  67.803  1.00  0.00    -0.262 NA 
HETATM    6  C   UNL     1      -9.621  19.947  66.696  1.00  0.00    -0.411 C  
HETATM    7  C   UNL     1     -10.110  19.058  67.866  1.00  0.00    -0.381 C  
ENDROOT
BRANCH   5   8
HETATM    8  C   UNL     1     -10.363  16.909  66.745  1.00  0.00    -0.298 C  
BRANCH   8   9
HETATM    9  C   UNL     1     -11.083  15.702  67.310  1.00  0.00    -0.238 A  
HETATM   10  C   UNL     1     -11.053  15.464  68.690  1.00  0.00    -0.290 A  
HETATM   11  C   UNL     1     -11.402  14.212  69.186  1.00  0.00    -0.318 A  
HETATM   12  C   UNL     1     -11.790  13.189  68.310  1.00  0.00    -0.384 A  
HETATM   13  C   UNL     1     -11.605  14.724  66.452  1.00  0.00    -0.301 A  
HETATM   14  C   UNL     1     -11.951  13.465  66.947  1.00  0.00    -0.437 A  
BRANCH  12  15
HETATM   15  C   UNL     1     -11.854  11.808  68.859  1.00  0.00    -0.320 C  
HETATM   16  O   UNL     1     -12.001  10.871  68.081  1.00  0.00    -0.581 OA 
HETATM   17  N   UNL     1     -11.713  11.677  70.232  1.00  0.00    -0.492 N  
HETATM   18  H   UNL     1     -11.570  12.510  70.803  1.00  0.00     0.000 HD 
BRANCH  17  19
HETATM   19  C   UNL     1     -11.765  10.413  70.855  1.00  0.00    -0.360 A  
HETATM   20  C   UNL     1     -10.625   9.620  70.796  1.00  0.00    -0.392 A  
HETATM   21  C   UNL     1     -10.652   8.262  71.162  1.00  0.00    -0.214 A  
HETATM   22  C   UNL     1     -12.916   9.921  71.455  1.00  0.00    -0.523 A  
HETATM   23  C   UNL     1     -11.826   7.760  71.761  1.00  0.00    -0.328 A  
HETATM   24  C   UNL     1     -11.998   6.335  72.213  1.00  0.00    -0.296 C  
HETATM   25  C   UNL     1     -12.932   8.613  71.941  1.00  0.00    -0.409 A  
BRANCH  21  26
HETATM   26  N   UNL     1      -9.572   7.433  70.811  1.00  0.00    -0.171 NA 
HETATM   27  H   UNL     1      -9.267   6.777  71.531  1.00  0.00     0.000 HD 
BRANCH  26  28
HETATM   28  C   UNL     1      -8.861   7.384  69.610  1.00  0.00    -0.141 A  
HETATM   29  N   UNL     1      -7.854   8.251  69.466  1.00  0.00    -0.101 NA 
HETATM   30  C   UNL     1      -7.146   8.173  68.324  1.00  0.00    -0.081 A  
HETATM   31  C   UNL     1      -7.390   7.253  67.329  1.00  0.00    -0.098 A  
HETATM   32  C   UNL     1      -8.444   6.396  67.546  1.00  0.00    -0.116 A  
HETATM   33  N   UNL     1      -9.169   6.470  68.677  1.00  0.00    -0.128 NA 
BRANCH  32  34
HETATM   34  C   UNL     1      -8.876   5.342  66.609  1.00  0.00    -0.113 A  
HETATM   35  C   UNL     1      -7.994   4.425  66.037  1.00  0.00    -0.099 A  
HETATM   36  N   UNL     1      -8.340   3.451  65.156  1.00  0.00    -0.097 NA 
HETATM   37  C   UNL     1      -9.647   3.379  64.813  1.00  0.00    -0.159 A  
HETATM   38  C   UNL     1     -10.613   4.233  65.305  1.00  0.00    -0.165 A  
HETATM   39  C   UNL     1     -10.219   5.218  66.209  1.00  0.00    -0.263 A  
ENDBRANCH  32  34
ENDBRANCH  26  28
ENDBRANCH  21  26
ENDBRANCH  17  19
ENDBRANCH  12  15
ENDBRANCH   8   9
ENDBRANCH   5   8
TORSDOF 7
ENDMDL
MODEL       21
REMARK 921   NORMALIZED FREE ENERGY PREDICTED BY IDOCK:   -7.13 KCAL/MOL
REMARK 922        TOTAL FREE ENERGY PREDICTED BY IDOCK:  -11.20 KCAL/MOL
REMARK 923 INTER-LIGAND FREE ENERGY PREDICTED BY IDOCK:  -10.22 KCAL/MOL
REMARK 924 INTRA-LIGAND FREE ENERGY PREDICTED BY IDOCK:   -0.98 KCAL/MOL
REMARK 927      BINDING AFFINITY PREDICTED BY RF-SCORE:    0.00 PKD
ROOT
HETATM    1  C   UNL     1      -6.376  20.918  68.130  1.00  0.00    -0.300 C  
HETATM    2  N   UNL     1      -6.286  19.953  67.033  1.00  0.00    -0.187 NA 
HETATM    3  C   UNL     1      -6.070  18.587  67.548  1.00  0.00    -0.174 C  
HETATM    4  C   UNL     1      -7.329  17.917  68.145  1.00  0.00    -0.241 C  
HETATM    5  N   UNL     1      -8.505  17.910  67.243  1.00  0.00    -0.233 NA 
HETATM    6  C   UNL     1      -7.498  19.992  66.188  1.00  0.00    -0.302 C  
HETATM    7  C   UNL     1      -8.744  19.291  66.786  1.00  0.00    -0.313 C  
ENDROOT
BRANCH   5   8
HETATM    8  C   UNL     1      -8.357  16.986  66.096  1.00  0.00    -0.241 C  
BRANCH   8   9
HETATM    9  C   UNL     1      -9.060  15.668  66.350  1.00  0.00    -0.355 A  
HETATM   10  C   UNL     1     -10.441  15.572  66.139  1.00  0.00    -0.323 A  
HETATM   11  C   UNL     1     -11.152  14.505  66.679  1.00  0.00    -0.333 A  
HETATM   12  C   UNL     1     -10.490  13.522  67.428  1.00  0.00    -0.247 A  
HETATM   13  C   UNL     1      -8.381  14.614  66.977  1.00  0.00    -0.214 A  
HETATM   14  C   UNL     1      -9.093  13.545  67.524  1.00  0.00    -0.214 A  
BRANCH  12  15
HETATM   15  C   UNL     1     -11.331  12.589  68.225  1.00  0.00    -0.286 C  
HETATM   16  O   UNL     1     -12.280  12.036  67.677  1.00  0.00    -0.484 OA 
HETATM   17  N   UNL     1     -10.958  12.389  69.545  1.00  0.00    -0.461 N  
HETATM   18  H   UNL     1     -10.139  12.872  69.913  1.00  0.00     0.000 HD 
BRANCH  17  19
HETATM   19  C   UNL     1     -11.691  11.530  70.389  1.00  0.00    -0.234 A  
HETATM   20  C   UNL     1     -11.432  10.168  70.301  1.00  0.00    -0.381 A  
HETATM   21  C   UNL     1     -12.272   9.217  70.910  1.00  0.00    -0.183 A  
HETATM   22  C   UNL     1     -12.688  11.988  71.240  1.00  0.00    -0.382 A  
HETATM   23  C   UNL     1     -13.292   9.683  71.765  1.00  0.00    -0.505 A  
HETATM   24  C   UNL     1     -14.258   8.787  72.491  1.00  0.00    -0.394 C  
HETATM   25  C   UNL     1     -13.458  11.069  71.954  1.00  0.00    -0.299 A  
BRANCH  21  26
HETATM   26  N   UNL     1     -12.148   7.862  70.555  1.00  0.00    -0.483 NA 
HETATM   27  H   UNL     1     -12.663   7.576  69.721  1.00  0.00     0.000 HD 
BRANCH  26  28
HETATM   28  C   UNL     1     -11.417   6.854  71.187  1.00  0.00    -0.304 A  
HETATM   29  N   UNL     1     -11.383   6.876  72.523  1.00  0.00    -0.263 NA 
HETATM   30  C   UNL     1     -10.711   5.880  73.128  1.00  0.00    -0.261 A  
HETATM   31  C   UNL     1     -10.086   4.854  72.457  1.00  0.00    -0.233 A  
HETATM   32  C   UNL     1     -10.160   4.900  71.083  1.00  0.00    -0.207 A  
HETATM   33  N   UNL     1     -10.818   5.896  70.463  1.00  0.00    -0.291 NA 
BRANCH  32  34
HETATM   34  C   UNL     1      -9.558   3.904  70.176  1.00  0.00    -0.267 A  
HETATM   35  C   UNL     1      -9.324   4.151  68.824  1.00  0.00    -0.159 A  
HETATM   36  N   UNL     1      -8.791   3.262  67.946  1.00  0.00    -0.113 NA 
HETATM   37  C   UNL     1      -8.469   2.043  68.438  1.00  0.00    -0.061 A  
HETATM   38  C   UNL     1      -8.660   1.677  69.755  1.00  0.00    -0.091 A  
HETATM   39  C   UNL     1      -9.207   2.617  70.625  1.00  0.00    -0.205 A  
ENDBRANCH  32  34
ENDBRANCH  26  28
ENDBRANCH  21  26
ENDBRANCH  17  19
ENDBRANCH  12  15
ENDBRANCH   8   9
ENDBRANCH   5   8
TORSDOF 7
ENDMDL
MODEL       22
REMARK 921   NORMALIZED FREE ENERGY PREDICTED BY IDOCK:   -7.09 KCAL/MOL
REMARK 922        TOTAL FREE ENERGY PREDICTED BY IDOCK:  -11.15 KCAL/MOL
REMARK 923 INTER-LIGAND FREE ENERGY PREDICTED BY IDOCK:   -9.77 KCAL/MOL
REMARK 924 INTRA-LIGAND FREE ENERGY PREDICTED BY IDOCK:   -1.38 KCAL/MOL
REMARK 927      BINDING AFFINITY PREDICTED BY RF-SCORE:    0.00 PKD
ROOT
HETATM    1  C   UNL     1      -8.205   1.538  62.348  1.00  0.00    -0.056 C  
HETATM    2  N   UNL     1      -7.476   2.097  63.488  1.00  0.00    -0.053 NA 
HETATM    3  C   UNL     1      -7.592   3.568  63.521  1.00  0.00    -0.063 C  
HETATM    4  C   UNL     1      -8.955   4.095  64.028  1.00  0.00    -0.141 C  
HETATM    5  N   UNL     1      -9.370   3.550  65.342  1.00  0.00    -0.154 NA 
HETATM    6  C   UNL     1      -7.954   1.520  64.762  1.00  0.00    -0.069 C  
HETATM    7  C   UNL     1      -9.306   2.079  65.274  1.00  0.00    -0.007 C  
ENDROOT
BRANCH   5   8
HETATM    8  C   UNL     1      -8.564   4.068  66.471  1.00  0.00    -0.110 C  
BRANCH   8   9
HETATM    9  C   UNL     1      -8.974   5.477  66.845  1.00  0.00    -0.111 A  
HETATM   10  C   UNL     1     -10.331   5.780  67.009  1.00  0.00    -0.303 A  
HETATM   11  C   UNL     1     -10.750   7.107  67.013  1.00  0.00    -0.420 A  
HETATM   12  C   UNL     1      -9.818   8.142  66.859  1.00  0.00    -0.316 A  
HETATM   13  C   UNL     1      -8.031   6.514  66.834  1.00  0.00    -0.112 A  
HETATM   14  C   UNL     1      -8.449   7.846  66.832  1.00  0.00    -0.128 A  
BRANCH  12  15
HETATM   15  C   UNL     1     -10.348   9.501  66.567  1.00  0.00    -0.193 C  
HETATM   16  O   UNL     1     -11.006  10.075  67.429  1.00  0.00    -0.283 OA 
HETATM   17  N   UNL     1     -10.031  10.039  65.329  1.00  0.00    -0.324 N  
HETATM   18  H   UNL     1      -9.457   9.501  64.681  1.00  0.00     0.000 HD 
BRANCH  17  19
HETATM   19  C   UNL     1     -10.489  11.317  64.949  1.00  0.00    -0.314 A  
HETATM   20  C   UNL     1      -9.875  12.419  65.531  1.00  0.00    -0.215 A  
HETATM   21  C   UNL     1     -10.416  13.713  65.413  1.00  0.00    -0.324 A  
HETATM   22  C   UNL     1     -11.555  11.503  64.079  1.00  0.00    -0.280 A  
HETATM   23  C   UNL     1     -11.506  13.899  64.538  1.00  0.00    -0.393 A  
HETATM   24  C   UNL     1     -12.181  15.223  64.301  1.00  0.00    -0.205 C  
HETATM   25  C   UNL     1     -12.035  12.792  63.845  1.00  0.00    -0.554 A  
BRANCH  21  26
HETATM   26  N   UNL     1      -9.940  14.738  66.250  1.00  0.00    -0.276 NA 
HETATM   27  H   UNL     1      -9.149  15.271  65.889  1.00  0.00     0.000 HD 
BRANCH  26  28
HETATM   28  C   UNL     1     -10.403  15.124  67.510  1.00  0.00    -0.242 A  
HETATM   29  N   UNL     1     -10.298  16.419  67.824  1.00  0.00    -0.279 NA 
HETATM   30  C   UNL     1     -10.783  16.793  69.021  1.00  0.00    -0.331 A  
HETATM   31  C   UNL     1     -11.384  15.933  69.912  1.00  0.00    -0.348 A  
HETATM   32  C   UNL     1     -11.454  14.614  69.521  1.00  0.00    -0.297 A  
HETATM   33  N   UNL     1     -10.962  14.223  68.332  1.00  0.00    -0.245 NA 
BRANCH  32  34
HETATM   34  C   UNL     1     -12.052  13.532  70.324  1.00  0.00    -0.425 A  
HETATM   35  C   UNL     1     -12.867  13.768  71.432  1.00  0.00    -0.369 A  
HETATM   36  N   UNL     1     -13.424  12.806  72.212  1.00  0.00    -0.558 NA 
HETATM   37  C   UNL     1     -13.158  11.522  71.878  1.00  0.00    -0.387 A  
HETATM   38  C   UNL     1     -12.361  11.162  70.810  1.00  0.00    -0.504 A  
HETATM   39  C   UNL     1     -11.809  12.177  70.031  1.00  0.00    -0.383 A  
ENDBRANCH  32  34
ENDBRANCH  26  28
ENDBRANCH  21  26
ENDBRANCH  17  19
ENDBRANCH  12  15
ENDBRANCH   8   9
ENDBRANCH   5   8
TORSDOF 7
ENDMDL
MODEL       23
REMARK 921   NORMALIZED FREE ENERGY PREDICTED BY IDOCK:   -7.08 KCAL/MOL
REMARK 922        TOTAL FREE ENERGY PREDICTED BY IDOCK:  -11.13 KCAL/MOL
REMARK 923 INTER-LIGAND FREE ENERGY PREDICTED BY IDOCK:  -10.20 KCAL/MOL
REMARK 924 INTRA-LIGAND FREE ENERGY PREDICTED BY IDOCK:   -0.93 KCAL/MOL
REMARK 927      BINDING AFFINITY PREDICTED BY RF-SCORE:    0.00 PKD
ROOT
HETATM    1  C   UNL     1      -9.171   1.868  67.492  1.00  0.00    -0.125 C  
HETATM    2  N   UNL     1      -8.453   2.733  66.554  1.00  0.00    -0.097 NA 
HETATM    3  C   UNL     1      -9.385   3.373  65.605  1.00  0.00    -0.147 C  
HETATM    4  C   UNL     1     -10.200   4.547  66.195  1.00  0.00    -0.254 C  
HETATM    5  N   UNL     1      -9.378   5.597  66.843  1.00  0.00    -0.122 NA 
HETATM    6  C   UNL     1      -7.671   3.763  67.270  1.00  0.00    -0.079 C  
HETATM    7  C   UNL     1      -8.496   4.949  67.830  1.00  0.00    -0.103 C  
ENDROOT
BRANCH   5   8
HETATM    8  C   UNL     1      -8.598   6.407  65.880  1.00  0.00    -0.148 C  
BRANCH   8   9
HETATM    9  C   UNL     1      -9.031   7.858  65.896  1.00  0.00    -0.166 A  
HETATM   10  C   UNL     1      -8.374   8.783  65.074  1.00  0.00    -0.180 A  
HETATM   11  C   UNL     1      -8.514  10.146  65.315  1.00  0.00    -0.165 A  
HETATM   12  C   UNL     1      -9.315  10.598  66.373  1.00  0.00    -0.195 A  
HETATM   13  C   UNL     1      -9.940   8.314  66.861  1.00  0.00    -0.343 A  
HETATM   14  C   UNL     1     -10.077   9.681  67.108  1.00  0.00    -0.276 A  
BRANCH  12  15
HETATM   15  C   UNL     1      -9.184  12.026  66.767  1.00  0.00    -0.201 C  
HETATM   16  O   UNL     1      -8.137  12.401  67.287  1.00  0.00    -0.169 OA 
HETATM   17  N   UNL     1     -10.263  12.850  66.488  1.00  0.00    -0.254 N  
HETATM   18  H   UNL     1     -11.087  12.459  66.031  1.00  0.00     0.000 HD 
BRANCH  17  19
HETATM   19  C   UNL     1     -10.245  14.219  66.827  1.00  0.00    -0.272 A  
HETATM   20  C   UNL     1     -10.534  14.560  68.142  1.00  0.00    -0.239 A  
HETATM   21  C   UNL     1     -10.785  15.891  68.521  1.00  0.00    -0.274 A  
HETATM   22  C   UNL     1     -10.016  15.218  65.891  1.00  0.00    -0.368 A  
HETATM   23  C   UNL     1     -10.564  16.906  67.566  1.00  0.00    -0.307 A  
HETATM   24  C   UNL     1     -10.779  18.371  67.828  1.00  0.00    -0.371 C  
HETATM   25  C   UNL     1     -10.138  16.556  66.269  1.00  0.00    -0.347 A  
BRANCH  21  26
HETATM   26  N   UNL     1     -11.358  16.153  69.778  1.00  0.00    -0.335 NA 
HETATM   27  H   UNL     1     -11.123  17.057  70.190  1.00  0.00     0.000 HD 
BRANCH  26  28
HETATM   28  C   UNL     1     -12.205  15.345  70.539  1.00  0.00    -0.394 A  
HETATM   29  N   UNL     1     -13.196  15.954  71.197  1.00  0.00    -0.417 NA 
HETATM   30  C   UNL     1     -14.033  15.167  71.896  1.00  0.00    -0.528 A  
HETATM   31  C   UNL     1     -13.933  13.795  71.952  1.00  0.00    -0.464 A  
HETATM   32  C   UNL     1     -12.886  13.239  71.252  1.00  0.00    -0.312 A  
HETATM   33  N   UNL     1     -12.033  14.014  70.559  1.00  0.00    -0.325 NA 
BRANCH  32  34
HETATM   34  C   UNL     1     -12.596  11.794  71.183  1.00  0.00    -0.412 A  
HETATM   35  C   UNL     1     -11.669  11.246  70.297  1.00  0.00    -0.324 A  
HETATM   36  N   UNL     1     -11.383   9.923  70.183  1.00  0.00    -0.266 NA 
HETATM   37  C   UNL     1     -12.060   9.082  70.998  1.00  0.00    -0.251 A  
HETATM   38  C   UNL     1     -13.006   9.503  71.912  1.00  0.00    -0.514 A  
HETATM   39  C   UNL     1     -13.271  10.868  72.001  1.00  0.00    -0.456 A  
ENDBRANCH  32  34
ENDBRANCH  26  28
ENDBRANCH  21  26
ENDBRANCH  17  19
ENDBRANCH  12  15
ENDBRANCH   8   9
ENDBRANCH   5   8
TORSDOF 7
ENDMDL
MODEL       24
REMARK 921   NORMALIZED FREE ENERGY PREDICTED BY IDOCK:   -7.07 KCAL/MOL
REMARK 922        TOTAL FREE ENERGY PREDICTED BY IDOCK:  -11.11 KCAL/MOL
REMARK 923 INTER-LIGAND FREE ENERGY PREDICTED BY IDOCK:  -10.25 KCAL/MOL
REMARK 924 INTRA-LIGAND FREE ENERGY PREDICTED BY IDOCK:   -0.87 KCAL/MOL
REMARK 927      BINDING AFFINITY PREDICTED BY RF-SCORE:    0.00 PKD
ROOT
HETATM    1  C   UNL     1     -10.257   5.906  74.539  1.00  0.00    -0.278 C  
HETATM    2  N   UNL     1     -10.407   5.094  73.330  1.00  0.00    -0.188 NA 
HETATM    3  C   UNL     1     -11.187   5.814  72.304  1.00  0.00    -0.278 C  
HETATM    4  C   UNL     1     -10.407   6.924  71.563  1.00  0.00    -0.203 C  
HETATM    5  N   UNL     1      -9.126   6.478  70.967  1.00  0.00    -0.150 NA 
HETATM    6  C   UNL     1      -9.091   4.702  72.785  1.00  0.00    -0.122 C  
HETATM    7  C   UNL     1      -8.333   5.815  72.019  1.00  0.00    -0.122 C  
ENDROOT
BRANCH   5   8
HETATM    8  C   UNL     1      -9.303   5.593  69.794  1.00  0.00    -0.143 C  
BRANCH   8   9
HETATM    9  C   UNL     1      -9.390   6.387  68.507  1.00  0.00    -0.122 A  
HETATM   10  C   UNL     1      -8.284   7.132  68.081  1.00  0.00    -0.124 A  
HETATM   11  C   UNL     1      -8.444   8.119  67.113  1.00  0.00    -0.124 A  
HETATM   12  C   UNL     1      -9.707   8.366  66.558  1.00  0.00    -0.330 A  
HETATM   13  C   UNL     1     -10.620   6.539  67.852  1.00  0.00    -0.313 A  
HETATM   14  C   UNL     1     -10.784   7.532  66.885  1.00  0.00    -0.299 A  
BRANCH  12  15
HETATM   15  C   UNL     1      -9.874   9.615  65.769  1.00  0.00    -0.302 C  
HETATM   16  O   UNL     1      -9.396   9.668  64.640  1.00  0.00    -0.260 OA 
HETATM   17  N   UNL     1     -10.593  10.638  66.367  1.00  0.00    -0.210 N  
HETATM   18  H   UNL     1     -10.977  10.500  67.302  1.00  0.00     0.000 HD 
BRANCH  17  19
HETATM   19  C   UNL     1     -10.804  11.866  65.708  1.00  0.00    -0.295 A  
HETATM   20  C   UNL     1      -9.857  12.866  65.894  1.00  0.00    -0.239 A  
HETATM   21  C   UNL     1     -10.096  14.193  65.490  1.00  0.00    -0.336 A  
HETATM   22  C   UNL     1     -11.938  12.124  64.950  1.00  0.00    -0.356 A  
HETATM   23  C   UNL     1     -11.254  14.456  64.729  1.00  0.00    -0.391 A  
HETATM   24  C   UNL     1     -11.636  15.820  64.220  1.00  0.00    -0.192 C  
HETATM   25  C   UNL     1     -12.142  13.403  64.431  1.00  0.00    -0.468 A  
BRANCH  21  26
HETATM   26  N   UNL     1      -9.253  15.217  65.956  1.00  0.00    -0.442 NA 
HETATM   27  H   UNL     1      -8.301  15.206  65.587  1.00  0.00     0.000 HD 
BRANCH  26  28
HETATM   28  C   UNL     1      -9.540  16.246  66.855  1.00  0.00    -0.232 A  
HETATM   29  N   UNL     1     -10.659  16.128  67.575  1.00  0.00    -0.311 NA 
HETATM   30  C   UNL     1     -10.911  17.102  68.468  1.00  0.00    -0.281 A  
HETATM   31  C   UNL     1     -10.083  18.180  68.685  1.00  0.00    -0.406 A  
HETATM   32  C   UNL     1      -8.951  18.237  67.904  1.00  0.00    -0.276 A  
HETATM   33  N   UNL     1      -8.693  17.277  66.997  1.00  0.00    -0.224 NA 
BRANCH  32  34
HETATM   34  C   UNL     1      -7.937  19.305  67.972  1.00  0.00    -0.339 A  
HETATM   35  C   UNL     1      -7.791  20.280  66.985  1.00  0.00    -0.329 A  
HETATM   36  N   UNL     1      -6.861  21.270  66.993  1.00  0.00    -0.494 NA 
HETATM   37  C   UNL     1      -6.016  21.300  68.049  1.00  0.00    -0.304 A  
HETATM   38  C   UNL     1      -6.056  20.388  69.085  1.00  0.00    -0.372 A  
HETATM   39  C   UNL     1      -7.025  19.387  69.041  1.00  0.00    -0.390 A  
ENDBRANCH  32  34
ENDBRANCH  26  28
ENDBRANCH  21  26
ENDBRANCH  17  19
ENDBRANCH  12  15
ENDBRANCH   8   9
ENDBRANCH   5   8
TORSDOF 7
ENDMDL
MODEL       25
REMARK 921   NORMALIZED FREE ENERGY PREDICTED BY IDOCK:   -7.04 KCAL/MOL
REMARK 922        TOTAL FREE ENERGY PREDICTED BY IDOCK:  -11.07 KCAL/MOL
REMARK 923 INTER-LIGAND FREE ENERGY PREDICTED BY IDOCK:   -9.91 KCAL/MOL
REMARK 924 INTRA-LIGAND FREE ENERGY PREDICTED BY IDOCK:   -1.15 KCAL/MOL
REMARK 927      BINDING AFFINITY PREDICTED BY RF-SCORE:    0.00 PKD
ROOT
HETATM    1  C   UNL     1      -7.088  20.734  67.193  1.00  0.00    -0.346 C  
HETATM    2  N   UNL     1      -8.142  20.058  67.950  1.00  0.00    -0.290 NA 
HETATM    3  C   UNL     1      -9.454  20.223  67.293  1.00  0.00    -0.423 C  
HETATM    4  C   UNL     1      -9.665  19.335  66.045  1.00  0.00    -0.242 C  
HETATM    5  N   UNL     1      -9.420  17.891  66.273  1.00  0.00    -0.448 NA 
HETATM    6  C   UNL     1      -7.838  18.622  68.123  1.00  0.00    -0.287 C  
HETATM    7  C   UNL     1      -8.082  17.739  66.873  1.00  0.00    -0.228 C  
ENDROOT
BRANCH   5   8
HETATM    8  C   UNL     1     -10.458  17.247  67.109  1.00  0.00    -0.297 C  
BRANCH   8   9
HETATM    9  C   UNL     1     -10.853  15.892  66.558  1.00  0.00    -0.198 A  
HETATM   10  C   UNL     1     -11.445  14.948  67.407  1.00  0.00    -0.354 A  
HETATM   11  C   UNL     1     -11.500  13.611  67.026  1.00  0.00    -0.368 A  
HETATM   12  C   UNL     1     -10.972  13.206  65.792  1.00  0.00    -0.295 A  
HETATM   13  C   UNL     1     -10.454  15.509  65.270  1.00  0.00    -0.437 A  
HETATM   14  C   UNL     1     -10.504  14.167  64.888  1.00  0.00    -0.461 A  
BRANCH  12  15
HETATM   15  C   UNL     1     -10.785  11.747  65.576  1.00  0.00    -0.279 C  
HETATM   16  O   UNL     1     -11.100  11.266  64.491  1.00  0.00    -0.283 OA 
HETATM   17  N   UNL     1     -10.233  11.027  66.625  1.00  0.00    -0.226 N  
HETATM   18  H   UNL     1      -9.978  11.513  67.485  1.00  0.00     0.000 HD 
BRANCH  17  19
HETATM   19  C   UNL     1     -10.020   9.637  66.526  1.00  0.00    -0.246 A  
HETATM   20  C   UNL     1     -10.827   8.807  67.295  1.00  0.00    -0.077 A  
HETATM   21  C   UNL     1     -10.534   7.441  67.459  1.00  0.00    -0.268 A  
HETATM   22  C   UNL     1      -9.008   9.088  65.751  1.00  0.00    -0.242 A  
HETATM   23  C   UNL     1      -9.498   6.886  66.680  1.00  0.00    -0.209 A  
HETATM   24  C   UNL     1      -9.080   5.442  66.739  1.00  0.00    -0.116 C  
HETATM   25  C   UNL     1      -8.774   7.713  65.799  1.00  0.00    -0.151 A  
BRANCH  21  26
HETATM   26  N   UNL     1     -11.190   6.712  68.467  1.00  0.00    -0.554 NA 
HETATM   27  H   UNL     1     -11.710   5.893  68.152  1.00  0.00     0.000 HD 
BRANCH  26  28
HETATM   28  C   UNL     1     -11.226   6.958  69.842  1.00  0.00    -0.285 A  
HETATM   29  N   UNL     1     -12.395   6.770  70.461  1.00  0.00    -0.238 NA 
HETATM   30  C   UNL     1     -12.415   6.968  71.791  1.00  0.00    -0.356 A  
HETATM   31  C   UNL     1     -11.312   7.329  72.532  1.00  0.00    -0.338 A  
HETATM   32  C   UNL     1     -10.144   7.509  71.825  1.00  0.00    -0.176 A  
HETATM   33  N   UNL     1     -10.112   7.326  70.493  1.00  0.00    -0.191 NA 
BRANCH  32  34
HETATM   34  C   UNL     1      -8.853   7.898  72.422  1.00  0.00    -0.209 A  
HETATM   35  C   UNL     1      -8.695   8.171  73.781  1.00  0.00    -0.224 A  
HETATM   36  N   UNL     1      -7.534   8.552  74.373  1.00  0.00    -0.350 NA 
HETATM   37  C   UNL     1      -6.453   8.674  73.568  1.00  0.00    -0.041 A  
HETATM   38  C   UNL     1      -6.485   8.439  72.209  1.00  0.00    -0.080 A  
HETATM   39  C   UNL     1      -7.695   8.048  71.638  1.00  0.00    -0.100 A  
ENDBRANCH  32  34
ENDBRANCH  26  28
ENDBRANCH  21  26
ENDBRANCH  17  19
ENDBRANCH  12  15
ENDBRANCH   8   9
ENDBRANCH   5   8
TORSDOF 7
ENDMDL
MODEL       26
REMARK 921   NORMALIZED FREE ENERGY PREDICTED BY IDOCK:   -7.03 KCAL/MOL
REMARK 922        TOTAL FREE ENERGY PREDICTED BY IDOCK:  -11.07 KCAL/MOL
REMARK 923 INTER-LIGAND FREE ENERGY PREDICTED BY IDOCK:   -9.95 KCAL/MOL
REMARK 924 INTRA-LIGAND FREE ENERGY PREDICTED BY IDOCK:   -1.11 KCAL/MOL
REMARK 927      BINDING AFFINITY PREDICTED BY RF-SCORE:    0.00 PKD
ROOT
HETATM    1  C   UNL     1      -7.502  20.789  66.976  1.00  0.00    -0.271 C  
HETATM    2  N   UNL     1      -8.339  19.936  67.821  1.00  0.00    -0.304 NA 
HETATM    3  C   UNL     1      -9.751  19.994  67.396  1.00  0.00    -0.417 C  
HETATM    4  C   UNL     1     -10.073  19.186  66.118  1.00  0.00    -0.426 C  
HETATM    5  N   UNL     1      -9.643  17.768  66.166  1.00  0.00    -0.502 NA 
HETATM    6  C   UNL     1      -7.861  18.537  67.807  1.00  0.00    -0.245 C  
HETATM    7  C   UNL     1      -8.216  17.730  66.532  1.00  0.00    -0.269 C  
ENDROOT
BRANCH   5   8
HETATM    8  C   UNL     1     -10.454  16.942  67.089  1.00  0.00    -0.296 C  
BRANCH   8   9
HETATM    9  C   UNL     1     -10.810  15.606  66.471  1.00  0.00    -0.260 A  
HETATM   10  C   UNL     1     -11.464  14.640  67.246  1.00  0.00    -0.386 A  
HETATM   11  C   UNL     1     -11.493  13.315  66.823  1.00  0.00    -0.387 A  
HETATM   12  C   UNL     1     -10.878  12.944  65.620  1.00  0.00    -0.296 A  
HETATM   13  C   UNL     1     -10.319  15.259  65.204  1.00  0.00    -0.413 A  
HETATM   14  C   UNL     1     -10.343  13.929  64.780  1.00  0.00    -0.419 A  
BRANCH  12  15
HETATM   15  C   UNL     1     -10.678  11.491  65.374  1.00  0.00    -0.278 C  
HETATM   16  O   UNL     1     -11.010  11.025  64.288  1.00  0.00    -0.309 OA 
HETATM   17  N   UNL     1     -10.096  10.760  66.399  1.00  0.00    -0.220 N  
HETATM   18  H   UNL     1      -9.828  11.234  67.262  1.00  0.00     0.000 HD 
BRANCH  17  19
HETATM   19  C   UNL     1      -9.869   9.375  66.272  1.00  0.00    -0.281 A  
HETATM   20  C   UNL     1     -10.772   8.517  66.886  1.00  0.00    -0.156 A  
HETATM   21  C   UNL     1     -10.503   7.143  67.031  1.00  0.00    -0.322 A  
HETATM   22  C   UNL     1      -8.757   8.855  65.623  1.00  0.00    -0.213 A  
HETATM   23  C   UNL     1      -9.367   6.618  66.380  1.00  0.00    -0.175 A  
HETATM   24  C   UNL     1      -8.958   5.171  66.435  1.00  0.00    -0.125 C  
HETATM   25  C   UNL     1      -8.529   7.479  65.644  1.00  0.00    -0.141 A  
BRANCH  21  26
HETATM   26  N   UNL     1     -11.291   6.375  67.906  1.00  0.00    -0.625 NA 
HETATM   27  H   UNL     1     -12.044   5.843  67.470  1.00  0.00     0.000 HD 
BRANCH  26  28
HETATM   28  C   UNL     1     -11.183   6.242  69.293  1.00  0.00    -0.389 A  
HETATM   29  N   UNL     1     -11.984   7.008  70.039  1.00  0.00    -0.087 NA 
HETATM   30  C   UNL     1     -11.905   6.847  71.373  1.00  0.00    -0.330 A  
HETATM   31  C   UNL     1     -11.073   5.941  71.991  1.00  0.00    -0.329 A  
HETATM   32  C   UNL     1     -10.275   5.190  71.157  1.00  0.00    -0.221 A  
HETATM   33  N   UNL     1     -10.333   5.349  69.823  1.00  0.00    -0.283 NA 
BRANCH  32  34
HETATM   34  C   UNL     1      -9.313   4.169  71.612  1.00  0.00    -0.202 A  
HETATM   35  C   UNL     1      -9.703   2.948  72.161  1.00  0.00    -0.157 A  
HETATM   36  N   UNL     1      -8.856   1.986  72.611  1.00  0.00    -0.062 NA 
HETATM   37  C   UNL     1      -7.532   2.249  72.515  1.00  0.00    -0.043 A  
HETATM   38  C   UNL     1      -7.023   3.423  71.997  1.00  0.00    -0.034 A  
HETATM   39  C   UNL     1      -7.923   4.385  71.544  1.00  0.00    -0.083 A  
ENDBRANCH  32  34
ENDBRANCH  26  28
ENDBRANCH  21  26
ENDBRANCH  17  19
ENDBRANCH  12  15
ENDBRANCH   8   9
ENDBRANCH   5   8
TORSDOF 7
ENDMDL
MODEL       27
REMARK 921   NORMALIZED FREE ENERGY PREDICTED BY IDOCK:   -7.02 KCAL/MOL
REMARK 922        TOTAL FREE ENERGY PREDICTED BY IDOCK:  -11.04 KCAL/MOL
REMARK 923 INTER-LIGAND FREE ENERGY PREDICTED BY IDOCK:   -9.86 KCAL/MOL
REMARK 924 INTRA-LIGAND FREE ENERGY PREDICTED BY IDOCK:   -1.18 KCAL/MOL
REMARK 927      BINDING AFFINITY PREDICTED BY RF-SCORE:    0.00 PKD
ROOT
HETATM    1  C   UNL     1     -11.403   2.114  73.524  1.00  0.00    -0.212 C  
HETATM    2  N   UNL     1     -10.776   3.307  74.095  1.00  0.00    -0.196 NA 
HETATM    3  C   UNL     1      -9.306   3.178  74.105  1.00  0.00    -0.084 C  
HETATM    4  C   UNL     1      -8.632   3.381  72.728  1.00  0.00    -0.085 C  
HETATM    5  N   UNL     1      -8.999   4.646  72.048  1.00  0.00    -0.125 NA 
HETATM    6  C   UNL     1     -11.174   4.524  73.358  1.00  0.00    -0.315 C  
HETATM    7  C   UNL     1     -10.470   4.731  71.993  1.00  0.00    -0.155 C  
ENDROOT
BRANCH   5   8
HETATM    8  C   UNL     1      -8.419   5.846  72.692  1.00  0.00    -0.119 C  
BRANCH   8   9
HETATM    9  C   UNL     1      -8.066   6.908  71.672  1.00  0.00    -0.105 A  
HETATM   10  C   UNL     1      -8.516   8.221  71.859  1.00  0.00    -0.214 A  
HETATM   11  C   UNL     1      -8.502   9.117  70.795  1.00  0.00    -0.256 A  
HETATM   12  C   UNL     1      -8.033   8.713  69.538  1.00  0.00    -0.097 A  
HETATM   13  C   UNL     1      -7.468   6.549  70.455  1.00  0.00    -0.090 A  
HETATM   14  C   UNL     1      -7.458   7.445  69.385  1.00  0.00    -0.091 A  
BRANCH  12  15
HETATM   15  C   UNL     1      -8.323   9.604  68.383  1.00  0.00    -0.117 C  
HETATM   16  O   UNL     1      -7.448  10.373  67.996  1.00  0.00    -0.088 OA 
HETATM   17  N   UNL     1      -9.575   9.479  67.799  1.00  0.00    -0.132 N  
HETATM   18  H   UNL     1     -10.234   8.795  68.171  1.00  0.00     0.000 HD 
BRANCH  17  19
HETATM   19  C   UNL     1      -9.954  10.280  66.703  1.00  0.00    -0.216 A  
HETATM   20  C   UNL     1     -10.534  11.513  66.978  1.00  0.00    -0.263 A  
HETATM   21  C   UNL     1     -11.168  12.269  65.975  1.00  0.00    -0.332 A  
HETATM   22  C   UNL     1      -9.829   9.856  65.387  1.00  0.00    -0.384 A  
HETATM   23  C   UNL     1     -11.050  11.831  64.639  1.00  0.00    -0.363 A  
HETATM   24  C   UNL     1     -11.664  12.541  63.463  1.00  0.00    -0.595 C  
HETATM   25  C   UNL     1     -10.340  10.647  64.358  1.00  0.00    -0.347 A  
BRANCH  21  26
HETATM   26  N   UNL     1     -11.990  13.349  66.343  1.00  0.00    -0.394 NA 
HETATM   27  H   UNL     1     -12.903  13.384  65.889  1.00  0.00     0.000 HD 
BRANCH  26  28
HETATM   28  C   UNL     1     -11.725  14.382  67.246  1.00  0.00    -0.404 A  
HETATM   29  N   UNL     1     -12.096  14.187  68.515  1.00  0.00    -0.321 NA 
HETATM   30  C   UNL     1     -11.802  15.167  69.388  1.00  0.00    -0.330 A  
HETATM   31  C   UNL     1     -11.139  16.326  69.052  1.00  0.00    -0.331 A  
HETATM   32  C   UNL     1     -10.792  16.457  67.726  1.00  0.00    -0.306 A  
HETATM   33  N   UNL     1     -11.090  15.491  66.838  1.00  0.00    -0.272 NA 
BRANCH  32  34
HETATM   34  C   UNL     1     -10.083  17.617  67.155  1.00  0.00    -0.328 A  
HETATM   35  C   UNL     1      -8.866  17.509  66.481  1.00  0.00    -0.266 A  
HETATM   36  N   UNL     1      -8.167  18.548  65.956  1.00  0.00    -0.491 NA 
HETATM   37  C   UNL     1      -8.704  19.780  66.109  1.00  0.00    -0.332 A  
HETATM   38  C   UNL     1      -9.896  20.017  66.763  1.00  0.00    -0.574 A  
HETATM   39  C   UNL     1     -10.586  18.925  67.286  1.00  0.00    -0.529 A  
ENDBRANCH  32  34
ENDBRANCH  26  28
ENDBRANCH  21  26
ENDBRANCH  17  19
ENDBRANCH  12  15
ENDBRANCH   8   9
ENDBRANCH   5   8
TORSDOF 7
ENDMDL
MODEL       28
REMARK 921   NORMALIZED FREE ENERGY PREDICTED BY IDOCK:   -7.00 KCAL/MOL
REMARK 922        TOTAL FREE ENERGY PREDICTED BY IDOCK:  -11.01 KCAL/MOL
REMARK 923 INTER-LIGAND FREE ENERGY PREDICTED BY IDOCK:   -9.95 KCAL/MOL
REMARK 924 INTRA-LIGAND FREE ENERGY PREDICTED BY IDOCK:   -1.06 KCAL/MOL
REMARK 927      BINDING AFFINITY PREDICTED BY RF-SCORE:    0.00 PKD
ROOT
HETATM    1  C   UNL     1     -10.820   4.175  73.336  1.00  0.00    -0.244 C  
HETATM    2  N   UNL     1      -9.487   4.379  72.767  1.00  0.00    -0.130 NA 
HETATM    3  C   UNL     1      -9.008   3.158  72.090  1.00  0.00    -0.095 C  
HETATM    4  C   UNL     1      -9.650   2.894  70.708  1.00  0.00    -0.125 C  
HETATM    5  N   UNL     1      -9.560   4.033  69.764  1.00  0.00    -0.203 NA 
HETATM    6  C   UNL     1      -9.479   5.519  71.825  1.00  0.00    -0.149 C  
HETATM    7  C   UNL     1     -10.098   5.231  70.434  1.00  0.00    -0.254 C  
ENDROOT
BRANCH   5   8
HETATM    8  C   UNL     1      -8.188   4.271  69.264  1.00  0.00    -0.070 C  
BRANCH   8   9
HETATM    9  C   UNL     1      -8.151   5.408  68.263  1.00  0.00    -0.095 A  
HETATM   10  C   UNL     1      -7.234   6.452  68.439  1.00  0.00    -0.085 A  
HETATM   11  C   UNL     1      -7.405   7.649  67.751  1.00  0.00    -0.099 A  
HETATM   12  C   UNL     1      -8.488   7.811  66.877  1.00  0.00    -0.125 A  
HETATM   13  C   UNL     1      -9.149   5.523  67.286  1.00  0.00    -0.110 A  
HETATM   14  C   UNL     1      -9.326   6.724  66.598  1.00  0.00    -0.197 A  
BRANCH  12  15
HETATM   15  C   UNL     1      -8.790   9.192  66.413  1.00  0.00    -0.141 C  
HETATM   16  O   UNL     1      -7.968  10.079  66.627  1.00  0.00    -0.112 OA 
HETATM   17  N   UNL     1      -9.986   9.375  65.736  1.00  0.00    -0.381 N  
HETATM   18  H   UNL     1     -10.600   8.575  65.580  1.00  0.00     0.000 HD 
BRANCH  17  19
HETATM   19  C   UNL     1     -10.371  10.644  65.260  1.00  0.00    -0.251 A  
HETATM   20  C   UNL     1     -10.867  11.554  66.185  1.00  0.00    -0.330 A  
HETATM   21  C   UNL     1     -11.504  12.742  65.782  1.00  0.00    -0.348 A  
HETATM   22  C   UNL     1     -10.331  10.983  63.914  1.00  0.00    -0.436 A  
HETATM   23  C   UNL     1     -11.474  13.080  64.413  1.00  0.00    -0.409 A  
HETATM   24  C   UNL     1     -12.101  14.320  63.836  1.00  0.00    -0.247 C  
HETATM   25  C   UNL     1     -10.845  12.212  63.499  1.00  0.00    -0.518 A  
BRANCH  21  26
HETATM   26  N   UNL     1     -12.246  13.479  66.722  1.00  0.00    -0.374 NA 
HETATM   27  H   UNL     1     -13.257  13.346  66.689  1.00  0.00     0.000 HD 
BRANCH  26  28
HETATM   28  C   UNL     1     -11.786  14.369  67.696  1.00  0.00    -0.378 A  
HETATM   29  N   UNL     1     -11.773  13.933  68.959  1.00  0.00    -0.314 NA 
HETATM   30  C   UNL     1     -11.291  14.779  69.887  1.00  0.00    -0.271 A  
HETATM   31  C   UNL     1     -10.806  16.036  69.605  1.00  0.00    -0.329 A  
HETATM   32  C   UNL     1     -10.855  16.418  68.283  1.00  0.00    -0.347 A  
HETATM   33  N   UNL     1     -11.346  15.588  67.345  1.00  0.00    -0.261 NA 
BRANCH  32  34
HETATM   34  C   UNL     1     -10.392  17.720  67.768  1.00  0.00    -0.382 A  
HETATM   35  C   UNL     1     -10.352  18.029  66.408  1.00  0.00    -0.379 A  
HETATM   36  N   UNL     1      -9.916  19.205  65.885  1.00  0.00    -0.483 NA 
HETATM   37  C   UNL     1      -9.488  20.139  66.765  1.00  0.00    -0.403 A  
HETATM   38  C   UNL     1      -9.472  19.949  68.132  1.00  0.00    -0.431 A  
HETATM   39  C   UNL     1      -9.928  18.730  68.631  1.00  0.00    -0.444 A  
ENDBRANCH  32  34
ENDBRANCH  26  28
ENDBRANCH  21  26
ENDBRANCH  17  19
ENDBRANCH  12  15
ENDBRANCH   8   9
ENDBRANCH   5   8
TORSDOF 7
ENDMDL
MODEL       29
REMARK 921   NORMALIZED FREE ENERGY PREDICTED BY IDOCK:   -6.99 KCAL/MOL
REMARK 922        TOTAL FREE ENERGY PREDICTED BY IDOCK:  -11.00 KCAL/MOL
REMARK 923 INTER-LIGAND FREE ENERGY PREDICTED BY IDOCK:  -10.55 KCAL/MOL
REMARK 924 INTRA-LIGAND FREE ENERGY PREDICTED BY IDOCK:   -0.45 KCAL/MOL
REMARK 927      BINDING AFFINITY PREDICTED BY RF-SCORE:    0.00 PKD
ROOT
HETATM    1  C   UNL     1      -6.172   2.772  74.468  1.00  0.00    -0.016 C  
HETATM    2  N   UNL     1      -7.630   2.714  74.359  1.00  0.00    -0.042 NA 
HETATM    3  C   UNL     1      -8.210   4.069  74.285  1.00  0.00    -0.091 C  
HETATM    4  C   UNL     1      -8.052   4.763  72.913  1.00  0.00    -0.101 C  
HETATM    5  N   UNL     1      -8.544   3.967  71.764  1.00  0.00    -0.093 NA 
HETATM    6  C   UNL     1      -8.046   1.919  73.184  1.00  0.00    -0.046 C  
HETATM    7  C   UNL     1      -7.910   2.637  71.818  1.00  0.00    -0.052 C  
ENDROOT
BRANCH   5   8
HETATM    8  C   UNL     1     -10.019   3.854  71.720  1.00  0.00    -0.163 C  
BRANCH   8   9
HETATM    9  C   UNL     1     -10.669   5.181  71.387  1.00  0.00    -0.154 A  
HETATM   10  C   UNL     1     -10.311   5.847  70.208  1.00  0.00    -0.298 A  
HETATM   11  C   UNL     1     -10.623   7.194  70.051  1.00  0.00    -0.248 A  
HETATM   12  C   UNL     1     -11.301   7.885  71.064  1.00  0.00    -0.292 A  
HETATM   13  C   UNL     1     -11.468   5.835  72.335  1.00  0.00    -0.343 A  
HETATM   14  C   UNL     1     -11.778   7.188  72.181  1.00  0.00    -0.322 A  
BRANCH  12  15
HETATM   15  C   UNL     1     -11.336   9.369  70.974  1.00  0.00    -0.337 C  
HETATM   16  O   UNL     1     -10.303   9.966  70.686  1.00  0.00    -0.286 OA 
HETATM   17  N   UNL     1     -12.560   9.978  71.199  1.00  0.00    -0.352 N  
HETATM   18  H   UNL     1     -13.375   9.402  71.410  1.00  0.00     0.000 HD 
BRANCH  17  19
HETATM   19  C   UNL     1     -12.701  11.380  71.145  1.00  0.00    -0.377 A  
HETATM   20  C   UNL     1     -11.942  12.066  70.204  1.00  0.00    -0.401 A  
HETATM   21  C   UNL     1     -11.821  13.467  70.235  1.00  0.00    -0.257 A  
HETATM   22  C   UNL     1     -13.508  12.086  72.026  1.00  0.00    -0.364 A  
HETATM   23  C   UNL     1     -12.633  14.184  71.139  1.00  0.00    -0.439 A  
HETATM   24  C   UNL     1     -12.621  15.682  71.277  1.00  0.00    -0.523 C  
HETATM   25  C   UNL     1     -13.502  13.481  71.996  1.00  0.00    -0.584 A  
BRANCH  21  26
HETATM   26  N   UNL     1     -10.823  14.089  69.464  1.00  0.00    -0.436 NA 
HETATM   27  H   UNL     1      -9.918  14.203  69.923  1.00  0.00     0.000 HD 
BRANCH  26  28
HETATM   28  C   UNL     1     -10.900  14.572  68.155  1.00  0.00    -0.240 A  
HETATM   29  N   UNL     1     -11.609  13.848  67.284  1.00  0.00    -0.344 NA 
HETATM   30  C   UNL     1     -11.714  14.338  66.035  1.00  0.00    -0.379 A  
HETATM   31  C   UNL     1     -11.158  15.528  65.625  1.00  0.00    -0.235 A  
HETATM   32  C   UNL     1     -10.440  16.216  66.577  1.00  0.00    -0.297 A  
HETATM   33  N   UNL     1     -10.314  15.733  67.826  1.00  0.00    -0.268 NA 
BRANCH  32  34
HETATM   34  C   UNL     1      -9.761  17.506  66.347  1.00  0.00    -0.299 A  
HETATM   35  C   UNL     1      -8.379  17.622  66.200  1.00  0.00    -0.148 A  
HETATM   36  N   UNL     1      -7.708  18.787  66.007  1.00  0.00    -0.434 NA 
HETATM   37  C   UNL     1      -8.452  19.916  65.957  1.00  0.00    -0.263 A  
HETATM   38  C   UNL     1      -9.826  19.931  66.095  1.00  0.00    -0.562 A  
HETATM   39  C   UNL     1     -10.479  18.715  66.291  1.00  0.00    -0.468 A  
ENDBRANCH  32  34
ENDBRANCH  26  28
ENDBRANCH  21  26
ENDBRANCH  17  19
ENDBRANCH  12  15
ENDBRANCH   8   9
ENDBRANCH   5   8
TORSDOF 7
ENDMDL
MODEL       30
REMARK 921   NORMALIZED FREE ENERGY PREDICTED BY IDOCK:   -6.97 KCAL/MOL
REMARK 922        TOTAL FREE ENERGY PREDICTED BY IDOCK:  -10.98 KCAL/MOL
REMARK 923 INTER-LIGAND FREE ENERGY PREDICTED BY IDOCK:   -9.44 KCAL/MOL
REMARK 924 INTRA-LIGAND FREE ENERGY PREDICTED BY IDOCK:   -1.54 KCAL/MOL
REMARK 927      BINDING AFFINITY PREDICTED BY RF-SCORE:    0.00 PKD
ROOT
HETATM    1  C   UNL     1     -12.744  14.995  73.564  1.00  0.00    -0.536 C  
HETATM    2  N   UNL     1     -13.042  15.754  72.348  1.00  0.00    -0.457 NA 
HETATM    3  C   UNL     1     -11.812  16.330  71.769  1.00  0.00    -0.439 C  
HETATM    4  C   UNL     1     -10.918  15.317  71.019  1.00  0.00    -0.226 C  
HETATM    5  N   UNL     1     -11.621  14.538  69.973  1.00  0.00    -0.275 NA 
HETATM    6  C   UNL     1     -13.727  14.909  71.346  1.00  0.00    -0.450 C  
HETATM    7  C   UNL     1     -12.813  13.920  70.580  1.00  0.00    -0.222 C  
ENDROOT
BRANCH   5   8
HETATM    8  C   UNL     1     -11.984  15.346  68.786  1.00  0.00    -0.253 C  
BRANCH   8   9
HETATM    9  C   UNL     1     -11.455  14.726  67.509  1.00  0.00    -0.369 A  
HETATM   10  C   UNL     1     -12.344  14.104  66.624  1.00  0.00    -0.375 A  
HETATM   11  C   UNL     1     -11.859  13.247  65.641  1.00  0.00    -0.419 A  
HETATM   12  C   UNL     1     -10.483  13.009  65.529  1.00  0.00    -0.297 A  
HETATM   13  C   UNL     1     -10.073  14.596  67.306  1.00  0.00    -0.236 A  
HETATM   14  C   UNL     1      -9.585  13.733  66.323  1.00  0.00    -0.265 A  
BRANCH  12  15
HETATM   15  C   UNL     1     -10.055  11.868  64.676  1.00  0.00    -0.269 C  
HETATM   16  O   UNL     1     -10.820  11.463  63.806  1.00  0.00    -0.373 OA 
HETATM   17  N   UNL     1      -8.789  11.354  64.913  1.00  0.00    -0.384 N  
HETATM   18  H   UNL     1      -8.209  11.768  65.642  1.00  0.00     0.000 HD 
BRANCH  17  19
HETATM   19  C   UNL     1      -8.289  10.268  64.165  1.00  0.00    -0.161 A  
HETATM   20  C   UNL     1      -8.690   8.992  64.540  1.00  0.00    -0.153 A  
HETATM   21  C   UNL     1      -8.061   7.842  64.027  1.00  0.00    -0.062 A  
HETATM   22  C   UNL     1      -7.377  10.428  63.131  1.00  0.00    -0.070 A  
HETATM   23  C   UNL     1      -7.126   8.006  62.984  1.00  0.00    -0.088 A  
HETATM   24  C   UNL     1      -6.384   6.871  62.331  1.00  0.00    -0.047 C  
HETATM   25  C   UNL     1      -6.828   9.302  62.518  1.00  0.00    -0.091 A  
BRANCH  21  26
HETATM   26  N   UNL     1      -8.289   6.599  64.645  1.00  0.00    -0.324 NA 
HETATM   27  H   UNL     1      -7.881   5.791  64.174  1.00  0.00     0.000 HD 
BRANCH  26  28
HETATM   28  C   UNL     1      -8.999   6.321  65.815  1.00  0.00    -0.068 A  
HETATM   29  N   UNL     1      -9.195   5.033  66.113  1.00  0.00    -0.142 NA 
HETATM   30  C   UNL     1      -9.843   4.770  67.262  1.00  0.00    -0.184 A  
HETATM   31  C   UNL     1     -10.288   5.737  68.135  1.00  0.00    -0.264 A  
HETATM   32  C   UNL     1     -10.053   7.041  67.759  1.00  0.00    -0.165 A  
HETATM   33  N   UNL     1      -9.417   7.320  66.607  1.00  0.00    -0.173 NA 
BRANCH  32  34
HETATM   34  C   UNL     1     -10.449   8.225  68.544  1.00  0.00    -0.199 A  
HETATM   35  C   UNL     1     -10.743   8.171  69.906  1.00  0.00    -0.241 A  
HETATM   36  N   UNL     1     -11.130   9.228  70.666  1.00  0.00    -0.258 NA 
HETATM   37  C   UNL     1     -11.236  10.421  70.038  1.00  0.00    -0.316 A  
HETATM   38  C   UNL     1     -10.979  10.601  68.694  1.00  0.00    -0.291 A  
HETATM   39  C   UNL     1     -10.582   9.493  67.948  1.00  0.00    -0.299 A  
ENDBRANCH  32  34
ENDBRANCH  26  28
ENDBRANCH  21  26
ENDBRANCH  17  19
ENDBRANCH  12  15
ENDBRANCH   8   9
ENDBRANCH   5   8
TORSDOF 7
ENDMDL
MODEL       31
REMARK 921   NORMALIZED FREE ENERGY PREDICTED BY IDOCK:   -6.96 KCAL/MOL
REMARK 922        TOTAL FREE ENERGY PREDICTED BY IDOCK:  -10.96 KCAL/MOL
REMARK 923 INTER-LIGAND FREE ENERGY PREDICTED BY IDOCK:   -9.78 KCAL/MOL
REMARK 924 INTRA-LIGAND FREE ENERGY PREDICTED BY IDOCK:   -1.18 KCAL/MOL
REMARK 927      BINDING AFFINITY PREDICTED BY RF-SCORE:    0.00 PKD
ROOT
HETATM    1  C   UNL     1      -5.833   1.791  66.658  1.00  0.00    -0.019 C  
HETATM    2  N   UNL     1      -6.996   1.490  67.494  1.00  0.00    -0.035 NA 
HETATM    3  C   UNL     1      -6.838   2.061  68.846  1.00  0.00    -0.033 C  
HETATM    4  C   UNL     1      -7.066   3.588  68.931  1.00  0.00    -0.050 C  
HETATM    5  N   UNL     1      -8.357   4.046  68.364  1.00  0.00    -0.089 NA 
HETATM    6  C   UNL     1      -8.241   1.990  66.874  1.00  0.00    -0.081 C  
HETATM    7  C   UNL     1      -8.472   3.518  66.992  1.00  0.00    -0.105 C  
ENDROOT
BRANCH   5   8
HETATM    8  C   UNL     1      -9.526   3.660  69.185  1.00  0.00    -0.165 C  
BRANCH   8   9
HETATM    9  C   UNL     1     -10.253   4.876  69.722  1.00  0.00    -0.284 A  
HETATM   10  C   UNL     1     -10.890   5.748  68.830  1.00  0.00    -0.285 A  
HETATM   11  C   UNL     1     -11.260   7.022  69.251  1.00  0.00    -0.114 A  
HETATM   12  C   UNL     1     -11.004   7.433  70.566  1.00  0.00    -0.270 A  
HETATM   13  C   UNL     1     -10.127   5.237  71.071  1.00  0.00    -0.289 A  
HETATM   14  C   UNL     1     -10.493   6.516  71.494  1.00  0.00    -0.245 A  
BRANCH  12  15
HETATM   15  C   UNL     1     -11.139   8.883  70.867  1.00  0.00    -0.271 C  
HETATM   16  O   UNL     1     -10.294   9.419  71.577  1.00  0.00    -0.327 OA 
HETATM   17  N   UNL     1     -12.215   9.541  70.290  1.00  0.00    -0.466 N  
HETATM   18  H   UNL     1     -12.857   9.021  69.691  1.00  0.00     0.000 HD 
BRANCH  17  19
HETATM   19  C   UNL     1     -12.439  10.914  70.516  1.00  0.00    -0.351 A  
HETATM   20  C   UNL     1     -11.864  11.814  69.627  1.00  0.00    -0.407 A  
HETATM   21  C   UNL     1     -11.817  13.193  69.900  1.00  0.00    -0.308 A  
HETATM   22  C   UNL     1     -13.146  11.387  71.613  1.00  0.00    -0.498 A  
HETATM   23  C   UNL     1     -12.526  13.672  71.022  1.00  0.00    -0.456 A  
HETATM   24  C   UNL     1     -12.577  15.118  71.433  1.00  0.00    -0.424 C  
HETATM   25  C   UNL     1     -13.221  12.761  71.842  1.00  0.00    -0.511 A  
BRANCH  21  26
HETATM   26  N   UNL     1     -10.977  14.020  69.133  1.00  0.00    -0.284 NA 
HETATM   27  H   UNL     1     -10.394  14.669  69.661  1.00  0.00     0.000 HD 
BRANCH  26  28
HETATM   28  C   UNL     1     -10.832  14.072  67.744  1.00  0.00    -0.247 A  
HETATM   29  N   UNL     1     -11.064  15.248  67.154  1.00  0.00    -0.336 NA 
HETATM   30  C   UNL     1     -10.883  15.304  65.822  1.00  0.00    -0.358 A  
HETATM   31  C   UNL     1     -10.465  14.239  65.057  1.00  0.00    -0.458 A  
HETATM   32  C   UNL     1     -10.250  13.059  65.734  1.00  0.00    -0.290 A  
HETATM   33  N   UNL     1     -10.439  12.985  67.063  1.00  0.00    -0.246 NA 
BRANCH  32  34
HETATM   34  C   UNL     1      -9.805  11.801  65.106  1.00  0.00    -0.263 A  
HETATM   35  C   UNL     1      -9.204  10.765  65.821  1.00  0.00    -0.189 A  
HETATM   36  N   UNL     1      -8.760   9.598  65.286  1.00  0.00    -0.149 NA 
HETATM   37  C   UNL     1      -8.919   9.444  63.951  1.00  0.00    -0.126 A  
HETATM   38  C   UNL     1      -9.492  10.398  63.135  1.00  0.00    -0.362 A  
HETATM   39  C   UNL     1      -9.937  11.581  63.722  1.00  0.00    -0.384 A  
ENDBRANCH  32  34
ENDBRANCH  26  28
ENDBRANCH  21  26
ENDBRANCH  17  19
ENDBRANCH  12  15
ENDBRANCH   8   9
ENDBRANCH   5   8
TORSDOF 7
ENDMDL
MODEL       32
REMARK 921   NORMALIZED FREE ENERGY PREDICTED BY IDOCK:   -6.94 KCAL/MOL
REMARK 922        TOTAL FREE ENERGY PREDICTED BY IDOCK:  -10.93 KCAL/MOL
REMARK 923 INTER-LIGAND FREE ENERGY PREDICTED BY IDOCK:  -11.07 KCAL/MOL
REMARK 924 INTRA-LIGAND FREE ENERGY PREDICTED BY IDOCK:    0.13 KCAL/MOL
REMARK 927      BINDING AFFINITY PREDICTED BY RF-SCORE:    0.00 PKD
ROOT
HETATM    1  C   UNL     1      -7.861   4.366  64.008  1.00  0.00    -0.085 C  
HETATM    2  N   UNL     1      -7.541   4.118  65.415  1.00  0.00    -0.084 NA 
HETATM    3  C   UNL     1      -7.184   5.373  66.105  1.00  0.00    -0.077 C  
HETATM    4  C   UNL     1      -8.386   6.282  66.452  1.00  0.00    -0.118 C  
HETATM    5  N   UNL     1      -9.465   5.606  67.211  1.00  0.00    -0.113 NA 
HETATM    6  C   UNL     1      -8.667   3.459  66.109  1.00  0.00    -0.126 C  
HETATM    7  C   UNL     1      -9.851   4.387  66.478  1.00  0.00    -0.229 C  
ENDROOT
BRANCH   5   8
HETATM    8  C   UNL     1      -9.089   5.292  68.608  1.00  0.00    -0.109 C  
BRANCH   8   9
HETATM    9  C   UNL     1      -9.801   6.197  69.592  1.00  0.00    -0.196 A  
HETATM   10  C   UNL     1     -11.178   6.043  69.799  1.00  0.00    -0.440 A  
HETATM   11  C   UNL     1     -11.904   7.055  70.418  1.00  0.00    -0.295 A  
HETATM   12  C   UNL     1     -11.262   8.227  70.842  1.00  0.00    -0.292 A  
HETATM   13  C   UNL     1      -9.140   7.305  70.141  1.00  0.00    -0.148 A  
HETATM   14  C   UNL     1      -9.867   8.324  70.757  1.00  0.00    -0.205 A  
BRANCH  12  15
HETATM   15  C   UNL     1     -12.123   9.381  71.211  1.00  0.00    -0.345 C  
HETATM   16  O   UNL     1     -13.107   9.181  71.917  1.00  0.00    -0.351 OA 
HETATM   17  N   UNL     1     -11.729  10.627  70.745  1.00  0.00    -0.341 N  
HETATM   18  H   UNL     1     -10.881  10.705  70.183  1.00  0.00     0.000 HD 
BRANCH  17  19
HETATM   19  C   UNL     1     -12.478  11.786  71.032  1.00  0.00    -0.309 A  
HETATM   20  C   UNL     1     -12.334  12.872  70.178  1.00  0.00    -0.249 A  
HETATM   21  C   UNL     1     -12.836  14.144  70.511  1.00  0.00    -0.247 A  
HETATM   22  C   UNL     1     -13.287  11.895  72.155  1.00  0.00    -0.361 A  
HETATM   23  C   UNL     1     -13.649  14.256  71.659  1.00  0.00    -0.461 A  
HETATM   24  C   UNL     1     -14.263  15.546  72.133  1.00  0.00    -0.617 C  
HETATM   25  C   UNL     1     -13.901  13.115  72.444  1.00  0.00    -0.583 A  
BRANCH  21  26
HETATM   26  N   UNL     1     -12.417  15.264  69.773  1.00  0.00    -0.578 NA 
HETATM   27  H   UNL     1     -12.649  16.172  70.178  1.00  0.00     0.000 HD 
BRANCH  26  28
HETATM   28  C   UNL     1     -11.726  15.305  68.559  1.00  0.00    -0.332 A  
HETATM   29  N   UNL     1     -11.906  14.277  67.725  1.00  0.00    -0.377 NA 
HETATM   30  C   UNL     1     -11.271  14.340  66.541  1.00  0.00    -0.332 A  
HETATM   31  C   UNL     1     -10.477  15.394  66.148  1.00  0.00    -0.325 A  
HETATM   32  C   UNL     1     -10.335  16.414  67.062  1.00  0.00    -0.293 A  
HETATM   33  N   UNL     1     -10.954  16.359  68.255  1.00  0.00    -0.350 NA 
BRANCH  32  34
HETATM   34  C   UNL     1      -9.528  17.629  66.844  1.00  0.00    -0.278 A  
HETATM   35  C   UNL     1      -8.258  17.606  66.269  1.00  0.00    -0.229 A  
HETATM   36  N   UNL     1      -7.470  18.694  66.066  1.00  0.00    -0.393 NA 
HETATM   37  C   UNL     1      -7.971  19.888  66.460  1.00  0.00    -0.321 A  
HETATM   38  C   UNL     1      -9.211  20.039  67.047  1.00  0.00    -0.491 A  
HETATM   39  C   UNL     1      -9.990  18.899  67.237  1.00  0.00    -0.386 A  
ENDBRANCH  32  34
ENDBRANCH  26  28
ENDBRANCH  21  26
ENDBRANCH  17  19
ENDBRANCH  12  15
ENDBRANCH   8   9
ENDBRANCH   5   8
TORSDOF 7
ENDMDL
MODEL       33
REMARK 921   NORMALIZED FREE ENERGY PREDICTED BY IDOCK:   -6.91 KCAL/MOL
REMARK 922        TOTAL FREE ENERGY PREDICTED BY IDOCK:  -10.89 KCAL/MOL
REMARK 923 INTER-LIGAND FREE ENERGY PREDICTED BY IDOCK:   -9.72 KCAL/MOL
REMARK 924 INTRA-LIGAND FREE ENERGY PREDICTED BY IDOCK:   -1.17 KCAL/MOL
REMARK 927      BINDING AFFINITY PREDICTED BY RF-SCORE:    0.00 PKD
ROOT
HETATM    1  C   UNL     1      -7.390  20.962  67.569  1.00  0.00    -0.281 C  
HETATM    2  N   UNL     1      -6.648  19.757  67.195  1.00  0.00    -0.197 NA 
HETATM    3  C   UNL     1      -6.671  18.761  68.284  1.00  0.00    -0.232 C  
HETATM    4  C   UNL     1      -8.007  17.996  68.430  1.00  0.00    -0.300 C  
HETATM    5  N   UNL     1      -8.481  17.353  67.182  1.00  0.00    -0.207 NA 
HETATM    6  C   UNL     1      -7.188  19.163  65.953  1.00  0.00    -0.266 C  
HETATM    7  C   UNL     1      -8.510  18.373  66.118  1.00  0.00    -0.119 C  
ENDROOT
BRANCH   5   8
HETATM    8  C   UNL     1      -7.666  16.184  66.779  1.00  0.00    -0.253 C  
BRANCH   8   9
HETATM    9  C   UNL     1      -8.433  14.888  66.944  1.00  0.00    -0.255 A  
HETATM   10  C   UNL     1      -9.778  14.829  66.557  1.00  0.00    -0.295 A  
HETATM   11  C   UNL     1     -10.583  13.785  67.004  1.00  0.00    -0.278 A  
HETATM   12  C   UNL     1     -10.051  12.790  67.834  1.00  0.00    -0.231 A  
HETATM   13  C   UNL     1      -7.871  13.820  67.657  1.00  0.00    -0.185 A  
HETATM   14  C   UNL     1      -8.678  12.775  68.110  1.00  0.00    -0.193 A  
BRANCH  12  15
HETATM   15  C   UNL     1     -11.013  11.886  68.518  1.00  0.00    -0.235 C  
HETATM   16  O   UNL     1     -12.107  11.686  67.998  1.00  0.00    -0.597 OA 
HETATM   17  N   UNL     1     -10.587  11.303  69.702  1.00  0.00    -0.454 N  
HETATM   18  H   UNL     1      -9.650  11.506  70.051  1.00  0.00     0.000 HD 
BRANCH  17  19
HETATM   19  C   UNL     1     -11.424  10.435  70.433  1.00  0.00    -0.337 A  
HETATM   20  C   UNL     1     -11.276   9.070  70.222  1.00  0.00    -0.232 A  
HETATM   21  C   UNL     1     -12.218   8.143  70.706  1.00  0.00    -0.002 A  
HETATM   22  C   UNL     1     -12.414  10.896  71.290  1.00  0.00    -0.493 A  
HETATM   23  C   UNL     1     -13.230   8.614  71.567  1.00  0.00    -0.335 A  
HETATM   24  C   UNL     1     -14.298   7.741  72.170  1.00  0.00    -0.376 C  
HETATM   25  C   UNL     1     -13.288   9.985  71.884  1.00  0.00    -0.516 A  
BRANCH  21  26
HETATM   26  N   UNL     1     -12.193   6.822  70.225  1.00  0.00    -0.599 NA 
HETATM   27  H   UNL     1     -13.097   6.434  69.956  1.00  0.00     0.000 HD 
BRANCH  26  28
HETATM   28  C   UNL     1     -11.099   5.969  70.065  1.00  0.00    -0.381 A  
HETATM   29  N   UNL     1     -10.450   5.600  71.173  1.00  0.00    -0.231 NA 
HETATM   30  C   UNL     1      -9.423   4.746  71.018  1.00  0.00    -0.164 A  
HETATM   31  C   UNL     1      -9.026   4.231  69.804  1.00  0.00    -0.150 A  
HETATM   32  C   UNL     1      -9.738   4.660  68.707  1.00  0.00    -0.160 A  
HETATM   33  N   UNL     1     -10.760   5.523  68.845  1.00  0.00    -0.192 NA 
BRANCH  32  34
HETATM   34  C   UNL     1      -9.477   4.236  67.318  1.00  0.00    -0.209 A  
HETATM   35  C   UNL     1      -8.328   3.541  66.939  1.00  0.00    -0.100 A  
HETATM   36  N   UNL     1      -8.034   3.147  65.673  1.00  0.00    -0.085 NA 
HETATM   37  C   UNL     1      -8.934   3.463  64.714  1.00  0.00    -0.130 A  
HETATM   38  C   UNL     1     -10.103   4.154  64.963  1.00  0.00    -0.220 A  
HETATM   39  C   UNL     1     -10.371   4.540  66.275  1.00  0.00    -0.227 A  
ENDBRANCH  32  34
ENDBRANCH  26  28
ENDBRANCH  21  26
ENDBRANCH  17  19
ENDBRANCH  12  15
ENDBRANCH   8   9
ENDBRANCH   5   8
TORSDOF 7
ENDMDL
MODEL       34
REMARK 921   NORMALIZED FREE ENERGY PREDICTED BY IDOCK:   -6.91 KCAL/MOL
REMARK 922        TOTAL FREE ENERGY PREDICTED BY IDOCK:  -10.89 KCAL/MOL
REMARK 923 INTER-LIGAND FREE ENERGY PREDICTED BY IDOCK:   -9.97 KCAL/MOL
REMARK 924 INTRA-LIGAND FREE ENERGY PREDICTED BY IDOCK:   -0.91 KCAL/MOL
REMARK 927      BINDING AFFINITY PREDICTED BY RF-SCORE:    0.00 PKD
ROOT
HETATM    1  C   UNL     1      -5.741  19.827  68.496  1.00  0.00    -0.218 C  
HETATM    2  N   UNL     1      -6.616  19.458  67.382  1.00  0.00    -0.193 NA 
HETATM    3  C   UNL     1      -6.823  17.997  67.334  1.00  0.00    -0.190 C  
HETATM    4  C   UNL     1      -7.805  17.450  68.397  1.00  0.00    -0.257 C  
HETATM    5  N   UNL     1      -9.125  18.123  68.412  1.00  0.00    -0.302 NA 
HETATM    6  C   UNL     1      -7.918  20.152  67.473  1.00  0.00    -0.317 C  
HETATM    7  C   UNL     1      -8.903  19.576  68.521  1.00  0.00    -0.342 C  
ENDROOT
BRANCH   5   8
HETATM    8  C   UNL     1      -9.961  17.797  67.235  1.00  0.00    -0.324 C  
BRANCH   8   9
HETATM    9  C   UNL     1     -10.774  16.538  67.461  1.00  0.00    -0.283 A  
HETATM   10  C   UNL     1     -11.315  16.286  68.728  1.00  0.00    -0.329 A  
HETATM   11  C   UNL     1     -11.760  15.008  69.050  1.00  0.00    -0.351 A  
HETATM   12  C   UNL     1     -11.675  13.973  68.109  1.00  0.00    -0.387 A  
HETATM   13  C   UNL     1     -10.820  15.539  66.479  1.00  0.00    -0.284 A  
HETATM   14  C   UNL     1     -11.261  14.255  66.801  1.00  0.00    -0.337 A  
BRANCH  12  15
HETATM   15  C   UNL     1     -11.876  12.584  68.601  1.00  0.00    -0.297 C  
HETATM   16  O   UNL     1     -12.146  11.703  67.790  1.00  0.00    -0.613 OA 
HETATM   17  N   UNL     1     -11.716  12.376  69.963  1.00  0.00    -0.510 N  
HETATM   18  H   UNL     1     -11.467  13.163  70.563  1.00  0.00     0.000 HD 
BRANCH  17  19
HETATM   19  C   UNL     1     -11.890  11.100  70.534  1.00  0.00    -0.351 A  
HETATM   20  C   UNL     1     -11.039  10.086  70.113  1.00  0.00    -0.371 A  
HETATM   21  C   UNL     1     -11.286   8.737  70.429  1.00  0.00    -0.223 A  
HETATM   22  C   UNL     1     -12.907  10.815  71.435  1.00  0.00    -0.557 A  
HETATM   23  C   UNL     1     -12.327   8.448  71.336  1.00  0.00    -0.328 A  
HETATM   24  C   UNL     1     -12.700   7.058  71.775  1.00  0.00    -0.378 C  
HETATM   25  C   UNL     1     -13.099   9.501  71.863  1.00  0.00    -0.517 A  
BRANCH  21  26
HETATM   26  N   UNL     1     -10.581   7.730  69.747  1.00  0.00    -0.240 NA 
HETATM   27  H   UNL     1     -10.819   6.772  70.006  1.00  0.00     0.000 HD 
BRANCH  26  28
HETATM   28  C   UNL     1      -9.599   7.862  68.762  1.00  0.00    -0.152 A  
HETATM   29  N   UNL     1      -9.499   6.874  67.868  1.00  0.00    -0.121 NA 
HETATM   30  C   UNL     1      -8.580   7.025  66.898  1.00  0.00    -0.120 A  
HETATM   31  C   UNL     1      -7.769   8.130  66.771  1.00  0.00    -0.095 A  
HETATM   32  C   UNL     1      -7.926   9.105  67.730  1.00  0.00    -0.101 A  
HETATM   33  N   UNL     1      -8.832   8.962  68.714  1.00  0.00    -0.137 NA 
BRANCH  32  34
HETATM   34  C   UNL     1      -7.157  10.363  67.782  1.00  0.00    -0.084 A  
HETATM   35  C   UNL     1      -6.344  10.801  66.737  1.00  0.00    -0.088 A  
HETATM   36  N   UNL     1      -5.603  11.939  66.746  1.00  0.00    -0.268 NA 
HETATM   37  C   UNL     1      -5.668  12.697  67.865  1.00  0.00    -0.110 A  
HETATM   38  C   UNL     1      -6.431  12.367  68.967  1.00  0.00    -0.097 A  
HETATM   39  C   UNL     1      -7.178  11.192  68.919  1.00  0.00    -0.106 A  
ENDBRANCH  32  34
ENDBRANCH  26  28
ENDBRANCH  21  26
ENDBRANCH  17  19
ENDBRANCH  12  15
ENDBRANCH   8   9
ENDBRANCH   5   8
TORSDOF 7
ENDMDL
MODEL       35
REMARK 921   NORMALIZED FREE ENERGY PREDICTED BY IDOCK:   -6.87 KCAL/MOL
REMARK 922        TOTAL FREE ENERGY PREDICTED BY IDOCK:  -10.83 KCAL/MOL
REMARK 923 INTER-LIGAND FREE ENERGY PREDICTED BY IDOCK:   -9.85 KCAL/MOL
REMARK 924 INTRA-LIGAND FREE ENERGY PREDICTED BY IDOCK:   -0.98 KCAL/MOL
REMARK 927      BINDING AFFINITY PREDICTED BY RF-SCORE:    0.00 PKD
ROOT
HETATM    1  C   UNL     1      -9.397   2.599  68.108  1.00  0.00    -0.203 C  
HETATM    2  N   UNL     1      -8.912   3.829  68.736  1.00  0.00    -0.112 NA 
HETATM    3  C   UNL     1      -7.740   4.364  68.016  1.00  0.00    -0.080 C  
HETATM    4  C   UNL     1      -8.072   5.076  66.684  1.00  0.00    -0.108 C  
HETATM    5  N   UNL     1      -9.094   6.143  66.799  1.00  0.00    -0.129 NA 
HETATM    6  C   UNL     1      -9.978   4.851  68.800  1.00  0.00    -0.136 C  
HETATM    7  C   UNL     1     -10.280   5.577  67.465  1.00  0.00    -0.199 C  
ENDROOT
BRANCH   5   8
HETATM    8  C   UNL     1      -8.605   7.346  67.509  1.00  0.00    -0.122 C  
BRANCH   8   9
HETATM    9  C   UNL     1      -9.563   8.510  67.355  1.00  0.00    -0.204 A  
HETATM   10  C   UNL     1      -9.641   9.181  66.129  1.00  0.00    -0.333 A  
HETATM   11  C   UNL     1     -10.240  10.435  66.062  1.00  0.00    -0.295 A  
HETATM   12  C   UNL     1     -10.773  11.026  67.216  1.00  0.00    -0.312 A  
HETATM   13  C   UNL     1     -10.219   9.038  68.476  1.00  0.00    -0.224 A  
HETATM   14  C   UNL     1     -10.816  10.298  68.412  1.00  0.00    -0.288 A  
BRANCH  12  15
HETATM   15  C   UNL     1     -11.118  12.470  67.146  1.00  0.00    -0.276 C  
HETATM   16  O   UNL     1     -12.199  12.796  66.663  1.00  0.00    -0.481 OA 
HETATM   17  N   UNL     1     -10.189  13.359  67.664  1.00  0.00    -0.226 N  
HETATM   18  H   UNL     1      -9.324  12.999  68.070  1.00  0.00     0.000 HD 
BRANCH  17  19
HETATM   19  C   UNL     1     -10.415  14.750  67.642  1.00  0.00    -0.254 A  
HETATM   20  C   UNL     1      -9.784  15.488  66.648  1.00  0.00    -0.264 A  
HETATM   21  C   UNL     1      -9.743  16.894  66.687  1.00  0.00    -0.271 A  
HETATM   22  C   UNL     1     -11.180  15.400  68.601  1.00  0.00    -0.312 A  
HETATM   23  C   UNL     1     -10.510  17.553  67.669  1.00  0.00    -0.370 A  
HETATM   24  C   UNL     1     -10.573  19.049  67.827  1.00  0.00    -0.488 C  
HETATM   25  C   UNL     1     -11.258  16.793  68.590  1.00  0.00    -0.170 A  
BRANCH  21  26
HETATM   26  N   UNL     1      -8.855  17.580  65.840  1.00  0.00    -0.529 NA 
HETATM   27  H   UNL     1      -9.184  17.733  64.886  1.00  0.00     0.000 HD 
BRANCH  26  28
HETATM   28  C   UNL     1      -7.583  18.082  66.126  1.00  0.00    -0.250 A  
HETATM   29  N   UNL     1      -6.749  18.244  65.095  1.00  0.00    -0.410 NA 
HETATM   30  C   UNL     1      -5.540  18.766  65.370  1.00  0.00    -0.198 A  
HETATM   31  C   UNL     1      -5.135  19.149  66.629  1.00  0.00    -0.159 A  
HETATM   32  C   UNL     1      -6.046  18.948  67.642  1.00  0.00    -0.199 A  
HETATM   33  N   UNL     1      -7.254  18.415  67.384  1.00  0.00    -0.204 NA 
BRANCH  32  34
HETATM   34  C   UNL     1      -5.814  19.283  69.059  1.00  0.00    -0.241 A  
HETATM   35  C   UNL     1      -5.733  20.594  69.527  1.00  0.00    -0.364 A  
HETATM   36  N   UNL     1      -5.501  20.952  70.816  1.00  0.00    -0.558 NA 
HETATM   37  C   UNL     1      -5.335  19.946  71.706  1.00  0.00    -0.416 A  
HETATM   38  C   UNL     1      -5.386  18.610  71.364  1.00  0.00    -0.230 A  
HETATM   39  C   UNL     1      -5.628  18.282  70.031  1.00  0.00    -0.239 A  
ENDBRANCH  32  34
ENDBRANCH  26  28
ENDBRANCH  21  26
ENDBRANCH  17  19
ENDBRANCH  12  15
ENDBRANCH   8   9
ENDBRANCH   5   8
TORSDOF 7
ENDMDL
MODEL       36
REMARK 921   NORMALIZED FREE ENERGY PREDICTED BY IDOCK:   -6.86 KCAL/MOL
REMARK 922        TOTAL FREE ENERGY PREDICTED BY IDOCK:  -10.82 KCAL/MOL
REMARK 923 INTER-LIGAND FREE ENERGY PREDICTED BY IDOCK:   -9.81 KCAL/MOL
REMARK 924 INTRA-LIGAND FREE ENERGY PREDICTED BY IDOCK:   -1.01 KCAL/MOL
REMARK 927      BINDING AFFINITY PREDICTED BY RF-SCORE:    0.00 PKD
ROOT
HETATM    1  C   UNL     1     -12.820  15.321  73.622  1.00  0.00    -0.525 C  
HETATM    2  N   UNL     1     -13.151  15.757  72.265  1.00  0.00    -0.451 NA 
HETATM    3  C   UNL     1     -11.972  16.338  71.594  1.00  0.00    -0.374 C  
HETATM    4  C   UNL     1     -10.937  15.302  71.099  1.00  0.00    -0.197 C  
HETATM    5  N   UNL     1     -11.502  14.236  70.238  1.00  0.00    -0.213 NA 
HETATM    6  C   UNL     1     -13.692  14.639  71.463  1.00  0.00    -0.419 C  
HETATM    7  C   UNL     1     -12.640  13.625  70.948  1.00  0.00    -0.346 C  
ENDROOT
BRANCH   5   8
HETATM    8  C   UNL     1     -11.905  14.718  68.898  1.00  0.00    -0.296 C  
BRANCH   8   9
HETATM    9  C   UNL     1     -11.304  13.867  67.798  1.00  0.00    -0.335 A  
HETATM   10  C   UNL     1     -12.144  13.279  66.844  1.00  0.00    -0.389 A  
HETATM   11  C   UNL     1     -11.671  12.240  66.050  1.00  0.00    -0.451 A  
HETATM   12  C   UNL     1     -10.353  11.784  66.195  1.00  0.00    -0.266 A  
HETATM   13  C   UNL     1      -9.950  13.505  67.843  1.00  0.00    -0.245 A  
HETATM   14  C   UNL     1      -9.474  12.459  67.050  1.00  0.00    -0.211 A  
BRANCH  12  15
HETATM   15  C   UNL     1     -10.003  10.492  65.547  1.00  0.00    -0.279 C  
HETATM   16  O   UNL     1     -10.246  10.345  64.353  1.00  0.00    -0.333 OA 
HETATM   17  N   UNL     1      -9.392   9.539  66.348  1.00  0.00    -0.166 N  
HETATM   18  H   UNL     1      -9.206   9.754  67.328  1.00  0.00     0.000 HD 
BRANCH  17  19
HETATM   19  C   UNL     1      -9.025   8.278  65.835  1.00  0.00    -0.163 A  
HETATM   20  C   UNL     1      -9.644   7.159  66.378  1.00  0.00    -0.161 A  
HETATM   21  C   UNL     1      -9.174   5.858  66.117  1.00  0.00    -0.150 A  
HETATM   22  C   UNL     1      -8.039   8.120  64.871  1.00  0.00    -0.153 A  
HETATM   23  C   UNL     1      -8.164   5.699  65.146  1.00  0.00    -0.136 A  
HETATM   24  C   UNL     1      -7.572   4.373  64.754  1.00  0.00    -0.073 C  
HETATM   25  C   UNL     1      -7.639   6.836  64.500  1.00  0.00    -0.103 A  
BRANCH  21  26
HETATM   26  N   UNL     1      -9.632   4.789  66.909  1.00  0.00    -0.158 NA 
HETATM   27  H   UNL     1      -9.835   3.924  66.407  1.00  0.00     0.000 HD 
BRANCH  26  28
HETATM   28  C   UNL     1      -9.845   4.751  68.289  1.00  0.00    -0.118 A  
HETATM   29  N   UNL     1      -9.403   3.672  68.941  1.00  0.00    -0.161 NA 
HETATM   30  C   UNL     1      -9.575   3.658  70.275  1.00  0.00    -0.176 A  
HETATM   31  C   UNL     1     -10.153   4.685  70.987  1.00  0.00    -0.246 A  
HETATM   32  C   UNL     1     -10.587   5.761  70.247  1.00  0.00    -0.299 A  
HETATM   33  N   UNL     1     -10.434   5.783  68.911  1.00  0.00    -0.237 NA 
BRANCH  32  34
HETATM   34  C   UNL     1     -11.236   6.960  70.811  1.00  0.00    -0.338 A  
HETATM   35  C   UNL     1     -10.657   8.228  70.770  1.00  0.00    -0.210 A  
HETATM   36  N   UNL     1     -11.205   9.356  71.291  1.00  0.00    -0.338 NA 
HETATM   37  C   UNL     1     -12.408   9.223  71.897  1.00  0.00    -0.382 A  
HETATM   38  C   UNL     1     -13.077   8.021  72.007  1.00  0.00    -0.289 A  
HETATM   39  C   UNL     1     -12.483   6.886  71.458  1.00  0.00    -0.420 A  
ENDBRANCH  32  34
ENDBRANCH  26  28
ENDBRANCH  21  26
ENDBRANCH  17  19
ENDBRANCH  12  15
ENDBRANCH   8   9
ENDBRANCH   5   8
TORSDOF 7
ENDMDL
MODEL       37
REMARK 921   NORMALIZED FREE ENERGY PREDICTED BY IDOCK:   -6.84 KCAL/MOL
REMARK 922        TOTAL FREE ENERGY PREDICTED BY IDOCK:  -10.80 KCAL/MOL
REMARK 923 INTER-LIGAND FREE ENERGY PREDICTED BY IDOCK:  -10.02 KCAL/MOL
REMARK 924 INTRA-LIGAND FREE ENERGY PREDICTED BY IDOCK:   -0.78 KCAL/MOL
REMARK 927      BINDING AFFINITY PREDICTED BY RF-SCORE:    0.00 PKD
ROOT
HETATM    1  C   UNL     1     -10.194   1.788  63.583  1.00  0.00    -0.120 C  
HETATM    2  N   UNL     1      -8.981   2.431  64.089  1.00  0.00    -0.099 NA 
HETATM    3  C   UNL     1      -9.183   3.883  64.259  1.00  0.00    -0.146 C  
HETATM    4  C   UNL     1     -10.011   4.276  65.504  1.00  0.00    -0.225 C  
HETATM    5  N   UNL     1      -9.508   3.709  66.777  1.00  0.00    -0.194 NA 
HETATM    6  C   UNL     1      -8.550   1.825  65.367  1.00  0.00    -0.107 C  
HETATM    7  C   UNL     1      -9.369   2.251  66.610  1.00  0.00     0.074 C  
ENDROOT
BRANCH   5   8
HETATM    8  C   UNL     1      -8.237   4.319  67.228  1.00  0.00    -0.100 C  
BRANCH   8   9
HETATM    9  C   UNL     1      -8.468   5.336  68.327  1.00  0.00    -0.096 A  
HETATM   10  C   UNL     1      -9.518   5.145  69.234  1.00  0.00    -0.196 A  
HETATM   11  C   UNL     1      -9.958   6.206  70.019  1.00  0.00    -0.217 A  
HETATM   12  C   UNL     1      -9.349   7.464  69.911  1.00  0.00    -0.154 A  
HETATM   13  C   UNL     1      -7.770   6.552  68.323  1.00  0.00    -0.105 A  
HETATM   14  C   UNL     1      -8.213   7.619  69.106  1.00  0.00    -0.130 A  
BRANCH  12  15
HETATM   15  C   UNL     1     -10.048   8.617  70.538  1.00  0.00    -0.196 C  
HETATM   16  O   UNL     1      -9.594   9.088  71.577  1.00  0.00    -0.282 OA 
HETATM   17  N   UNL     1     -11.167   9.100  69.879  1.00  0.00    -0.402 N  
HETATM   18  H   UNL     1     -11.462   8.662  69.006  1.00  0.00     0.000 HD 
BRANCH  17  19
HETATM   19  C   UNL     1     -11.907  10.185  70.391  1.00  0.00    -0.288 A  
HETATM   20  C   UNL     1     -11.624  11.450  69.890  1.00  0.00    -0.402 A  
HETATM   21  C   UNL     1     -12.121  12.614  70.504  1.00  0.00    -0.275 A  
HETATM   22  C   UNL     1     -12.843  10.040  71.406  1.00  0.00    -0.519 A  
HETATM   23  C   UNL     1     -13.063  12.466  71.543  1.00  0.00    -0.362 A  
HETATM   24  C   UNL     1     -13.688  13.617  72.285  1.00  0.00    -0.687 C  
HETATM   25  C   UNL     1     -13.446  11.174  71.952  1.00  0.00    -0.284 A  
BRANCH  21  26
HETATM   26  N   UNL     1     -11.578  13.863  70.153  1.00  0.00    -0.459 NA 
HETATM   27  H   UNL     1     -11.228  14.426  70.929  1.00  0.00     0.000 HD 
BRANCH  26  28
HETATM   28  C   UNL     1     -11.451  14.437  68.886  1.00  0.00    -0.289 A  
HETATM   29  N   UNL     1     -11.871  13.710  67.846  1.00  0.00    -0.358 NA 
HETATM   30  C   UNL     1     -11.785  14.284  66.632  1.00  0.00    -0.400 A  
HETATM   31  C   UNL     1     -11.314  15.559  66.414  1.00  0.00    -0.005 A  
HETATM   32  C   UNL     1     -10.896  16.245  67.532  1.00  0.00    -0.268 A  
HETATM   33  N   UNL     1     -10.964  15.680  68.751  1.00  0.00    -0.264 NA 
BRANCH  32  34
HETATM   34  C   UNL     1     -10.356  17.617  67.521  1.00  0.00    -0.365 A  
HETATM   35  C   UNL     1      -9.727  18.196  68.624  1.00  0.00    -0.357 A  
HETATM   36  N   UNL     1      -9.232  19.460  68.668  1.00  0.00    -0.372 NA 
HETATM   37  C   UNL     1      -9.367  20.205  67.547  1.00  0.00    -0.382 A  
HETATM   38  C   UNL     1      -9.976  19.747  66.396  1.00  0.00    -0.578 A  
HETATM   39  C   UNL     1     -10.470  18.444  66.388  1.00  0.00    -0.412 A  
ENDBRANCH  32  34
ENDBRANCH  26  28
ENDBRANCH  21  26
ENDBRANCH  17  19
ENDBRANCH  12  15
ENDBRANCH   8   9
ENDBRANCH   5   8
TORSDOF 7
ENDMDL
MODEL       38
REMARK 921   NORMALIZED FREE ENERGY PREDICTED BY IDOCK:   -6.84 KCAL/MOL
REMARK 922        TOTAL FREE ENERGY PREDICTED BY IDOCK:  -10.79 KCAL/MOL
REMARK 923 INTER-LIGAND FREE ENERGY PREDICTED BY IDOCK:   -9.96 KCAL/MOL
REMARK 924 INTRA-LIGAND FREE ENERGY PREDICTED BY IDOCK:   -0.83 KCAL/MOL
REMARK 927      BINDING AFFINITY PREDICTED BY RF-SCORE:    0.00 PKD
ROOT
HETATM    1  C   UNL     1     -11.240   2.437  73.602  1.00  0.00    -0.217 C  
HETATM    2  N   UNL     1     -10.252   3.503  73.780  1.00  0.00    -0.130 NA 
HETATM    3  C   UNL     1      -9.209   3.436  72.738  1.00  0.00    -0.092 C  
HETATM    4  C   UNL     1      -9.648   3.959  71.351  1.00  0.00    -0.166 C  
HETATM    5  N   UNL     1     -10.224   5.325  71.367  1.00  0.00    -0.205 NA 
HETATM    6  C   UNL     1     -10.896   4.833  73.769  1.00  0.00    -0.310 C  
HETATM    7  C   UNL     1     -11.305   5.358  72.369  1.00  0.00    -0.179 C  
ENDROOT
BRANCH   5   8
HETATM    8  C   UNL     1      -9.220   6.380  71.629  1.00  0.00    -0.144 C  
BRANCH   8   9
HETATM    9  C   UNL     1      -9.272   7.470  70.578  1.00  0.00    -0.157 A  
HETATM   10  C   UNL     1      -9.222   8.812  70.973  1.00  0.00    -0.278 A  
HETATM   11  C   UNL     1      -9.606   9.811  70.084  1.00  0.00    -0.287 A  
HETATM   12  C   UNL     1     -10.036   9.480  68.793  1.00  0.00    -0.202 A  
HETATM   13  C   UNL     1      -9.567   7.152  69.244  1.00  0.00    -0.155 A  
HETATM   14  C   UNL     1      -9.958   8.153  68.353  1.00  0.00    -0.210 A  
BRANCH  12  15
HETATM   15  C   UNL     1     -10.714  10.544  68.005  1.00  0.00    -0.245 C  
HETATM   16  O   UNL     1     -11.849  10.883  68.326  1.00  0.00    -0.530 OA 
HETATM   17  N   UNL     1      -9.991  11.104  66.963  1.00  0.00    -0.189 N  
HETATM   18  H   UNL     1      -9.042  10.778  66.781  1.00  0.00     0.000 HD 
BRANCH  17  19
HETATM   19  C   UNL     1     -10.543  12.115  66.150  1.00  0.00    -0.255 A  
HETATM   20  C   UNL     1      -9.837  13.307  66.039  1.00  0.00    -0.271 A  
HETATM   21  C   UNL     1     -10.414  14.454  65.463  1.00  0.00    -0.350 A  
HETATM   22  C   UNL     1     -11.775  11.983  65.524  1.00  0.00    -0.315 A  
HETATM   23  C   UNL     1     -11.671  14.322  64.838  1.00  0.00    -0.399 A  
HETATM   24  C   UNL     1     -12.405  15.455  64.173  1.00  0.00    -0.015 C  
HETATM   25  C   UNL     1     -12.317  13.071  64.838  1.00  0.00    -0.512 A  
BRANCH  21  26
HETATM   26  N   UNL     1      -9.787  15.701  65.637  1.00  0.00    -0.339 NA 
HETATM   27  H   UNL     1      -9.199  16.010  64.862  1.00  0.00     0.000 HD 
BRANCH  26  28
HETATM   28  C   UNL     1      -9.860  16.574  66.725  1.00  0.00    -0.266 A  
HETATM   29  N   UNL     1     -10.868  16.390  67.583  1.00  0.00    -0.312 NA 
HETATM   30  C   UNL     1     -10.910  17.207  68.651  1.00  0.00    -0.250 A  
HETATM   31  C   UNL     1      -9.979  18.187  68.908  1.00  0.00    -0.352 A  
HETATM   32  C   UNL     1      -8.972  18.320  67.978  1.00  0.00    -0.290 A  
HETATM   33  N   UNL     1      -8.923  17.519  66.899  1.00  0.00    -0.244 NA 
BRANCH  32  34
HETATM   34  C   UNL     1      -7.879  19.307  68.059  1.00  0.00    -0.333 A  
HETATM   35  C   UNL     1      -7.014  19.395  69.150  1.00  0.00    -0.355 A  
HETATM   36  N   UNL     1      -6.007  20.298  69.279  1.00  0.00    -0.315 NA 
HETATM   37  C   UNL     1      -5.844  21.176  68.262  1.00  0.00    -0.310 A  
HETATM   38  C   UNL     1      -6.640  21.193  67.135  1.00  0.00    -0.424 A  
HETATM   39  C   UNL     1      -7.661  20.250  67.038  1.00  0.00    -0.360 A  
ENDBRANCH  32  34
ENDBRANCH  26  28
ENDBRANCH  21  26
ENDBRANCH  17  19
ENDBRANCH  12  15
ENDBRANCH   8   9
ENDBRANCH   5   8
TORSDOF 7
ENDMDL
MODEL       39
REMARK 921   NORMALIZED FREE ENERGY PREDICTED BY IDOCK:   -6.72 KCAL/MOL
REMARK 922        TOTAL FREE ENERGY PREDICTED BY IDOCK:  -10.61 KCAL/MOL
REMARK 923 INTER-LIGAND FREE ENERGY PREDICTED BY IDOCK:   -9.40 KCAL/MOL
REMARK 924 INTRA-LIGAND FREE ENERGY PREDICTED BY IDOCK:   -1.22 KCAL/MOL
REMARK 927      BINDING AFFINITY PREDICTED BY RF-SCORE:    0.00 PKD
ROOT
HETATM    1  C   UNL     1      -7.591   2.088  62.868  1.00  0.00    -0.053 C  
HETATM    2  N   UNL     1      -8.830   2.284  63.623  1.00  0.00    -0.089 NA 
HETATM    3  C   UNL     1      -8.686   1.802  65.010  1.00  0.00    -0.112 C  
HETATM    4  C   UNL     1      -7.876   2.738  65.937  1.00  0.00    -0.081 C  
HETATM    5  N   UNL     1      -8.357   4.139  65.962  1.00  0.00    -0.108 NA 
HETATM    6  C   UNL     1      -9.238   3.705  63.618  1.00  0.00    -0.113 C  
HETATM    7  C   UNL     1      -8.437   4.625  64.573  1.00  0.00    -0.136 C  
ENDROOT
BRANCH   5   8
HETATM    8  C   UNL     1      -9.652   4.300  66.661  1.00  0.00    -0.201 C  
BRANCH   8   9
HETATM    9  C   UNL     1      -9.779   5.675  67.285  1.00  0.00    -0.147 A  
HETATM   10  C   UNL     1     -10.828   6.516  66.893  1.00  0.00    -0.427 A  
HETATM   11  C   UNL     1     -10.773   7.875  67.184  1.00  0.00    -0.306 A  
HETATM   12  C   UNL     1      -9.674   8.405  67.875  1.00  0.00    -0.189 A  
HETATM   13  C   UNL     1      -8.753   6.181  68.096  1.00  0.00    -0.114 A  
HETATM   14  C   UNL     1      -8.693   7.545  68.385  1.00  0.00    -0.123 A  
BRANCH  12  15
HETATM   15  C   UNL     1      -9.525   9.884  67.888  1.00  0.00    -0.133 C  
HETATM   16  O   UNL     1      -8.669  10.385  68.611  1.00  0.00    -0.124 OA 
HETATM   17  N   UNL     1     -10.362  10.602  67.047  1.00  0.00    -0.220 N  
HETATM   18  H   UNL     1     -11.031  10.102  66.461  1.00  0.00     0.000 HD 
BRANCH  17  19
HETATM   19  C   UNL     1     -10.307  12.009  66.988  1.00  0.00    -0.211 A  
HETATM   20  C   UNL     1     -10.838  12.719  68.058  1.00  0.00    -0.254 A  
HETATM   21  C   UNL     1     -11.057  14.107  67.986  1.00  0.00    -0.267 A  
HETATM   22  C   UNL     1      -9.809  12.693  65.887  1.00  0.00    -0.251 A  
HETATM   23  C   UNL     1     -10.562  14.800  66.862  1.00  0.00    -0.294 A  
HETATM   24  C   UNL     1     -10.711  16.282  66.652  1.00  0.00    -0.197 C  
HETATM   25  C   UNL     1      -9.902  14.085  65.843  1.00  0.00    -0.302 A  
BRANCH  21  26
HETATM   26  N   UNL     1     -11.859  14.729  68.960  1.00  0.00    -0.371 NA 
HETATM   27  H   UNL     1     -12.050  15.719  68.807  1.00  0.00     0.000 HD 
BRANCH  26  28
HETATM   28  C   UNL     1     -12.429  14.175  70.108  1.00  0.00    -0.331 A  
HETATM   29  N   UNL     1     -13.093  15.005  70.917  1.00  0.00    -0.400 NA 
HETATM   30  C   UNL     1     -13.675  14.460  72.000  1.00  0.00    -0.442 A  
HETATM   31  C   UNL     1     -13.636  13.117  72.301  1.00  0.00    -0.677 A  
HETATM   32  C   UNL     1     -12.931  12.324  71.424  1.00  0.00    -0.256 A  
HETATM   33  N   UNL     1     -12.333  12.857  70.343  1.00  0.00    -0.299 NA 
BRANCH  32  34
HETATM   34  C   UNL     1     -12.762  10.865  71.561  1.00  0.00    -0.533 A  
HETATM   35  C   UNL     1     -13.529  10.089  72.431  1.00  0.00    -0.135 A  
HETATM   36  N   UNL     1     -13.398   8.749  72.606  1.00  0.00    -0.358 NA 
HETATM   37  C   UNL     1     -12.442   8.131  71.874  1.00  0.00    -0.332 A  
HETATM   38  C   UNL     1     -11.616   8.790  70.986  1.00  0.00    -0.337 A  
HETATM   39  C   UNL     1     -11.782  10.165  70.832  1.00  0.00    -0.468 A  
ENDBRANCH  32  34
ENDBRANCH  26  28
ENDBRANCH  21  26
ENDBRANCH  17  19
ENDBRANCH  12  15
ENDBRANCH   8   9
ENDBRANCH   5   8
TORSDOF 7
ENDMDL
MODEL       40
REMARK 921   NORMALIZED FREE ENERGY PREDICTED BY IDOCK:   -6.67 KCAL/MOL
REMARK 922        TOTAL FREE ENERGY PREDICTED BY IDOCK:  -10.55 KCAL/MOL
REMARK 923 INTER-LIGAND FREE ENERGY PREDICTED BY IDOCK:   -9.77 KCAL/MOL
REMARK 924 INTRA-LIGAND FREE ENERGY PREDICTED BY IDOCK:   -0.78 KCAL/MOL
REMARK 927      BINDING AFFINITY PREDICTED BY RF-SCORE:    0.00 PKD
ROOT
HETATM    1  C   UNL     1      -7.101  20.748  67.010  1.00  0.00    -0.323 C  
HETATM    2  N   UNL     1      -8.156  19.964  66.367  1.00  0.00    -0.324 NA 
HETATM    3  C   UNL     1      -7.855  18.520  66.430  1.00  0.00    -0.271 C  
HETATM    4  C   UNL     1      -8.099  17.871  67.812  1.00  0.00    -0.231 C  
HETATM    5  N   UNL     1      -9.454  18.104  68.366  1.00  0.00    -0.307 NA 
HETATM    6  C   UNL     1      -9.472  20.235  66.982  1.00  0.00    -0.412 C  
HETATM    7  C   UNL     1      -9.715  19.554  68.353  1.00  0.00    -0.410 C  
ENDROOT
BRANCH   5   8
HETATM    8  C   UNL     1     -10.515  17.363  67.648  1.00  0.00    -0.368 C  
BRANCH   8   9
HETATM    9  C   UNL     1     -10.161  15.898  67.491  1.00  0.00    -0.269 A  
HETATM   10  C   UNL     1     -10.053  15.349  66.207  1.00  0.00    -0.309 A  
HETATM   11  C   UNL     1     -10.070  13.968  66.040  1.00  0.00    -0.327 A  
HETATM   12  C   UNL     1     -10.188  13.124  67.152  1.00  0.00    -0.244 A  
HETATM   13  C   UNL     1     -10.138  15.053  68.608  1.00  0.00    -0.233 A  
HETATM   14  C   UNL     1     -10.160  13.667  68.443  1.00  0.00    -0.241 A  
BRANCH  12  15
HETATM   15  C   UNL     1     -10.505  11.694  66.893  1.00  0.00    -0.227 C  
HETATM   16  O   UNL     1     -11.554  11.417  66.320  1.00  0.00    -0.331 OA 
HETATM   17  N   UNL     1      -9.562  10.763  67.302  1.00  0.00    -0.159 N  
HETATM   18  H   UNL     1      -8.704  11.084  67.750  1.00  0.00     0.000 HD 
BRANCH  17  19
HETATM   19  C   UNL     1      -9.767   9.382  67.110  1.00  0.00    -0.173 A  
HETATM   20  C   UNL     1     -10.682   8.747  67.940  1.00  0.00    -0.171 A  
HETATM   21  C   UNL     1     -10.775   7.344  67.999  1.00  0.00    -0.127 A  
HETATM   22  C   UNL     1      -9.049   8.640  66.181  1.00  0.00    -0.250 A  
HETATM   23  C   UNL     1     -10.037   6.590  67.062  1.00  0.00    -0.236 A  
HETATM   24  C   UNL     1     -10.044   5.087  66.997  1.00  0.00    -0.251 C  
HETATM   25  C   UNL     1      -9.213   7.256  66.132  1.00  0.00    -0.136 A  
BRANCH  21  26
HETATM   26  N   UNL     1     -11.491   6.744  69.050  1.00  0.00    -0.582 NA 
HETATM   27  H   UNL     1     -12.258   6.133  68.770  1.00  0.00     0.000 HD 
BRANCH  26  28
HETATM   28  C   UNL     1     -11.293   6.871  70.427  1.00  0.00    -0.328 A  
HETATM   29  N   UNL     1     -11.592   8.052  70.976  1.00  0.00    -0.284 NA 
HETATM   30  C   UNL     1     -11.439   8.157  72.309  1.00  0.00    -0.371 A  
HETATM   31  C   UNL     1     -11.017   7.126  73.118  1.00  0.00    -0.344 A  
HETATM   32  C   UNL     1     -10.724   5.942  72.481  1.00  0.00    -0.234 A  
HETATM   33  N   UNL     1     -10.860   5.826  71.148  1.00  0.00    -0.262 NA 
BRANCH  32  34
HETATM   34  C   UNL     1     -10.254   4.719  73.159  1.00  0.00    -0.216 A  
HETATM   35  C   UNL     1      -8.917   4.501  73.494  1.00  0.00    -0.100 A  
HETATM   36  N   UNL     1      -8.434   3.385  74.099  1.00  0.00    -0.084 NA 
HETATM   37  C   UNL     1      -9.331   2.416  74.392  1.00  0.00    -0.081 A  
HETATM   38  C   UNL     1     -10.678   2.511  74.105  1.00  0.00    -0.237 A  
HETATM   39  C   UNL     1     -11.136   3.672  73.485  1.00  0.00    -0.320 A  
ENDBRANCH  32  34
ENDBRANCH  26  28
ENDBRANCH  21  26
ENDBRANCH  17  19
ENDBRANCH  12  15
ENDBRANCH   8   9
ENDBRANCH   5   8
TORSDOF 7
ENDMDL
MODEL       41
REMARK 921   NORMALIZED FREE ENERGY PREDICTED BY IDOCK:   -6.67 KCAL/MOL
REMARK 922        TOTAL FREE ENERGY PREDICTED BY IDOCK:  -10.55 KCAL/MOL
REMARK 923 INTER-LIGAND FREE ENERGY PREDICTED BY IDOCK:   -9.27 KCAL/MOL
REMARK 924 INTRA-LIGAND FREE ENERGY PREDICTED BY IDOCK:   -1.28 KCAL/MOL
REMARK 927      BINDING AFFINITY PREDICTED BY RF-SCORE:    0.00 PKD
ROOT
HETATM    1  C   UNL     1      -9.824   3.034  73.882  1.00  0.00    -0.103 C  
HETATM    2  N   UNL     1      -9.052   2.640  72.702  1.00  0.00    -0.078 NA 
HETATM    3  C   UNL     1      -9.547   3.327  71.493  1.00  0.00    -0.164 C  
HETATM    4  C   UNL     1      -9.125   4.810  71.378  1.00  0.00    -0.135 C  
HETATM    5  N   UNL     1      -7.667   5.042  71.500  1.00  0.00    -0.102 NA 
HETATM    6  C   UNL     1      -7.612   2.916  72.890  1.00  0.00    -0.050 C  
HETATM    7  C   UNL     1      -7.199   4.402  72.742  1.00  0.00    -0.073 C  
ENDROOT
BRANCH   5   8
HETATM    8  C   UNL     1      -6.898   4.562  70.329  1.00  0.00    -0.037 C  
BRANCH   8   9
HETATM    9  C   UNL     1      -6.847   5.606  69.232  1.00  0.00    -0.062 A  
HETATM   10  C   UNL     1      -6.299   6.866  69.504  1.00  0.00    -0.039 A  
HETATM   11  C   UNL     1      -6.546   7.930  68.642  1.00  0.00    -0.057 A  
HETATM   12  C   UNL     1      -7.335   7.744  67.499  1.00  0.00    -0.092 A  
HETATM   13  C   UNL     1      -7.516   5.391  68.019  1.00  0.00    -0.077 A  
HETATM   14  C   UNL     1      -7.769   6.458  67.156  1.00  0.00    -0.100 A  
BRANCH  12  15
HETATM   15  C   UNL     1      -7.811   8.964  66.793  1.00  0.00    -0.097 C  
HETATM   16  O   UNL     1      -7.075   9.945  66.749  1.00  0.00    -0.087 OA 
HETATM   17  N   UNL     1      -9.064   8.892  66.203  1.00  0.00    -0.188 N  
HETATM   18  H   UNL     1      -9.599   8.026  66.268  1.00  0.00     0.000 HD 
BRANCH  17  19
HETATM   19  C   UNL     1      -9.612   9.994  65.515  1.00  0.00    -0.266 A  
HETATM   20  C   UNL     1     -10.293  10.945  66.264  1.00  0.00    -0.306 A  
HETATM   21  C   UNL     1     -11.082  11.938  65.653  1.00  0.00    -0.310 A  
HETATM   22  C   UNL     1      -9.550  10.120  64.134  1.00  0.00    -0.336 A  
HETATM   23  C   UNL     1     -11.028  12.058  64.249  1.00  0.00    -0.401 A  
HETATM   24  C   UNL     1     -11.805  13.076  63.459  1.00  0.00    -0.582 C  
HETATM   25  C   UNL     1     -10.223  11.170  63.508  1.00  0.00    -0.446 A  
BRANCH  21  26
HETATM   26  N   UNL     1     -11.979  12.684  66.438  1.00  0.00    -0.540 NA 
HETATM   27  H   UNL     1     -12.711  13.175  65.925  1.00  0.00     0.000 HD 
BRANCH  26  28
HETATM   28  C   UNL     1     -12.003  12.844  67.826  1.00  0.00    -0.283 A  
HETATM   29  N   UNL     1     -12.079  14.094  68.291  1.00  0.00    -0.317 NA 
HETATM   30  C   UNL     1     -12.144  14.241  69.626  1.00  0.00    -0.346 A  
HETATM   31  C   UNL     1     -12.154  13.190  70.517  1.00  0.00    -0.385 A  
HETATM   32  C   UNL     1     -12.070  11.932  69.964  1.00  0.00    -0.291 A  
HETATM   33  N   UNL     1     -11.991  11.771  68.631  1.00  0.00    -0.417 NA 
BRANCH  32  34
HETATM   34  C   UNL     1     -12.061  10.676  70.736  1.00  0.00    -0.474 A  
HETATM   35  C   UNL     1     -13.150  10.239  71.490  1.00  0.00    -0.433 A  
HETATM   36  N   UNL     1     -13.183   9.101  72.232  1.00  0.00    -0.439 NA 
HETATM   37  C   UNL     1     -12.062   8.343  72.231  1.00  0.00    -0.392 A  
HETATM   38  C   UNL     1     -10.919   8.673  71.531  1.00  0.00    -0.360 A  
HETATM   39  C   UNL     1     -10.925   9.847  70.780  1.00  0.00    -0.407 A  
ENDBRANCH  32  34
ENDBRANCH  26  28
ENDBRANCH  21  26
ENDBRANCH  17  19
ENDBRANCH  12  15
ENDBRANCH   8   9
ENDBRANCH   5   8
TORSDOF 7
ENDMDL
MODEL       42
REMARK 921   NORMALIZED FREE ENERGY PREDICTED BY IDOCK:   -6.65 KCAL/MOL
REMARK 922        TOTAL FREE ENERGY PREDICTED BY IDOCK:  -10.52 KCAL/MOL
REMARK 923 INTER-LIGAND FREE ENERGY PREDICTED BY IDOCK:   -9.48 KCAL/MOL
REMARK 924 INTRA-LIGAND FREE ENERGY PREDICTED BY IDOCK:   -1.04 KCAL/MOL
REMARK 927      BINDING AFFINITY PREDICTED BY RF-SCORE:    0.00 PKD
ROOT
HETATM    1  C   UNL     1      -7.651  19.183  66.106  1.00  0.00    -0.280 C  
HETATM    2  N   UNL     1      -8.712  19.345  67.101  1.00  0.00    -0.287 NA 
HETATM    3  C   UNL     1     -10.013  18.903  66.563  1.00  0.00    -0.384 C  
HETATM    4  C   UNL     1     -10.196  17.370  66.495  1.00  0.00    -0.329 C  
HETATM    5  N   UNL     1      -9.941  16.666  67.774  1.00  0.00    -0.256 NA 
HETATM    6  C   UNL     1      -8.397  18.604  68.341  1.00  0.00    -0.334 C  
HETATM    7  C   UNL     1      -8.612  17.071  68.268  1.00  0.00    -0.234 C  
ENDROOT
BRANCH   5   8
HETATM    8  C   UNL     1     -10.987  16.909  68.794  1.00  0.00    -0.234 C  
BRANCH   8   9
HETATM    9  C   UNL     1     -11.664  15.621  69.213  1.00  0.00    -0.388 A  
HETATM   10  C   UNL     1     -12.345  15.566  70.436  1.00  0.00    -0.451 A  
HETATM   11  C   UNL     1     -12.672  14.333  70.993  1.00  0.00    -0.430 A  
HETATM   12  C   UNL     1     -12.329  13.147  70.331  1.00  0.00    -0.351 A  
HETATM   13  C   UNL     1     -11.448  14.440  68.489  1.00  0.00    -0.326 A  
HETATM   14  C   UNL     1     -11.771  13.203  69.048  1.00  0.00    -0.367 A  
BRANCH  12  15
HETATM   15  C   UNL     1     -12.427  11.881  71.105  1.00  0.00    -0.261 C  
HETATM   16  O   UNL     1     -13.180  11.839  72.074  1.00  0.00    -0.506 OA 
HETATM   17  N   UNL     1     -11.668  10.813  70.652  1.00  0.00    -0.342 N  
HETATM   18  H   UNL     1     -11.087  10.929  69.822  1.00  0.00     0.000 HD 
BRANCH  17  19
HETATM   19  C   UNL     1     -11.683   9.570  71.317  1.00  0.00    -0.370 A  
HETATM   20  C   UNL     1     -10.473   9.080  71.792  1.00  0.00    -0.418 A  
HETATM   21  C   UNL     1     -10.339   7.754  72.241  1.00  0.00    -0.237 A  
HETATM   22  C   UNL     1     -12.835   8.807  71.451  1.00  0.00    -0.319 A  
HETATM   23  C   UNL     1     -11.509   6.974  72.366  1.00  0.00    -0.300 A  
HETATM   24  C   UNL     1     -11.523   5.547  72.842  1.00  0.00    -0.327 C  
HETATM   25  C   UNL     1     -12.753   7.530  72.009  1.00  0.00    -0.246 A  
BRANCH  21  26
HETATM   26  N   UNL     1      -9.053   7.216  72.429  1.00  0.00    -0.131 NA 
HETATM   27  H   UNL     1      -8.622   7.412  73.333  1.00  0.00     0.000 HD 
BRANCH  26  28
HETATM   28  C   UNL     1      -8.287   6.451  71.547  1.00  0.00    -0.125 A  
HETATM   29  N   UNL     1      -7.162   5.915  72.030  1.00  0.00    -0.090 NA 
HETATM   30  C   UNL     1      -6.449   5.145  71.188  1.00  0.00    -0.031 A  
HETATM   31  C   UNL     1      -6.820   4.874  69.891  1.00  0.00    -0.048 A  
HETATM   32  C   UNL     1      -7.988   5.465  69.463  1.00  0.00    -0.089 A  
HETATM   33  N   UNL     1      -8.705   6.247  70.289  1.00  0.00    -0.141 NA 
BRANCH  32  34
HETATM   34  C   UNL     1      -8.561   5.309  68.113  1.00  0.00    -0.099 A  
HETATM   35  C   UNL     1      -9.934   5.316  67.864  1.00  0.00    -0.160 A  
HETATM   36  N   UNL     1     -10.509   5.157  66.644  1.00  0.00    -0.279 NA 
HETATM   37  C   UNL     1      -9.671   4.977  65.597  1.00  0.00    -0.106 A  
HETATM   38  C   UNL     1      -8.297   4.944  65.716  1.00  0.00    -0.115 A  
HETATM   39  C   UNL     1      -7.744   5.113  66.984  1.00  0.00    -0.092 A  
ENDBRANCH  32  34
ENDBRANCH  26  28
ENDBRANCH  21  26
ENDBRANCH  17  19
ENDBRANCH  12  15
ENDBRANCH   8   9
ENDBRANCH   5   8
TORSDOF 7
ENDMDL
MODEL       43
REMARK 921   NORMALIZED FREE ENERGY PREDICTED BY IDOCK:   -6.64 KCAL/MOL
REMARK 922        TOTAL FREE ENERGY PREDICTED BY IDOCK:  -10.51 KCAL/MOL
REMARK 923 INTER-LIGAND FREE ENERGY PREDICTED BY IDOCK:   -9.73 KCAL/MOL
REMARK 924 INTRA-LIGAND FREE ENERGY PREDICTED BY IDOCK:   -0.78 KCAL/MOL
REMARK 927      BINDING AFFINITY PREDICTED BY RF-SCORE:    0.00 PKD
ROOT
HETATM    1  C   UNL     1      -5.990   2.484  74.298  1.00  0.00    -0.004 C  
HETATM    2  N   UNL     1      -7.452   2.431  74.248  1.00  0.00    -0.040 NA 
HETATM    3  C   UNL     1      -8.031   3.789  74.268  1.00  0.00    -0.078 C  
HETATM    4  C   UNL     1      -7.929   4.552  72.927  1.00  0.00    -0.092 C  
HETATM    5  N   UNL     1      -8.471   3.815  71.761  1.00  0.00    -0.087 NA 
HETATM    6  C   UNL     1      -7.918   1.697  73.053  1.00  0.00    -0.047 C  
HETATM    7  C   UNL     1      -7.838   2.484  71.721  1.00  0.00    -0.048 C  
ENDROOT
BRANCH   5   8
HETATM    8  C   UNL     1      -9.947   3.705  71.774  1.00  0.00    -0.140 C  
BRANCH   8   9
HETATM    9  C   UNL     1     -10.606   5.028  71.443  1.00  0.00    -0.161 A  
HETATM   10  C   UNL     1     -10.248   5.702  70.269  1.00  0.00    -0.311 A  
HETATM   11  C   UNL     1     -10.571   7.047  70.116  1.00  0.00    -0.249 A  
HETATM   12  C   UNL     1     -11.260   7.727  71.129  1.00  0.00    -0.285 A  
HETATM   13  C   UNL     1     -11.415   5.671  72.391  1.00  0.00    -0.309 A  
HETATM   14  C   UNL     1     -11.736   7.022  72.241  1.00  0.00    -0.294 A  
BRANCH  12  15
HETATM   15  C   UNL     1     -11.307   9.212  71.045  1.00  0.00    -0.309 C  
HETATM   16  O   UNL     1     -10.258   9.826  70.870  1.00  0.00    -0.271 OA 
HETATM   17  N   UNL     1     -12.557   9.802  71.145  1.00  0.00    -0.332 N  
HETATM   18  H   UNL     1     -13.381   9.213  71.266  1.00  0.00     0.000 HD 
BRANCH  17  19
HETATM   19  C   UNL     1     -12.712  11.202  71.084  1.00  0.00    -0.408 A  
HETATM   20  C   UNL     1     -11.969  11.890  70.133  1.00  0.00    -0.413 A  
HETATM   21  C   UNL     1     -11.862  13.293  70.155  1.00  0.00    -0.263 A  
HETATM   22  C   UNL     1     -13.516  11.905  71.971  1.00  0.00    -0.336 A  
HETATM   23  C   UNL     1     -12.670  14.007  71.064  1.00  0.00    -0.431 A  
HETATM   24  C   UNL     1     -12.672  15.506  71.194  1.00  0.00    -0.525 C  
HETATM   25  C   UNL     1     -13.524  13.300  71.934  1.00  0.00    -0.525 A  
BRANCH  21  26
HETATM   26  N   UNL     1     -10.877  13.920  69.370  1.00  0.00    -0.426 NA 
HETATM   27  H   UNL     1     -10.101  14.335  69.885  1.00  0.00     0.000 HD 
BRANCH  26  28
HETATM   28  C   UNL     1     -10.819  14.053  67.981  1.00  0.00    -0.246 A  
HETATM   29  N   UNL     1     -11.109  15.255  67.474  1.00  0.00    -0.320 NA 
HETATM   30  C   UNL     1     -11.012  15.388  66.139  1.00  0.00    -0.279 A  
HETATM   31  C   UNL     1     -10.619  14.377  65.290  1.00  0.00    -0.398 A  
HETATM   32  C   UNL     1     -10.340  13.167  65.885  1.00  0.00    -0.290 A  
HETATM   33  N   UNL     1     -10.446  13.015  67.217  1.00  0.00    -0.238 NA 
BRANCH  32  34
HETATM   34  C   UNL     1      -9.909  11.957  65.161  1.00  0.00    -0.243 A  
HETATM   35  C   UNL     1      -9.823  11.892  63.770  1.00  0.00    -0.285 A  
HETATM   36  N   UNL     1      -9.450  10.797  63.059  1.00  0.00    -0.315 NA 
HETATM   37  C   UNL     1      -9.143   9.687  63.769  1.00  0.00    -0.178 A  
HETATM   38  C   UNL     1      -9.197   9.624  65.147  1.00  0.00    -0.305 A  
HETATM   39  C   UNL     1      -9.582  10.769  65.842  1.00  0.00    -0.252 A  
ENDBRANCH  32  34
ENDBRANCH  26  28
ENDBRANCH  21  26
ENDBRANCH  17  19
ENDBRANCH  12  15
ENDBRANCH   8   9
ENDBRANCH   5   8
TORSDOF 7
ENDMDL
MODEL       44
REMARK 921   NORMALIZED FREE ENERGY PREDICTED BY IDOCK:   -6.62 KCAL/MOL
REMARK 922        TOTAL FREE ENERGY PREDICTED BY IDOCK:  -10.48 KCAL/MOL
REMARK 923 INTER-LIGAND FREE ENERGY PREDICTED BY IDOCK:   -9.43 KCAL/MOL
REMARK 924 INTRA-LIGAND FREE ENERGY PREDICTED BY IDOCK:   -1.05 KCAL/MOL
REMARK 927      BINDING AFFINITY PREDICTED BY RF-SCORE:    0.00 PKD
ROOT
HETATM    1  C   UNL     1     -10.666   3.693  73.392  1.00  0.00    -0.209 C  
HETATM    2  N   UNL     1      -9.368   4.017  72.796  1.00  0.00    -0.118 NA 
HETATM    3  C   UNL     1      -8.909   2.933  71.907  1.00  0.00    -0.075 C  
HETATM    4  C   UNL     1      -9.620   2.880  70.535  1.00  0.00    -0.102 C  
HETATM    5  N   UNL     1      -9.597   4.159  69.785  1.00  0.00    -0.200 NA 
HETATM    6  C   UNL     1      -9.427   5.294  72.053  1.00  0.00    -0.145 C  
HETATM    7  C   UNL     1     -10.116   5.220  70.667  1.00  0.00    -0.239 C  
ENDROOT
BRANCH   5   8
HETATM    8  C   UNL     1      -8.257   4.506  69.261  1.00  0.00    -0.068 C  
BRANCH   8   9
HETATM    9  C   UNL     1      -8.345   5.522  68.140  1.00  0.00    -0.099 A  
HETATM   10  C   UNL     1      -7.291   6.422  67.942  1.00  0.00    -0.089 A  
HETATM   11  C   UNL     1      -7.488   7.559  67.164  1.00  0.00    -0.099 A  
HETATM   12  C   UNL     1      -8.735   7.803  66.573  1.00  0.00    -0.162 A  
HETATM   13  C   UNL     1      -9.544   5.695  67.435  1.00  0.00    -0.123 A  
HETATM   14  C   UNL     1      -9.746   6.837  66.659  1.00  0.00    -0.213 A  
BRANCH  12  15
HETATM   15  C   UNL     1      -8.973   9.162  66.018  1.00  0.00    -0.181 C  
HETATM   16  O   UNL     1      -8.021   9.929  65.906  1.00  0.00    -0.109 OA 
HETATM   17  N   UNL     1     -10.272   9.460  65.637  1.00  0.00    -0.270 N  
HETATM   18  H   UNL     1     -11.000   8.753  65.743  1.00  0.00     0.000 HD 
BRANCH  17  19
HETATM   19  C   UNL     1     -10.607  10.722  65.106  1.00  0.00    -0.169 A  
HETATM   20  C   UNL     1     -10.982  11.717  66.000  1.00  0.00    -0.355 A  
HETATM   21  C   UNL     1     -11.569  12.919  65.563  1.00  0.00    -0.358 A  
HETATM   22  C   UNL     1     -10.637  10.976  63.742  1.00  0.00    -0.365 A  
HETATM   23  C   UNL     1     -11.609  13.171  64.176  1.00  0.00    -0.460 A  
HETATM   24  C   UNL     1     -12.195  14.414  63.562  1.00  0.00     0.335 C  
HETATM   25  C   UNL     1     -11.100  12.210  63.282  1.00  0.00    -0.408 A  
BRANCH  21  26
HETATM   26  N   UNL     1     -12.198  13.759  66.499  1.00  0.00    -0.441 NA 
HETATM   27  H   UNL     1     -13.218  13.742  66.492  1.00  0.00     0.000 HD 
BRANCH  26  28
HETATM   28  C   UNL     1     -11.615  14.613  67.439  1.00  0.00    -0.389 A  
HETATM   29  N   UNL     1     -10.742  15.514  66.980  1.00  0.00    -0.319 NA 
HETATM   30  C   UNL     1     -10.214  16.361  67.882  1.00  0.00    -0.268 A  
HETATM   31  C   UNL     1     -10.536  16.357  69.221  1.00  0.00    -0.303 A  
HETATM   32  C   UNL     1     -11.439  15.399  69.620  1.00  0.00    -0.320 A  
HETATM   33  N   UNL     1     -11.965  14.537  68.732  1.00  0.00    -0.304 NA 
BRANCH  32  34
HETATM   34  C   UNL     1     -11.915  15.219  71.005  1.00  0.00    -0.395 A  
HETATM   35  C   UNL     1     -12.609  14.086  71.430  1.00  0.00    -0.372 A  
HETATM   36  N   UNL     1     -13.084  13.885  72.686  1.00  0.00    -0.454 NA 
HETATM   37  C   UNL     1     -12.859  14.870  73.586  1.00  0.00    -0.385 A  
HETATM   38  C   UNL     1     -12.191  16.040  73.285  1.00  0.00    -0.632 A  
HETATM   39  C   UNL     1     -11.717  16.209  71.985  1.00  0.00    -0.574 A  
ENDBRANCH  32  34
ENDBRANCH  26  28
ENDBRANCH  21  26
ENDBRANCH  17  19
ENDBRANCH  12  15
ENDBRANCH   8   9
ENDBRANCH   5   8
TORSDOF 7
ENDMDL
MODEL       45
REMARK 921   NORMALIZED FREE ENERGY PREDICTED BY IDOCK:   -6.60 KCAL/MOL
REMARK 922        TOTAL FREE ENERGY PREDICTED BY IDOCK:  -10.46 KCAL/MOL
REMARK 923 INTER-LIGAND FREE ENERGY PREDICTED BY IDOCK:   -9.30 KCAL/MOL
REMARK 924 INTRA-LIGAND FREE ENERGY PREDICTED BY IDOCK:   -1.15 KCAL/MOL
REMARK 927      BINDING AFFINITY PREDICTED BY RF-SCORE:    0.00 PKD
ROOT
HETATM    1  C   UNL     1      -9.026  20.336  67.022  1.00  0.00    -0.339 C  
HETATM    2  N   UNL     1     -10.257  19.652  67.420  1.00  0.00    -0.403 NA 
HETATM    3  C   UNL     1     -10.720  18.736  66.359  1.00  0.00    -0.257 C  
HETATM    4  C   UNL     1      -9.922  17.416  66.253  1.00  0.00    -0.297 C  
HETATM    5  N   UNL     1      -9.815  16.663  67.525  1.00  0.00    -0.249 NA 
HETATM    6  C   UNL     1     -10.070  18.910  68.685  1.00  0.00    -0.388 C  
HETATM    7  C   UNL     1      -9.295  17.575  68.560  1.00  0.00    -0.286 C  
ENDROOT
BRANCH   5   8
HETATM    8  C   UNL     1     -11.093  16.047  67.949  1.00  0.00    -0.307 C  
BRANCH   8   9
HETATM    9  C   UNL     1     -11.123  14.564  67.645  1.00  0.00    -0.314 A  
HETATM   10  C   UNL     1     -10.113  13.736  68.151  1.00  0.00    -0.245 A  
HETATM   11  C   UNL     1      -9.927  12.464  67.618  1.00  0.00    -0.200 A  
HETATM   12  C   UNL     1     -10.750  12.006  66.580  1.00  0.00    -0.280 A  
HETATM   13  C   UNL     1     -12.031  14.052  66.708  1.00  0.00    -0.473 A  
HETATM   14  C   UNL     1     -11.843  12.779  66.168  1.00  0.00    -0.484 A  
BRANCH  12  15
HETATM   15  C   UNL     1     -10.316  10.783  65.854  1.00  0.00    -0.238 C  
HETATM   16  O   UNL     1     -10.616  10.662  64.670  1.00  0.00    -0.296 OA 
HETATM   17  N   UNL     1      -9.567   9.864  66.573  1.00  0.00    -0.180 N  
HETATM   18  H   UNL     1      -9.342  10.057  67.549  1.00  0.00     0.000 HD 
BRANCH  17  19
HETATM   19  C   UNL     1      -9.111   8.669  65.982  1.00  0.00    -0.204 A  
HETATM   20  C   UNL     1      -9.787   7.497  66.298  1.00  0.00    -0.059 A  
HETATM   21  C   UNL     1      -9.267   6.233  65.965  1.00  0.00    -0.078 A  
HETATM   22  C   UNL     1      -7.991   8.618  65.163  1.00  0.00    -0.127 A  
HETATM   23  C   UNL     1      -8.122   6.182  65.142  1.00  0.00    -0.133 A  
HETATM   24  C   UNL     1      -7.461   4.906  64.696  1.00  0.00    -0.072 C  
HETATM   25  C   UNL     1      -7.523   7.383  64.714  1.00  0.00    -0.088 A  
BRANCH  21  26
HETATM   26  N   UNL     1      -9.821   5.083  66.555  1.00  0.00    -0.177 NA 
HETATM   27  H   UNL     1     -10.256   4.422  65.910  1.00  0.00     0.000 HD 
BRANCH  26  28
HETATM   28  C   UNL     1      -9.857   4.722  67.904  1.00  0.00    -0.134 A  
HETATM   29  N   UNL     1      -9.367   3.520  68.223  1.00  0.00    -0.177 NA 
HETATM   30  C   UNL     1      -9.366   3.194  69.528  1.00  0.00    -0.158 A  
HETATM   31  C   UNL     1      -9.818   4.024  70.529  1.00  0.00    -0.214 A  
HETATM   32  C   UNL     1     -10.312   5.243  70.124  1.00  0.00    -0.284 A  
HETATM   33  N   UNL     1     -10.331   5.579  68.821  1.00  0.00    -0.205 NA 
BRANCH  32  34
HETATM   34  C   UNL     1     -10.847   6.275  71.031  1.00  0.00    -0.326 A  
HETATM   35  C   UNL     1     -12.123   6.823  70.892  1.00  0.00    -0.367 A  
HETATM   36  N   UNL     1     -12.652   7.787  71.688  1.00  0.00    -0.324 NA 
HETATM   37  C   UNL     1     -11.867   8.245  72.691  1.00  0.00    -0.315 A  
HETATM   38  C   UNL     1     -10.586   7.788  72.926  1.00  0.00    -0.428 A  
HETATM   39  C   UNL     1     -10.079   6.797  72.089  1.00  0.00    -0.198 A  
ENDBRANCH  32  34
ENDBRANCH  26  28
ENDBRANCH  21  26
ENDBRANCH  17  19
ENDBRANCH  12  15
ENDBRANCH   8   9
ENDBRANCH   5   8
TORSDOF 7
ENDMDL
MODEL       46
REMARK 921   NORMALIZED FREE ENERGY PREDICTED BY IDOCK:   -6.59 KCAL/MOL
REMARK 922        TOTAL FREE ENERGY PREDICTED BY IDOCK:  -10.44 KCAL/MOL
REMARK 923 INTER-LIGAND FREE ENERGY PREDICTED BY IDOCK:   -9.97 KCAL/MOL
REMARK 924 INTRA-LIGAND FREE ENERGY PREDICTED BY IDOCK:   -0.47 KCAL/MOL
REMARK 927      BINDING AFFINITY PREDICTED BY RF-SCORE:    0.00 PKD
ROOT
HETATM    1  C   UNL     1      -5.125   2.731  68.235  1.00  0.00    -0.012 C  
HETATM    2  N   UNL     1      -6.315   3.180  67.510  1.00  0.00    -0.035 NA 
HETATM    3  C   UNL     1      -7.546   2.676  68.149  1.00  0.00    -0.055 C  
HETATM    4  C   UNL     1      -7.951   3.419  69.443  1.00  0.00    -0.049 C  
HETATM    5  N   UNL     1      -8.054   4.890  69.296  1.00  0.00    -0.078 NA 
HETATM    6  C   UNL     1      -6.358   4.655  67.418  1.00  0.00    -0.041 C  
HETATM    7  C   UNL     1      -6.794   5.386  68.713  1.00  0.00    -0.055 C  
ENDROOT
BRANCH   5   8
HETATM    8  C   UNL     1      -9.220   5.317  68.490  1.00  0.00    -0.113 C  
BRANCH   8   9
HETATM    9  C   UNL     1      -9.499   6.797  68.658  1.00  0.00    -0.132 A  
HETATM   10  C   UNL     1      -9.652   7.329  69.944  1.00  0.00    -0.163 A  
HETATM   11  C   UNL     1     -10.235   8.581  70.113  1.00  0.00    -0.202 A  
HETATM   12  C   UNL     1     -10.664   9.315  68.999  1.00  0.00    -0.189 A  
HETATM   13  C   UNL     1      -9.799   7.591  67.542  1.00  0.00    -0.209 A  
HETATM   14  C   UNL     1     -10.389   8.845  67.708  1.00  0.00    -0.301 A  
BRANCH  12  15
HETATM   15  C   UNL     1     -11.543  10.488  69.251  1.00  0.00    -0.236 C  
HETATM   16  O   UNL     1     -12.223  10.925  68.328  1.00  0.00    -0.526 OA 
HETATM   17  N   UNL     1     -11.550  10.994  70.542  1.00  0.00    -0.422 N  
HETATM   18  H   UNL     1     -10.970  10.553  71.256  1.00  0.00     0.000 HD 
BRANCH  17  19
HETATM   19  C   UNL     1     -12.342  12.108  70.886  1.00  0.00    -0.273 A  
HETATM   20  C   UNL     1     -12.165  13.275  70.153  1.00  0.00    -0.376 A  
HETATM   21  C   UNL     1     -12.717  14.500  70.571  1.00  0.00    -0.345 A  
HETATM   22  C   UNL     1     -13.228  12.095  71.955  1.00  0.00    -0.474 A  
HETATM   23  C   UNL     1     -13.608  14.487  71.665  1.00  0.00    -0.469 A  
HETATM   24  C   UNL     1     -14.282  15.714  72.217  1.00  0.00    -0.538 C  
HETATM   25  C   UNL     1     -13.887  13.270  72.317  1.00  0.00    -0.637 A  
BRANCH  21  26
HETATM   26  N   UNL     1     -12.274  15.694  69.975  1.00  0.00    -0.403 NA 
HETATM   27  H   UNL     1     -12.495  16.550  70.485  1.00  0.00     0.000 HD 
BRANCH  26  28
HETATM   28  C   UNL     1     -11.571  15.867  68.781  1.00  0.00    -0.386 A  
HETATM   29  N   UNL     1     -11.902  15.070  67.761  1.00  0.00    -0.287 NA 
HETATM   30  C   UNL     1     -11.250  15.268  66.601  1.00  0.00    -0.232 A  
HETATM   31  C   UNL     1     -10.295  16.241  66.411  1.00  0.00    -0.319 A  
HETATM   32  C   UNL     1     -10.004  17.021  67.507  1.00  0.00    -0.274 A  
HETATM   33  N   UNL     1     -10.638  16.826  68.677  1.00  0.00    -0.332 NA 
BRANCH  32  34
HETATM   34  C   UNL     1      -9.013  18.113  67.520  1.00  0.00    -0.257 A  
HETATM   35  C   UNL     1      -8.408  18.577  68.689  1.00  0.00    -0.304 A  
HETATM   36  N   UNL     1      -7.506  19.591  68.754  1.00  0.00    -0.349 NA 
HETATM   37  C   UNL     1      -7.180  20.190  67.585  1.00  0.00    -0.290 A  
HETATM   38  C   UNL     1      -7.716  19.826  66.366  1.00  0.00    -0.318 A  
HETATM   39  C   UNL     1      -8.637  18.780  66.340  1.00  0.00    -0.294 A  
ENDBRANCH  32  34
ENDBRANCH  26  28
ENDBRANCH  21  26
ENDBRANCH  17  19
ENDBRANCH  12  15
ENDBRANCH   8   9
ENDBRANCH   5   8
TORSDOF 7
ENDMDL
MODEL       47
REMARK 921   NORMALIZED FREE ENERGY PREDICTED BY IDOCK:   -6.53 KCAL/MOL
REMARK 922        TOTAL FREE ENERGY PREDICTED BY IDOCK:  -10.35 KCAL/MOL
REMARK 923 INTER-LIGAND FREE ENERGY PREDICTED BY IDOCK:   -9.10 KCAL/MOL
REMARK 924 INTRA-LIGAND FREE ENERGY PREDICTED BY IDOCK:   -1.25 KCAL/MOL
REMARK 927      BINDING AFFINITY PREDICTED BY RF-SCORE:    0.00 PKD
ROOT
HETATM    1  C   UNL     1      -9.666  16.583  66.701  1.00  0.00    -0.260 C  
HETATM    2  N   UNL     1     -10.899  15.959  67.183  1.00  0.00    -0.302 NA 
HETATM    3  C   UNL     1     -11.190  14.718  66.438  1.00  0.00    -0.342 C  
HETATM    4  C   UNL     1     -10.319  13.506  66.841  1.00  0.00    -0.265 C  
HETATM    5  N   UNL     1     -10.322  13.206  68.293  1.00  0.00    -0.247 NA 
HETATM    6  C   UNL     1     -10.821  15.675  68.632  1.00  0.00    -0.273 C  
HETATM    7  C   UNL     1      -9.970  14.440  69.019  1.00  0.00    -0.129 C  
ENDROOT
BRANCH   5   8
HETATM    8  C   UNL     1     -11.607  12.651  68.773  1.00  0.00    -0.313 C  
BRANCH   8   9
HETATM    9  C   UNL     1     -11.390  11.492  69.724  1.00  0.00    -0.303 A  
HETATM   10  C   UNL     1     -10.304  10.631  69.526  1.00  0.00    -0.214 A  
HETATM   11  C   UNL     1     -10.278   9.391  70.158  1.00  0.00    -0.271 A  
HETATM   12  C   UNL     1     -11.331   9.005  70.998  1.00  0.00    -0.362 A  
HETATM   13  C   UNL     1     -12.370  11.163  70.672  1.00  0.00    -0.482 A  
HETATM   14  C   UNL     1     -12.348   9.918  71.303  1.00  0.00    -0.478 A  
BRANCH  12  15
HETATM   15  C   UNL     1     -11.397   7.573  71.395  1.00  0.00    -0.258 C  
HETATM   16  O   UNL     1     -12.429   6.947  71.175  1.00  0.00    -0.378 OA 
HETATM   17  N   UNL     1     -10.257   7.033  71.972  1.00  0.00    -0.190 N  
HETATM   18  H   UNL     1      -9.432   7.621  72.096  1.00  0.00     0.000 HD 
BRANCH  17  19
HETATM   19  C   UNL     1     -10.216   5.688  72.390  1.00  0.00    -0.193 A  
HETATM   20  C   UNL     1      -9.573   4.776  71.562  1.00  0.00    -0.220 A  
HETATM   21  C   UNL     1      -9.691   3.388  71.760  1.00  0.00    -0.166 A  
HETATM   22  C   UNL     1     -10.841   5.245  73.548  1.00  0.00    -0.358 A  
HETATM   23  C   UNL     1     -10.337   2.938  72.931  1.00  0.00    -0.240 A  
HETATM   24  C   UNL     1     -10.529   1.488  73.283  1.00  0.00    -0.190 C  
HETATM   25  C   UNL     1     -10.867   3.879  73.835  1.00  0.00    -0.308 A  
BRANCH  21  26
HETATM   26  N   UNL     1      -9.280   2.510  70.743  1.00  0.00    -0.119 NA 
HETATM   27  H   UNL     1      -8.980   1.585  71.053  1.00  0.00     0.000 HD 
BRANCH  26  28
HETATM   28  C   UNL     1      -9.225   2.731  69.364  1.00  0.00    -0.139 A  
HETATM   29  N   UNL     1      -9.127   1.653  68.581  1.00  0.00    -0.118 NA 
HETATM   30  C   UNL     1      -9.116   1.868  67.253  1.00  0.00    -0.119 A  
HETATM   31  C   UNL     1      -9.218   3.113  66.674  1.00  0.00    -0.165 A  
HETATM   32  C   UNL     1      -9.312   4.176  67.545  1.00  0.00    -0.171 A  
HETATM   33  N   UNL     1      -9.311   3.977  68.875  1.00  0.00    -0.153 NA 
BRANCH  32  34
HETATM   34  C   UNL     1      -9.425   5.588  67.135  1.00  0.00    -0.122 A  
HETATM   35  C   UNL     1      -8.441   6.247  66.399  1.00  0.00    -0.125 A  
HETATM   36  N   UNL     1      -8.490   7.549  66.016  1.00  0.00    -0.141 NA 
HETATM   37  C   UNL     1      -9.587   8.250  66.387  1.00  0.00    -0.230 A  
HETATM   38  C   UNL     1     -10.624   7.712  67.122  1.00  0.00    -0.410 A  
HETATM   39  C   UNL     1     -10.537   6.372  67.494  1.00  0.00    -0.350 A  
ENDBRANCH  32  34
ENDBRANCH  26  28
ENDBRANCH  21  26
ENDBRANCH  17  19
ENDBRANCH  12  15
ENDBRANCH   8   9
ENDBRANCH   5   8
TORSDOF 7
ENDMDL
MODEL       48
REMARK 921   NORMALIZED FREE ENERGY PREDICTED BY IDOCK:   -6.51 KCAL/MOL
REMARK 922        TOTAL FREE ENERGY PREDICTED BY IDOCK:  -10.33 KCAL/MOL
REMARK 923 INTER-LIGAND FREE ENERGY PREDICTED BY IDOCK:   -9.48 KCAL/MOL
REMARK 924 INTRA-LIGAND FREE ENERGY PREDICTED BY IDOCK:   -0.85 KCAL/MOL
REMARK 927      BINDING AFFINITY PREDICTED BY RF-SCORE:    0.00 PKD
ROOT
HETATM    1  C   UNL     1      -6.860  20.677  67.764  1.00  0.00    -0.323 C  
HETATM    2  N   UNL     1      -8.163  20.111  67.414  1.00  0.00    -0.331 NA 
HETATM    3  C   UNL     1      -8.159  19.585  66.035  1.00  0.00    -0.291 C  
HETATM    4  C   UNL     1      -7.431  18.232  65.864  1.00  0.00    -0.167 C  
HETATM    5  N   UNL     1      -7.897  17.167  66.782  1.00  0.00    -0.217 NA 
HETATM    6  C   UNL     1      -8.554  19.046  68.362  1.00  0.00    -0.348 C  
HETATM    7  C   UNL     1      -7.839  17.687  68.160  1.00  0.00    -0.257 C  
ENDROOT
BRANCH   5   8
HETATM    8  C   UNL     1      -9.252  16.666  66.457  1.00  0.00    -0.270 C  
BRANCH   8   9
HETATM    9  C   UNL     1      -9.716  15.629  67.460  1.00  0.00    -0.222 A  
HETATM   10  C   UNL     1      -9.018  14.420  67.575  1.00  0.00    -0.192 A  
HETATM   11  C   UNL     1      -9.607  13.338  68.221  1.00  0.00    -0.221 A  
HETATM   12  C   UNL     1     -10.894  13.455  68.763  1.00  0.00    -0.275 A  
HETATM   13  C   UNL     1     -10.941  15.786  68.124  1.00  0.00    -0.330 A  
HETATM   14  C   UNL     1     -11.536  14.700  68.768  1.00  0.00    -0.346 A  
BRANCH  12  15
HETATM   15  C   UNL     1     -11.583  12.199  69.163  1.00  0.00    -0.319 C  
HETATM   16  O   UNL     1     -12.237  11.591  68.321  1.00  0.00    -0.561 OA 
HETATM   17  N   UNL     1     -11.413  11.786  70.475  1.00  0.00    -0.368 N  
HETATM   18  H   UNL     1     -10.831  12.341  71.104  1.00  0.00     0.000 HD 
BRANCH  17  19
HETATM   19  C   UNL     1     -12.027  10.613  70.959  1.00  0.00    -0.339 A  
HETATM   20  C   UNL     1     -11.512   9.395  70.534  1.00  0.00    -0.317 A  
HETATM   21  C   UNL     1     -12.198   8.186  70.754  1.00  0.00    -0.002 A  
HETATM   22  C   UNL     1     -13.149  10.638  71.777  1.00  0.00    -0.571 A  
HETATM   23  C   UNL     1     -13.344   8.214  71.576  1.00  0.00    -0.313 A  
HETATM   24  C   UNL     1     -14.173   7.003  71.908  1.00  0.00    -0.369 C  
HETATM   25  C   UNL     1     -13.780   9.441  72.115  1.00  0.00    -0.490 A  
BRANCH  21  26
HETATM   26  N   UNL     1     -11.799   7.031  70.059  1.00  0.00    -0.600 NA 
HETATM   27  H   UNL     1     -12.260   6.165  70.340  1.00  0.00     0.000 HD 
BRANCH  26  28
HETATM   28  C   UNL     1     -10.856   6.907  69.036  1.00  0.00    -0.212 A  
HETATM   29  N   UNL     1     -11.205   6.172  67.976  1.00  0.00    -0.217 NA 
HETATM   30  C   UNL     1     -10.309   6.090  66.975  1.00  0.00    -0.240 A  
HETATM   31  C   UNL     1      -9.088   6.725  66.981  1.00  0.00    -0.139 A  
HETATM   32  C   UNL     1      -8.797   7.461  68.107  1.00  0.00    -0.127 A  
HETATM   33  N   UNL     1      -9.677   7.542  69.121  1.00  0.00    -0.164 NA 
BRANCH  32  34
HETATM   34  C   UNL     1      -7.546   8.213  68.318  1.00  0.00    -0.102 A  
HETATM   35  C   UNL     1      -7.292   8.959  69.469  1.00  0.00    -0.071 A  
HETATM   36  N   UNL     1      -6.166   9.683  69.700  1.00  0.00    -0.043 NA 
HETATM   37  C   UNL     1      -5.227   9.672  68.726  1.00  0.00    -0.037 A  
HETATM   38  C   UNL     1      -5.365   8.979  67.541  1.00  0.00    -0.034 A  
HETATM   39  C   UNL     1      -6.533   8.246  67.341  1.00  0.00    -0.058 A  
ENDBRANCH  32  34
ENDBRANCH  26  28
ENDBRANCH  21  26
ENDBRANCH  17  19
ENDBRANCH  12  15
ENDBRANCH   8   9
ENDBRANCH   5   8
TORSDOF 7
ENDMDL
MODEL       49
REMARK 921   NORMALIZED FREE ENERGY PREDICTED BY IDOCK:   -6.48 KCAL/MOL
REMARK 922        TOTAL FREE ENERGY PREDICTED BY IDOCK:  -10.29 KCAL/MOL
REMARK 923 INTER-LIGAND FREE ENERGY PREDICTED BY IDOCK:   -9.15 KCAL/MOL
REMARK 924 INTRA-LIGAND FREE ENERGY PREDICTED BY IDOCK:   -1.14 KCAL/MOL
REMARK 927      BINDING AFFINITY PREDICTED BY RF-SCORE:    0.00 PKD
ROOT
HETATM    1  C   UNL     1      -7.904  19.887  67.124  1.00  0.00    -0.290 C  
HETATM    2  N   UNL     1      -8.577  19.015  66.160  1.00  0.00    -0.458 NA 
HETATM    3  C   UNL     1      -8.124  17.618  66.305  1.00  0.00    -0.246 C  
HETATM    4  C   UNL     1      -8.716  16.871  67.522  1.00  0.00    -0.208 C  
HETATM    5  N   UNL     1     -10.196  16.906  67.600  1.00  0.00    -0.296 NA 
HETATM    6  C   UNL     1     -10.046  19.090  66.309  1.00  0.00    -0.422 C  
HETATM    7  C   UNL     1     -10.629  18.313  67.515  1.00  0.00    -0.409 C  
ENDROOT
BRANCH   5   8
HETATM    8  C   UNL     1     -10.856  16.080  66.564  1.00  0.00    -0.167 C  
BRANCH   8   9
HETATM    9  C   UNL     1     -11.041  14.650  67.029  1.00  0.00    -0.333 A  
HETATM   10  C   UNL     1     -11.720  14.397  68.227  1.00  0.00    -0.376 A  
HETATM   11  C   UNL     1     -11.607  13.152  68.838  1.00  0.00    -0.354 A  
HETATM   12  C   UNL     1     -10.822  12.148  68.255  1.00  0.00    -0.256 A  
HETATM   13  C   UNL     1     -10.374  13.603  66.378  1.00  0.00    -0.286 A  
HETATM   14  C   UNL     1     -10.255  12.355  66.992  1.00  0.00    -0.232 A  
BRANCH  12  15
HETATM   15  C   UNL     1     -10.495  10.964  69.093  1.00  0.00    -0.221 C  
HETATM   16  O   UNL     1      -9.316  10.669  69.264  1.00  0.00    -0.187 OA 
HETATM   17  N   UNL     1     -11.565  10.282  69.653  1.00  0.00    -0.386 N  
HETATM   18  H   UNL     1     -12.515  10.612  69.478  1.00  0.00     0.000 HD 
BRANCH  17  19
HETATM   19  C   UNL     1     -11.367   9.143  70.458  1.00  0.00    -0.257 A  
HETATM   20  C   UNL     1     -10.998   7.963  69.823  1.00  0.00    -0.148 A  
HETATM   21  C   UNL     1     -11.019   6.727  70.494  1.00  0.00    -0.280 A  
HETATM   22  C   UNL     1     -11.587   9.146  71.828  1.00  0.00    -0.457 A  
HETATM   23  C   UNL     1     -11.254   6.730  71.884  1.00  0.00    -0.294 A  
HETATM   24  C   UNL     1     -11.296   5.489  72.735  1.00  0.00    -0.359 C  
HETATM   25  C   UNL     1     -11.493   7.952  72.543  1.00  0.00    -0.455 A  
BRANCH  21  26
HETATM   26  N   UNL     1     -10.929   5.537  69.748  1.00  0.00    -0.240 NA 
HETATM   27  H   UNL     1     -11.749   4.931  69.785  1.00  0.00     0.000 HD 
BRANCH  26  28
HETATM   28  C   UNL     1      -9.870   5.073  68.964  1.00  0.00    -0.182 A  
HETATM   29  N   UNL     1      -8.755   4.709  69.605  1.00  0.00    -0.080 NA 
HETATM   30  C   UNL     1      -7.753   4.225  68.850  1.00  0.00    -0.058 A  
HETATM   31  C   UNL     1      -7.824   4.072  67.483  1.00  0.00    -0.090 A  
HETATM   32  C   UNL     1      -9.001   4.472  66.893  1.00  0.00    -0.115 A  
HETATM   33  N   UNL     1     -10.007   4.970  67.633  1.00  0.00    -0.164 NA 
BRANCH  32  34
HETATM   34  C   UNL     1      -9.282   4.399  65.447  1.00  0.00    -0.153 A  
HETATM   35  C   UNL     1     -10.417   3.779  64.923  1.00  0.00    -0.038 A  
HETATM   36  N   UNL     1     -10.709   3.668  63.601  1.00  0.00    -0.268 NA 
HETATM   37  C   UNL     1      -9.818   4.206  62.736  1.00  0.00    -0.133 A  
HETATM   38  C   UNL     1      -8.656   4.838  63.131  1.00  0.00    -0.117 A  
HETATM   39  C   UNL     1      -8.393   4.933  64.496  1.00  0.00    -0.132 A  
ENDBRANCH  32  34
ENDBRANCH  26  28
ENDBRANCH  21  26
ENDBRANCH  17  19
ENDBRANCH  12  15
ENDBRANCH   8   9
ENDBRANCH   5   8
TORSDOF 7
ENDMDL
MODEL       50
REMARK 921   NORMALIZED FREE ENERGY PREDICTED BY IDOCK:   -6.44 KCAL/MOL
REMARK 922        TOTAL FREE ENERGY PREDICTED BY IDOCK:  -10.22 KCAL/MOL
REMARK 923 INTER-LIGAND FREE ENERGY PREDICTED BY IDOCK:   -8.95 KCAL/MOL
REMARK 924 INTRA-LIGAND FREE ENERGY PREDICTED BY IDOCK:   -1.28 KCAL/MOL
REMARK 927      BINDING AFFINITY PREDICTED BY RF-SCORE:    0.00 PKD
ROOT
HETATM    1  C   UNL     1     -10.045   3.921  65.034  1.00  0.00    -0.162 C  
HETATM    2  N   UNL     1      -8.662   4.232  65.399  1.00  0.00    -0.119 NA 
HETATM    3  C   UNL     1      -8.360   5.657  65.159  1.00  0.00    -0.146 C  
HETATM    4  C   UNL     1      -8.945   6.625  66.214  1.00  0.00    -0.152 C  
HETATM    5  N   UNL     1      -8.595   6.288  67.614  1.00  0.00    -0.115 NA 
HETATM    6  C   UNL     1      -8.392   3.886  66.810  1.00  0.00    -0.100 C  
HETATM    7  C   UNL     1      -8.958   4.880  67.855  1.00  0.00    -0.109 C  
ENDROOT
BRANCH   5   8
HETATM    8  C   UNL     1      -7.172   6.536  67.937  1.00  0.00    -0.087 C  
BRANCH   8   9
HETATM    9  C   UNL     1      -6.927   7.989  68.289  1.00  0.00    -0.073 A  
HETATM   10  C   UNL     1      -7.563   8.544  69.407  1.00  0.00    -0.090 A  
HETATM   11  C   UNL     1      -7.628   9.926  69.552  1.00  0.00    -0.125 A  
HETATM   12  C   UNL     1      -7.055  10.765  68.587  1.00  0.00    -0.078 A  
HETATM   13  C   UNL     1      -6.234   8.825  67.402  1.00  0.00    -0.056 A  
HETATM   14  C   UNL     1      -6.303  10.212  67.543  1.00  0.00    -0.059 A  
BRANCH  12  15
HETATM   15  C   UNL     1      -7.416  12.207  68.635  1.00  0.00    -0.105 C  
HETATM   16  O   UNL     1      -6.739  12.963  69.326  1.00  0.00    -0.109 OA 
HETATM   17  N   UNL     1      -8.495  12.604  67.860  1.00  0.00    -0.162 N  
HETATM   18  H   UNL     1      -8.988  11.912  67.295  1.00  0.00     0.000 HD 
BRANCH  17  19
HETATM   19  C   UNL     1      -8.925  13.946  67.838  1.00  0.00    -0.191 A  
HETATM   20  C   UNL     1     -10.012  14.286  68.635  1.00  0.00    -0.234 A  
HETATM   21  C   UNL     1     -10.668  15.523  68.497  1.00  0.00    -0.259 A  
HETATM   22  C   UNL     1      -8.351  14.903  67.013  1.00  0.00    -0.246 A  
HETATM   23  C   UNL     1     -10.090  16.491  67.649  1.00  0.00    -0.266 A  
HETATM   24  C   UNL     1     -10.671  17.859  67.412  1.00  0.00    -0.306 C  
HETATM   25  C   UNL     1      -8.908  16.181  66.949  1.00  0.00    -0.246 A  
BRANCH  21  26
HETATM   26  N   UNL     1     -11.925  15.707  69.102  1.00  0.00    -0.519 NA 
HETATM   27  H   UNL     1     -12.501  16.449  68.705  1.00  0.00     0.000 HD 
BRANCH  26  28
HETATM   28  C   UNL     1     -12.491  15.010  70.172  1.00  0.00    -0.311 A  
HETATM   29  N   UNL     1     -13.210  15.721  71.046  1.00  0.00    -0.527 NA 
HETATM   30  C   UNL     1     -13.787  15.038  72.051  1.00  0.00    -0.473 A  
HETATM   31  C   UNL     1     -13.691  13.674  72.212  1.00  0.00    -0.687 A  
HETATM   32  C   UNL     1     -12.931  13.011  71.275  1.00  0.00    -0.243 A  
HETATM   33  N   UNL     1     -12.338  13.681  70.271  1.00  0.00    -0.336 NA 
BRANCH  32  34
HETATM   34  C   UNL     1     -12.697  11.555  71.264  1.00  0.00    -0.469 A  
HETATM   35  C   UNL     1     -13.397  10.665  72.079  1.00  0.00    -0.304 A  
HETATM   36  N   UNL     1     -13.204   9.321  72.119  1.00  0.00    -0.430 NA 
HETATM   37  C   UNL     1     -12.251   8.821  71.299  1.00  0.00    -0.287 A  
HETATM   38  C   UNL     1     -11.487   9.598  70.453  1.00  0.00    -0.325 A  
HETATM   39  C   UNL     1     -11.716  10.973  70.439  1.00  0.00    -0.437 A  
ENDBRANCH  32  34
ENDBRANCH  26  28
ENDBRANCH  21  26
ENDBRANCH  17  19
ENDBRANCH  12  15
ENDBRANCH   8   9
ENDBRANCH   5   8
TORSDOF 7
ENDMDL
MODEL       51
REMARK 921   NORMALIZED FREE ENERGY PREDICTED BY IDOCK:   -6.40 KCAL/MOL
REMARK 922        TOTAL FREE ENERGY PREDICTED BY IDOCK:  -10.18 KCAL/MOL
REMARK 923 INTER-LIGAND FREE ENERGY PREDICTED BY IDOCK:   -9.08 KCAL/MOL
REMARK 924 INTRA-LIGAND FREE ENERGY PREDICTED BY IDOCK:   -1.10 KCAL/MOL
REMARK 927      BINDING AFFINITY PREDICTED BY RF-SCORE:    0.00 PKD
ROOT
HETATM    1  C   UNL     1      -6.958   3.484  72.487  1.00  0.00    -0.042 C  
HETATM    2  N   UNL     1      -6.107   3.621  71.304  1.00  0.00    -0.014 NA 
HETATM    3  C   UNL     1      -6.271   2.468  70.397  1.00  0.00    -0.024 C  
HETATM    4  C   UNL     1      -7.575   2.483  69.565  1.00  0.00    -0.043 C  
HETATM    5  N   UNL     1      -7.796   3.732  68.799  1.00  0.00    -0.056 NA 
HETATM    6  C   UNL     1      -6.395   4.879  70.582  1.00  0.00    -0.026 C  
HETATM    7  C   UNL     1      -7.688   4.870  69.729  1.00  0.00    -0.056 C  
ENDROOT
BRANCH   5   8
HETATM    8  C   UNL     1      -6.870   3.887  67.654  1.00  0.00    -0.054 C  
BRANCH   8   9
HETATM    9  C   UNL     1      -7.239   5.083  66.800  1.00  0.00    -0.077 A  
HETATM   10  C   UNL     1      -6.279   6.069  66.543  1.00  0.00    -0.037 A  
HETATM   11  C   UNL     1      -6.675   7.314  66.064  1.00  0.00    -0.053 A  
HETATM   12  C   UNL     1      -8.030   7.582  65.831  1.00  0.00    -0.117 A  
HETATM   13  C   UNL     1      -8.573   5.305  66.433  1.00  0.00    -0.114 A  
HETATM   14  C   UNL     1      -8.974   6.555  65.958  1.00  0.00    -0.139 A  
BRANCH  12  15
HETATM   15  C   UNL     1      -8.418   9.002  65.617  1.00  0.00    -0.150 C  
HETATM   16  O   UNL     1      -7.579   9.877  65.803  1.00  0.00    -0.104 OA 
HETATM   17  N   UNL     1      -9.717   9.235  65.190  1.00  0.00    -0.439 N  
HETATM   18  H   UNL     1     -10.343   8.444  65.037  1.00  0.00     0.000 HD 
BRANCH  17  19
HETATM   19  C   UNL     1     -10.189  10.544  64.964  1.00  0.00    -0.295 A  
HETATM   20  C   UNL     1     -10.706  11.237  66.051  1.00  0.00    -0.301 A  
HETATM   21  C   UNL     1     -11.423  12.437  65.887  1.00  0.00    -0.374 A  
HETATM   22  C   UNL     1     -10.212  11.124  63.703  1.00  0.00    -0.444 A  
HETATM   23  C   UNL     1     -11.456  13.020  64.603  1.00  0.00    -0.374 A  
HETATM   24  C   UNL     1     -12.171  14.303  64.278  1.00  0.00    -0.451 C  
HETATM   25  C   UNL     1     -10.808  12.374  63.532  1.00  0.00    -0.487 A  
BRANCH  21  26
HETATM   26  N   UNL     1     -12.174  12.943  66.963  1.00  0.00    -0.391 NA 
HETATM   27  H   UNL     1     -13.104  12.539  67.080  1.00  0.00     0.000 HD 
BRANCH  26  28
HETATM   28  C   UNL     1     -11.821  13.923  67.893  1.00  0.00    -0.378 A  
HETATM   29  N   UNL     1     -11.894  13.587  69.185  1.00  0.00    -0.322 NA 
HETATM   30  C   UNL     1     -11.514  14.520  70.076  1.00  0.00    -0.258 A  
HETATM   31  C   UNL     1     -11.047  15.769  69.731  1.00  0.00    -0.322 A  
HETATM   32  C   UNL     1     -11.003  16.044  68.383  1.00  0.00    -0.331 A  
HETATM   33  N   UNL     1     -11.392  15.125  67.480  1.00  0.00    -0.333 NA 
BRANCH  32  34
HETATM   34  C   UNL     1     -10.541  17.318  67.801  1.00  0.00    -0.367 A  
HETATM   35  C   UNL     1     -10.396  17.519  66.428  1.00  0.00    -0.334 A  
HETATM   36  N   UNL     1      -9.956  18.665  65.847  1.00  0.00    -0.526 NA 
HETATM   37  C   UNL     1      -9.636  19.683  66.678  1.00  0.00    -0.380 A  
HETATM   38  C   UNL     1      -9.730  19.604  68.053  1.00  0.00    -0.501 A  
HETATM   39  C   UNL     1     -10.187  18.412  68.612  1.00  0.00    -0.370 A  
ENDBRANCH  32  34
ENDBRANCH  26  28
ENDBRANCH  21  26
ENDBRANCH  17  19
ENDBRANCH  12  15
ENDBRANCH   8   9
ENDBRANCH   5   8
TORSDOF 7
ENDMDL
MODEL       52
REMARK 921   NORMALIZED FREE ENERGY PREDICTED BY IDOCK:   -6.40 KCAL/MOL
REMARK 922        TOTAL FREE ENERGY PREDICTED BY IDOCK:  -10.17 KCAL/MOL
REMARK 923 INTER-LIGAND FREE ENERGY PREDICTED BY IDOCK:   -9.14 KCAL/MOL
REMARK 924 INTRA-LIGAND FREE ENERGY PREDICTED BY IDOCK:   -1.03 KCAL/MOL
REMARK 927      BINDING AFFINITY PREDICTED BY RF-SCORE:    0.00 PKD
ROOT
HETATM    1  C   UNL     1      -7.835   1.562  71.479  1.00  0.00    -0.040 C  
HETATM    2  N   UNL     1      -8.925   2.355  70.907  1.00  0.00    -0.079 NA 
HETATM    3  C   UNL     1      -8.516   3.762  70.724  1.00  0.00    -0.070 C  
HETATM    4  C   UNL     1      -7.587   4.010  69.513  1.00  0.00    -0.053 C  
HETATM    5  N   UNL     1      -8.107   3.490  68.227  1.00  0.00    -0.073 NA 
HETATM    6  C   UNL     1      -9.379   1.787  69.620  1.00  0.00    -0.087 C  
HETATM    7  C   UNL     1      -8.454   2.069  68.409  1.00  0.00    -0.061 C  
ENDROOT
BRANCH   5   8
HETATM    8  C   UNL     1      -9.261   4.260  67.708  1.00  0.00    -0.145 C  
BRANCH   8   9
HETATM    9  C   UNL     1      -8.860   5.669  67.323  1.00  0.00    -0.106 A  
HETATM   10  C   UNL     1      -9.230   6.741  68.145  1.00  0.00    -0.121 A  
HETATM   11  C   UNL     1      -9.179   8.041  67.654  1.00  0.00    -0.145 A  
HETATM   12  C   UNL     1      -8.751   8.284  66.341  1.00  0.00    -0.162 A  
HETATM   13  C   UNL     1      -8.301   5.925  66.063  1.00  0.00    -0.128 A  
HETATM   14  C   UNL     1      -8.253   7.229  65.566  1.00  0.00    -0.139 A  
BRANCH  12  15
HETATM   15  C   UNL     1      -9.004   9.638  65.780  1.00  0.00    -0.169 C  
HETATM   16  O   UNL     1      -8.074  10.243  65.256  1.00  0.00    -0.143 OA 
HETATM   17  N   UNL     1     -10.303  10.115  65.867  1.00  0.00    -0.198 N  
HETATM   18  H   UNL     1     -11.022   9.534  66.298  1.00  0.00     0.000 HD 
BRANCH  17  19
HETATM   19  C   UNL     1     -10.649  11.389  65.372  1.00  0.00    -0.275 A  
HETATM   20  C   UNL     1     -10.555  12.465  66.246  1.00  0.00    -0.277 A  
HETATM   21  C   UNL     1     -11.108  13.720  65.931  1.00  0.00    -0.286 A  
HETATM   22  C   UNL     1     -11.133  11.586  64.086  1.00  0.00    -0.417 A  
HETATM   23  C   UNL     1     -11.610  13.917  64.628  1.00  0.00    -0.398 A  
HETATM   24  C   UNL     1     -12.220  15.205  64.145  1.00  0.00    -0.182 C  
HETATM   25  C   UNL     1     -11.575  12.853  63.704  1.00  0.00    -0.547 A  
BRANCH  21  26
HETATM   26  N   UNL     1     -11.253  14.682  66.947  1.00  0.00    -0.334 NA 
HETATM   27  H   UNL     1     -11.046  15.644  66.676  1.00  0.00     0.000 HD 
BRANCH  26  28
HETATM   28  C   UNL     1     -11.643  14.501  68.276  1.00  0.00    -0.329 A  
HETATM   29  N   UNL     1     -11.970  15.596  68.967  1.00  0.00    -0.356 NA 
HETATM   30  C   UNL     1     -12.384  15.412  70.234  1.00  0.00    -0.388 A  
HETATM   31  C   UNL     1     -12.501  14.178  70.834  1.00  0.00    -0.436 A  
HETATM   32  C   UNL     1     -12.142  13.097  70.061  1.00  0.00    -0.305 A  
HETATM   33  N   UNL     1     -11.714  13.266  68.797  1.00  0.00    -0.308 NA 
BRANCH  32  34
HETATM   34  C   UNL     1     -12.188  11.693  70.510  1.00  0.00    -0.451 A  
HETATM   35  C   UNL     1     -11.472  10.671  69.886  1.00  0.00    -0.317 A  
HETATM   36  N   UNL     1     -11.497   9.362  70.250  1.00  0.00    -0.221 NA 
HETATM   37  C   UNL     1     -12.285   9.040  71.302  1.00  0.00    -0.312 A  
HETATM   38  C   UNL     1     -13.046   9.959  71.996  1.00  0.00    -0.545 A  
HETATM   39  C   UNL     1     -12.992  11.292  71.594  1.00  0.00    -0.537 A  
ENDBRANCH  32  34
ENDBRANCH  26  28
ENDBRANCH  21  26
ENDBRANCH  17  19
ENDBRANCH  12  15
ENDBRANCH   8   9
ENDBRANCH   5   8
TORSDOF 7
ENDMDL
MODEL       53
REMARK 921   NORMALIZED FREE ENERGY PREDICTED BY IDOCK:   -6.40 KCAL/MOL
REMARK 922        TOTAL FREE ENERGY PREDICTED BY IDOCK:  -10.17 KCAL/MOL
REMARK 923 INTER-LIGAND FREE ENERGY PREDICTED BY IDOCK:   -8.99 KCAL/MOL
REMARK 924 INTRA-LIGAND FREE ENERGY PREDICTED BY IDOCK:   -1.18 KCAL/MOL
REMARK 927      BINDING AFFINITY PREDICTED BY RF-SCORE:    0.00 PKD
ROOT
HETATM    1  C   UNL     1      -7.653  20.342  66.839  1.00  0.00    -0.299 C  
HETATM    2  N   UNL     1      -8.881  20.148  67.612  1.00  0.00    -0.327 NA 
HETATM    3  C   UNL     1      -9.986  19.696  66.745  1.00  0.00    -0.409 C  
HETATM    4  C   UNL     1      -9.913  18.208  66.331  1.00  0.00    -0.376 C  
HETATM    5  N   UNL     1      -9.775  17.264  67.464  1.00  0.00    -0.259 NA 
HETATM    6  C   UNL     1      -8.671  19.183  68.712  1.00  0.00    -0.330 C  
HETATM    7  C   UNL     1      -8.630  17.694  68.287  1.00  0.00    -0.268 C  
ENDROOT
BRANCH   5   8
HETATM    8  C   UNL     1     -11.004  17.145  68.280  1.00  0.00    -0.229 C  
BRANCH   8   9
HETATM    9  C   UNL     1     -11.518  15.720  68.307  1.00  0.00    -0.338 A  
HETATM   10  C   UNL     1     -11.783  15.106  69.537  1.00  0.00    -0.351 A  
HETATM   11  C   UNL     1     -11.922  13.723  69.606  1.00  0.00    -0.399 A  
HETATM   12  C   UNL     1     -11.804  12.943  68.447  1.00  0.00    -0.357 A  
HETATM   13  C   UNL     1     -11.541  14.955  67.133  1.00  0.00    -0.327 A  
HETATM   14  C   UNL     1     -11.674  13.567  67.200  1.00  0.00    -0.419 A  
BRANCH  12  15
HETATM   15  C   UNL     1     -11.657  11.474  68.626  1.00  0.00    -0.313 C  
HETATM   16  O   UNL     1     -12.521  10.867  69.251  1.00  0.00    -0.392 OA 
HETATM   17  N   UNL     1     -10.548  10.883  68.039  1.00  0.00    -0.188 N  
HETATM   18  H   UNL     1      -9.891  11.462  67.515  1.00  0.00     0.000 HD 
BRANCH  17  19
HETATM   19  C   UNL     1     -10.311   9.499  68.153  1.00  0.00    -0.208 A  
HETATM   20  C   UNL     1      -9.695   9.045  69.313  1.00  0.00    -0.168 A  
HETATM   21  C   UNL     1      -9.193   7.735  69.418  1.00  0.00    -0.149 A  
HETATM   22  C   UNL     1     -10.608   8.602  67.136  1.00  0.00    -0.304 A  
HETATM   23  C   UNL     1      -9.485   6.827  68.379  1.00  0.00    -0.126 A  
HETATM   24  C   UNL     1      -9.026   5.395  68.357  1.00  0.00    -0.113 C  
HETATM   25  C   UNL     1     -10.231   7.265  67.266  1.00  0.00    -0.323 A  
BRANCH  21  26
HETATM   26  N   UNL     1      -8.327   7.413  70.478  1.00  0.00    -0.130 NA 
HETATM   27  H   UNL     1      -7.334   7.391  70.244  1.00  0.00     0.000 HD 
BRANCH  26  28
HETATM   28  C   UNL     1      -8.641   7.118  71.806  1.00  0.00    -0.117 A  
HETATM   29  N   UNL     1      -8.548   8.118  72.687  1.00  0.00    -0.182 NA 
HETATM   30  C   UNL     1      -8.891   7.840  73.958  1.00  0.00    -0.247 A  
HETATM   31  C   UNL     1      -9.338   6.609  74.383  1.00  0.00    -0.257 A  
HETATM   32  C   UNL     1      -9.404   5.627  73.420  1.00  0.00    -0.134 A  
HETATM   33  N   UNL     1      -9.052   5.887  72.148  1.00  0.00    -0.143 NA 
BRANCH  32  34
HETATM   34  C   UNL     1      -9.851   4.243  73.662  1.00  0.00    -0.156 A  
HETATM   35  C   UNL     1     -11.184   3.846  73.564  1.00  0.00    -0.218 A  
HETATM   36  N   UNL     1     -11.646   2.590  73.796  1.00  0.00    -0.127 NA 
HETATM   37  C   UNL     1     -10.729   1.661  74.152  1.00  0.00    -0.131 A  
HETATM   38  C   UNL     1      -9.382   1.933  74.289  1.00  0.00    -0.088 A  
HETATM   39  C   UNL     1      -8.946   3.233  74.041  1.00  0.00    -0.087 A  
ENDBRANCH  32  34
ENDBRANCH  26  28
ENDBRANCH  21  26
ENDBRANCH  17  19
ENDBRANCH  12  15
ENDBRANCH   8   9
ENDBRANCH   5   8
TORSDOF 7
ENDMDL
MODEL       54
REMARK 921   NORMALIZED FREE ENERGY PREDICTED BY IDOCK:   -6.39 KCAL/MOL
REMARK 922        TOTAL FREE ENERGY PREDICTED BY IDOCK:  -10.15 KCAL/MOL
REMARK 923 INTER-LIGAND FREE ENERGY PREDICTED BY IDOCK:   -8.69 KCAL/MOL
REMARK 924 INTRA-LIGAND FREE ENERGY PREDICTED BY IDOCK:   -1.47 KCAL/MOL
REMARK 927      BINDING AFFINITY PREDICTED BY RF-SCORE:    0.00 PKD
ROOT
HETATM    1  C   UNL     1      -9.366  18.215  66.985  1.00  0.00    -0.270 C  
HETATM    2  N   UNL     1     -10.616  17.472  66.820  1.00  0.00    -0.255 NA 
HETATM    3  C   UNL     1     -10.608  16.693  65.567  1.00  0.00    -0.258 C  
HETATM    4  C   UNL     1      -9.752  15.406  65.614  1.00  0.00    -0.331 C  
HETATM    5  N   UNL     1     -10.072  14.499  66.741  1.00  0.00    -0.259 NA 
HETATM    6  C   UNL     1     -10.861  16.578  67.972  1.00  0.00    -0.337 C  
HETATM    7  C   UNL     1     -10.018  15.278  67.991  1.00  0.00    -0.224 C  
ENDROOT
BRANCH   5   8
HETATM    8  C   UNL     1     -11.379  13.820  66.591  1.00  0.00    -0.328 C  
BRANCH   8   9
HETATM    9  C   UNL     1     -11.219  12.315  66.527  1.00  0.00    -0.373 A  
HETATM   10  C   UNL     1     -11.448  11.548  67.676  1.00  0.00    -0.357 A  
HETATM   11  C   UNL     1     -10.986  10.237  67.738  1.00  0.00    -0.360 A  
HETATM   12  C   UNL     1     -10.299   9.679  66.652  1.00  0.00    -0.279 A  
HETATM   13  C   UNL     1     -10.658  11.711  65.393  1.00  0.00    -0.331 A  
HETATM   14  C   UNL     1     -10.189  10.398  65.455  1.00  0.00    -0.329 A  
BRANCH  12  15
HETATM   15  C   UNL     1      -9.573   8.402  66.886  1.00  0.00    -0.202 C  
HETATM   16  O   UNL     1      -9.171   8.151  68.018  1.00  0.00    -0.133 OA 
HETATM   17  N   UNL     1      -9.424   7.560  65.794  1.00  0.00    -0.390 N  
HETATM   18  H   UNL     1      -9.812   7.837  64.892  1.00  0.00     0.000 HD 
BRANCH  17  19
HETATM   19  C   UNL     1      -8.746   6.330  65.906  1.00  0.00    -0.149 A  
HETATM   20  C   UNL     1      -9.404   5.290  66.554  1.00  0.00    -0.146 A  
HETATM   21  C   UNL     1      -8.730   4.116  66.935  1.00  0.00    -0.114 A  
HETATM   22  C   UNL     1      -7.445   6.148  65.458  1.00  0.00    -0.082 A  
HETATM   23  C   UNL     1      -7.404   3.937  66.489  1.00  0.00    -0.072 A  
HETATM   24  C   UNL     1      -6.563   2.730  66.807  1.00  0.00    -0.036 C  
HETATM   25  C   UNL     1      -6.792   4.942  65.714  1.00  0.00    -0.061 A  
BRANCH  21  26
HETATM   26  N   UNL     1      -9.346   3.230  67.837  1.00  0.00    -0.195 NA 
HETATM   27  H   UNL     1      -9.665   2.346  67.439  1.00  0.00     0.000 HD 
BRANCH  26  28
HETATM   28  C   UNL     1      -9.581   3.396  69.204  1.00  0.00    -0.055 A  
HETATM   29  N   UNL     1      -9.337   2.345  69.993  1.00  0.00    -0.126 NA 
HETATM   30  C   UNL     1      -9.526   2.523  71.313  1.00  0.00    -0.150 A  
HETATM   31  C   UNL     1      -9.931   3.710  71.880  1.00  0.00    -0.223 A  
HETATM   32  C   UNL     1     -10.166   4.746  71.004  1.00  0.00    -0.168 A  
HETATM   33  N   UNL     1      -9.994   4.580  69.681  1.00  0.00    -0.218 NA 
BRANCH  32  34
HETATM   34  C   UNL     1     -10.609   6.096  71.401  1.00  0.00    -0.294 A  
HETATM   35  C   UNL     1     -10.434   6.606  72.688  1.00  0.00    -0.212 A  
HETATM   36  N   UNL     1     -10.842   7.833  73.105  1.00  0.00    -0.385 NA 
HETATM   37  C   UNL     1     -11.467   8.609  72.190  1.00  0.00    -0.373 A  
HETATM   38  C   UNL     1     -11.705   8.214  70.889  1.00  0.00    -0.259 A  
HETATM   39  C   UNL     1     -11.270   6.949  70.498  1.00  0.00    -0.353 A  
ENDBRANCH  32  34
ENDBRANCH  26  28
ENDBRANCH  21  26
ENDBRANCH  17  19
ENDBRANCH  12  15
ENDBRANCH   8   9
ENDBRANCH   5   8
TORSDOF 7
ENDMDL
MODEL       55
REMARK 921   NORMALIZED FREE ENERGY PREDICTED BY IDOCK:   -6.38 KCAL/MOL
REMARK 922        TOTAL FREE ENERGY PREDICTED BY IDOCK:  -10.15 KCAL/MOL
REMARK 923 INTER-LIGAND FREE ENERGY PREDICTED BY IDOCK:   -8.91 KCAL/MOL
REMARK 924 INTRA-LIGAND FREE ENERGY PREDICTED BY IDOCK:   -1.24 KCAL/MOL
REMARK 927      BINDING AFFINITY PREDICTED BY RF-SCORE:    0.00 PKD
ROOT
HETATM    1  C   UNL     1      -8.513   1.674  65.568  1.00  0.00    -0.102 C  
HETATM    2  N   UNL     1      -7.787   2.438  66.583  1.00  0.00    -0.071 NA 
HETATM    3  C   UNL     1      -8.200   3.856  66.574  1.00  0.00    -0.100 C  
HETATM    4  C   UNL     1      -9.573   4.131  67.229  1.00  0.00    -0.190 C  
HETATM    5  N   UNL     1      -9.712   3.598  68.605  1.00  0.00    -0.078 NA 
HETATM    6  C   UNL     1      -7.986   1.860  67.929  1.00  0.00    -0.058 C  
HETATM    7  C   UNL     1      -9.355   2.169  68.586  1.00  0.00    -0.175 C  
ENDROOT
BRANCH   5   8
HETATM    8  C   UNL     1      -8.905   4.337  69.602  1.00  0.00    -0.086 C  
BRANCH   8   9
HETATM    9  C   UNL     1      -9.188   5.825  69.554  1.00  0.00    -0.150 A  
HETATM   10  C   UNL     1     -10.499   6.283  69.732  1.00  0.00    -0.289 A  
HETATM   11  C   UNL     1     -10.837   7.581  69.359  1.00  0.00    -0.161 A  
HETATM   12  C   UNL     1      -9.868   8.433  68.812  1.00  0.00    -0.180 A  
HETATM   13  C   UNL     1      -8.193   6.721  69.139  1.00  0.00    -0.121 A  
HETATM   14  C   UNL     1      -8.531   8.021  68.759  1.00  0.00    -0.127 A  
BRANCH  12  15
HETATM   15  C   UNL     1     -10.347   9.680  68.159  1.00  0.00    -0.209 C  
HETATM   16  O   UNL     1     -11.223  10.337  68.713  1.00  0.00    -0.240 OA 
HETATM   17  N   UNL     1      -9.739  10.030  66.963  1.00  0.00    -0.174 N  
HETATM   18  H   UNL     1      -9.000   9.437  66.585  1.00  0.00     0.000 HD 
BRANCH  17  19
HETATM   19  C   UNL     1     -10.123  11.189  66.259  1.00  0.00    -0.232 A  
HETATM   20  C   UNL     1      -9.355  12.333  66.437  1.00  0.00    -0.219 A  
HETATM   21  C   UNL     1      -9.791  13.592  65.984  1.00  0.00    -0.265 A  
HETATM   22  C   UNL     1     -11.258  11.239  65.462  1.00  0.00    -0.069 A  
HETATM   23  C   UNL     1     -10.951  13.644  65.183  1.00  0.00    -0.334 A  
HETATM   24  C   UNL     1     -11.530  14.913  64.619  1.00  0.00    -0.380 C  
HETATM   25  C   UNL     1     -11.648  12.454  64.895  1.00  0.00    -0.392 A  
BRANCH  21  26
HETATM   26  N   UNL     1      -9.138  14.751  66.439  1.00  0.00    -0.414 NA 
HETATM   27  H   UNL     1      -8.253  14.969  65.978  1.00  0.00     0.000 HD 
BRANCH  26  28
HETATM   28  C   UNL     1      -9.535  15.646  67.435  1.00  0.00    -0.215 A  
HETATM   29  N   UNL     1      -9.184  16.925  67.276  1.00  0.00    -0.224 NA 
HETATM   30  C   UNL     1      -9.604  17.790  68.218  1.00  0.00    -0.312 A  
HETATM   31  C   UNL     1     -10.375  17.433  69.301  1.00  0.00    -0.212 A  
HETATM   32  C   UNL     1     -10.694  16.098  69.400  1.00  0.00    -0.307 A  
HETATM   33  N   UNL     1     -10.271  15.220  68.473  1.00  0.00    -0.220 NA 
BRANCH  32  34
HETATM   34  C   UNL     1     -11.505  15.506  70.481  1.00  0.00    -0.368 A  
HETATM   35  C   UNL     1     -12.139  14.269  70.366  1.00  0.00    -0.339 A  
HETATM   36  N   UNL     1     -12.910  13.693  71.324  1.00  0.00    -0.348 NA 
HETATM   37  C   UNL     1     -13.068  14.387  72.475  1.00  0.00    -0.450 A  
HETATM   38  C   UNL     1     -12.497  15.622  72.706  1.00  0.00    -0.537 A  
HETATM   39  C   UNL     1     -11.711  16.180  71.699  1.00  0.00    -0.558 A  
ENDBRANCH  32  34
ENDBRANCH  26  28
ENDBRANCH  21  26
ENDBRANCH  17  19
ENDBRANCH  12  15
ENDBRANCH   8   9
ENDBRANCH   5   8
TORSDOF 7
ENDMDL
MODEL       56
REMARK 921   NORMALIZED FREE ENERGY PREDICTED BY IDOCK:   -6.35 KCAL/MOL
REMARK 922        TOTAL FREE ENERGY PREDICTED BY IDOCK:  -10.10 KCAL/MOL
REMARK 923 INTER-LIGAND FREE ENERGY PREDICTED BY IDOCK:   -9.13 KCAL/MOL
REMARK 924 INTRA-LIGAND FREE ENERGY PREDICTED BY IDOCK:   -0.97 KCAL/MOL
REMARK 927      BINDING AFFINITY PREDICTED BY RF-SCORE:    0.00 PKD
ROOT
HETATM    1  C   UNL     1      -8.770   2.240  69.493  1.00  0.00    -0.072 C  
HETATM    2  N   UNL     1      -9.281   2.834  68.257  1.00  0.00    -0.179 NA 
HETATM    3  C   UNL     1      -9.762   4.210  68.491  1.00  0.00    -0.078 C  
HETATM    4  C   UNL     1      -8.643   5.267  68.636  1.00  0.00    -0.087 C  
HETATM    5  N   UNL     1      -7.668   5.283  67.520  1.00  0.00    -0.095 NA 
HETATM    6  C   UNL     1      -8.251   2.830  67.197  1.00  0.00    -0.081 C  
HETATM    7  C   UNL     1      -7.153   3.914  67.338  1.00  0.00    -0.063 C  
ENDROOT
BRANCH   5   8
HETATM    8  C   UNL     1      -8.232   5.813  66.258  1.00  0.00    -0.109 C  
BRANCH   8   9
HETATM    9  C   UNL     1      -8.758   7.223  66.434  1.00  0.00    -0.152 A  
HETATM   10  C   UNL     1      -7.857   8.274  66.645  1.00  0.00    -0.094 A  
HETATM   11  C   UNL     1      -8.315   9.491  67.141  1.00  0.00    -0.131 A  
HETATM   12  C   UNL     1      -9.675   9.670  67.425  1.00  0.00    -0.198 A  
HETATM   13  C   UNL     1     -10.134   7.451  66.585  1.00  0.00    -0.253 A  
HETATM   14  C   UNL     1     -10.594   8.669  67.088  1.00  0.00    -0.304 A  
BRANCH  12  15
HETATM   15  C   UNL     1     -10.053  10.864  68.228  1.00  0.00    -0.174 C  
HETATM   16  O   UNL     1      -9.166  11.613  68.626  1.00  0.00    -0.179 OA 
HETATM   17  N   UNL     1     -11.407  11.062  68.450  1.00  0.00    -0.270 N  
HETATM   18  H   UNL     1     -12.080  10.401  68.061  1.00  0.00     0.000 HD 
BRANCH  17  19
HETATM   19  C   UNL     1     -11.872  12.158  69.204  1.00  0.00    -0.305 A  
HETATM   20  C   UNL     1     -11.874  13.405  68.591  1.00  0.00    -0.397 A  
HETATM   21  C   UNL     1     -12.079  14.588  69.326  1.00  0.00    -0.290 A  
HETATM   22  C   UNL     1     -12.258  12.043  70.533  1.00  0.00    -0.414 A  
HETATM   23  C   UNL     1     -12.460  14.471  70.679  1.00  0.00    -0.409 A  
HETATM   24  C   UNL     1     -12.722  15.643  71.586  1.00  0.00    -0.522 C  
HETATM   25  C   UNL     1     -12.588  13.191  71.255  1.00  0.00    -0.382 A  
BRANCH  21  26
HETATM   26  N   UNL     1     -11.781  15.827  68.733  1.00  0.00    -0.418 NA 
HETATM   27  H   UNL     1     -12.488  16.553  68.849  1.00  0.00     0.000 HD 
BRANCH  26  28
HETATM   28  C   UNL     1     -10.647  16.200  68.006  1.00  0.00    -0.304 A  
HETATM   29  N   UNL     1     -10.646  15.919  66.700  1.00  0.00    -0.316 NA 
HETATM   30  C   UNL     1      -9.570  16.316  65.997  1.00  0.00    -0.337 A  
HETATM   31  C   UNL     1      -8.504  16.998  66.540  1.00  0.00    -0.306 A  
HETATM   32  C   UNL     1      -8.575  17.248  67.891  1.00  0.00    -0.223 A  
HETATM   33  N   UNL     1      -9.638  16.846  68.610  1.00  0.00    -0.257 NA 
BRANCH  32  34
HETATM   34  C   UNL     1      -7.542  17.958  68.669  1.00  0.00    -0.285 A  
HETATM   35  C   UNL     1      -6.592  17.300  69.451  1.00  0.00    -0.218 A  
HETATM   36  N   UNL     1      -5.636  17.909  70.198  1.00  0.00    -0.241 NA 
HETATM   37  C   UNL     1      -5.615  19.262  70.173  1.00  0.00    -0.238 A  
HETATM   38  C   UNL     1      -6.505  20.025  69.444  1.00  0.00    -0.365 A  
HETATM   39  C   UNL     1      -7.471  19.363  68.689  1.00  0.00    -0.385 A  
ENDBRANCH  32  34
ENDBRANCH  26  28
ENDBRANCH  21  26
ENDBRANCH  17  19
ENDBRANCH  12  15
ENDBRANCH   8   9
ENDBRANCH   5   8
TORSDOF 7
ENDMDL
MODEL       57
REMARK 921   NORMALIZED FREE ENERGY PREDICTED BY IDOCK:   -6.35 KCAL/MOL
REMARK 922        TOTAL FREE ENERGY PREDICTED BY IDOCK:  -10.10 KCAL/MOL
REMARK 923 INTER-LIGAND FREE ENERGY PREDICTED BY IDOCK:   -8.79 KCAL/MOL
REMARK 924 INTRA-LIGAND FREE ENERGY PREDICTED BY IDOCK:   -1.31 KCAL/MOL
REMARK 927      BINDING AFFINITY PREDICTED BY RF-SCORE:    0.00 PKD
ROOT
HETATM    1  C   UNL     1      -7.266  20.285  68.044  1.00  0.00    -0.262 C  
HETATM    2  N   UNL     1      -8.471  19.971  67.276  1.00  0.00    -0.323 NA 
HETATM    3  C   UNL     1      -8.251  18.803  66.400  1.00  0.00    -0.284 C  
HETATM    4  C   UNL     1      -8.259  17.440  67.129  1.00  0.00    -0.210 C  
HETATM    5  N   UNL     1      -9.464  17.198  67.959  1.00  0.00    -0.256 NA 
HETATM    6  C   UNL     1      -9.624  19.726  68.168  1.00  0.00    -0.380 C  
HETATM    7  C   UNL     1      -9.635  18.344  68.869  1.00  0.00    -0.259 C  
ENDROOT
BRANCH   5   8
HETATM    8  C   UNL     1     -10.687  16.963  67.159  1.00  0.00    -0.180 C  
BRANCH   8   9
HETATM    9  C   UNL     1     -11.323  15.630  67.495  1.00  0.00    -0.198 A  
HETATM   10  C   UNL     1     -11.767  15.388  68.801  1.00  0.00    -0.369 A  
HETATM   11  C   UNL     1     -12.032  14.085  69.214  1.00  0.00    -0.396 A  
HETATM   12  C   UNL     1     -11.862  13.015  68.324  1.00  0.00    -0.381 A  
HETATM   13  C   UNL     1     -11.290  14.577  66.570  1.00  0.00    -0.354 A  
HETATM   14  C   UNL     1     -11.550  13.269  66.983  1.00  0.00    -0.404 A  
BRANCH  12  15
HETATM   15  C   UNL     1     -11.863  11.644  68.899  1.00  0.00    -0.329 C  
HETATM   16  O   UNL     1     -11.706  10.688  68.145  1.00  0.00    -0.474 OA 
HETATM   17  N   UNL     1     -12.019  11.544  70.273  1.00  0.00    -0.355 N  
HETATM   18  H   UNL     1     -12.120  12.394  70.828  1.00  0.00     0.000 HD 
BRANCH  17  19
HETATM   19  C   UNL     1     -12.040  10.291  70.918  1.00  0.00    -0.368 A  
HETATM   20  C   UNL     1     -10.821   9.738  71.291  1.00  0.00    -0.276 A  
HETATM   21  C   UNL     1     -10.715   8.399  71.708  1.00  0.00    -0.285 A  
HETATM   22  C   UNL     1     -13.213   9.577  71.128  1.00  0.00    -0.332 A  
HETATM   23  C   UNL     1     -11.906   7.671  71.910  1.00  0.00    -0.332 A  
HETATM   24  C   UNL     1     -11.951   6.237  72.364  1.00  0.00    -0.234 C  
HETATM   25  C   UNL     1     -13.147   8.288  71.659  1.00  0.00    -0.354 A  
BRANCH  21  26
HETATM   26  N   UNL     1      -9.445   7.801  71.788  1.00  0.00    -0.148 NA 
HETATM   27  H   UNL     1      -9.374   7.000  72.416  1.00  0.00     0.000 HD 
BRANCH  26  28
HETATM   28  C   UNL     1      -8.268   8.155  71.125  1.00  0.00    -0.112 A  
HETATM   29  N   UNL     1      -7.377   8.874  71.814  1.00  0.00    -0.299 NA 
HETATM   30  C   UNL     1      -6.227   9.178  71.184  1.00  0.00    -0.070 A  
HETATM   31  C   UNL     1      -5.923   8.778  69.902  1.00  0.00    -0.031 A  
HETATM   32  C   UNL     1      -6.890   8.044  69.255  1.00  0.00    -0.048 A  
HETATM   33  N   UNL     1      -8.050   7.743  69.866  1.00  0.00    -0.118 NA 
BRANCH  32  34
HETATM   34  C   UNL     1      -6.769   7.523  67.880  1.00  0.00    -0.066 A  
HETATM   35  C   UNL     1      -5.710   7.852  67.033  1.00  0.00    -0.037 A  
HETATM   36  N   UNL     1      -5.565   7.414  65.756  1.00  0.00    -0.032 NA 
HETATM   37  C   UNL     1      -6.532   6.595  65.281  1.00  0.00    -0.046 A  
HETATM   38  C   UNL     1      -7.631   6.204  66.019  1.00  0.00    -0.087 A  
HETATM   39  C   UNL     1      -7.744   6.673  67.326  1.00  0.00    -0.104 A  
ENDBRANCH  32  34
ENDBRANCH  26  28
ENDBRANCH  21  26
ENDBRANCH  17  19
ENDBRANCH  12  15
ENDBRANCH   8   9
ENDBRANCH   5   8
TORSDOF 7
ENDMDL
MODEL       58
REMARK 921   NORMALIZED FREE ENERGY PREDICTED BY IDOCK:   -6.26 KCAL/MOL
REMARK 922        TOTAL FREE ENERGY PREDICTED BY IDOCK:   -9.97 KCAL/MOL
REMARK 923 INTER-LIGAND FREE ENERGY PREDICTED BY IDOCK:   -8.86 KCAL/MOL
REMARK 924 INTRA-LIGAND FREE ENERGY PREDICTED BY IDOCK:   -1.11 KCAL/MOL
REMARK 927      BINDING AFFINITY PREDICTED BY RF-SCORE:    0.00 PKD
ROOT
HETATM    1  C   UNL     1     -10.195  19.952  66.131  1.00  0.00    -0.503 C  
HETATM    2  N   UNL     1      -9.219  19.399  67.072  1.00  0.00    -0.307 NA 
HETATM    3  C   UNL     1      -9.888  18.865  68.274  1.00  0.00    -0.374 C  
HETATM    4  C   UNL     1     -10.589  17.503  68.070  1.00  0.00    -0.384 C  
HETATM    5  N   UNL     1      -9.721  16.448  67.495  1.00  0.00    -0.229 NA 
HETATM    6  C   UNL     1      -8.403  18.344  66.434  1.00  0.00    -0.251 C  
HETATM    7  C   UNL     1      -9.109  16.975  66.263  1.00  0.00    -0.246 C  
ENDROOT
BRANCH   5   8
HETATM    8  C   UNL     1      -8.690  15.961  68.439  1.00  0.00    -0.183 C  
BRANCH   8   9
HETATM    9  C   UNL     1      -8.721  14.451  68.565  1.00  0.00    -0.180 A  
HETATM   10  C   UNL     1      -7.531  13.755  68.810  1.00  0.00    -0.098 A  
HETATM   11  C   UNL     1      -7.474  12.382  68.592  1.00  0.00    -0.095 A  
HETATM   12  C   UNL     1      -8.605  11.692  68.136  1.00  0.00    -0.158 A  
HETATM   13  C   UNL     1      -9.886  13.739  68.245  1.00  0.00    -0.232 A  
HETATM   14  C   UNL     1      -9.829  12.362  68.022  1.00  0.00    -0.205 A  
BRANCH  12  15
HETATM   15  C   UNL     1      -8.404  10.305  67.637  1.00  0.00    -0.114 C  
HETATM   16  O   UNL     1      -7.501   9.629  68.121  1.00  0.00    -0.081 OA 
HETATM   17  N   UNL     1      -9.283   9.861  66.661  1.00  0.00    -0.150 N  
HETATM   18  H   UNL     1     -10.021  10.483  66.331  1.00  0.00     0.000 HD 
BRANCH  17  19
HETATM   19  C   UNL     1      -9.175   8.566  66.114  1.00  0.00    -0.211 A  
HETATM   20  C   UNL     1      -9.880   7.545  66.739  1.00  0.00    -0.295 A  
HETATM   21  C   UNL     1      -9.646   6.192  66.430  1.00  0.00    -0.127 A  
HETATM   22  C   UNL     1      -8.353   8.275  65.034  1.00  0.00    -0.158 A  
HETATM   23  C   UNL     1      -8.802   5.896  65.340  1.00  0.00    -0.071 A  
HETATM   24  C   UNL     1      -8.468   4.501  64.886  1.00  0.00    -0.130 C  
HETATM   25  C   UNL     1      -8.199   6.950  64.625  1.00  0.00    -0.026 A  
BRANCH  21  26
HETATM   26  N   UNL     1     -10.154   5.194  67.281  1.00  0.00    -0.189 NA 
HETATM   27  H   UNL     1     -10.419   4.320  66.826  1.00  0.00     0.000 HD 
BRANCH  26  28
HETATM   28  C   UNL     1     -10.345   5.236  68.664  1.00  0.00    -0.122 A  
HETATM   29  N   UNL     1      -9.729   4.299  69.390  1.00  0.00    -0.200 NA 
HETATM   30  C   UNL     1      -9.882   4.369  70.724  1.00  0.00    -0.203 A  
HETATM   31  C   UNL     1     -10.611   5.345  71.366  1.00  0.00    -0.282 A  
HETATM   32  C   UNL     1     -11.220   6.274  70.552  1.00  0.00    -0.354 A  
HETATM   33  N   UNL     1     -11.086   6.210  69.215  1.00  0.00    -0.385 NA 
BRANCH  32  34
HETATM   34  C   UNL     1     -12.046   7.396  71.033  1.00  0.00    -0.330 A  
HETATM   35  C   UNL     1     -13.403   7.269  71.331  1.00  0.00    -0.331 A  
HETATM   36  N   UNL     1     -14.209   8.275  71.757  1.00  0.00    -0.440 NA 
HETATM   37  C   UNL     1     -13.637   9.494  71.897  1.00  0.00    -0.391 A  
HETATM   38  C   UNL     1     -12.307   9.748  71.627  1.00  0.00    -0.495 A  
HETATM   39  C   UNL     1     -11.512   8.689  71.193  1.00  0.00    -0.332 A  
ENDBRANCH  32  34
ENDBRANCH  26  28
ENDBRANCH  21  26
ENDBRANCH  17  19
ENDBRANCH  12  15
ENDBRANCH   8   9
ENDBRANCH   5   8
TORSDOF 7
ENDMDL
MODEL       59
REMARK 921   NORMALIZED FREE ENERGY PREDICTED BY IDOCK:   -6.22 KCAL/MOL
REMARK 922        TOTAL FREE ENERGY PREDICTED BY IDOCK:   -9.92 KCAL/MOL
REMARK 923 INTER-LIGAND FREE ENERGY PREDICTED BY IDOCK:   -8.74 KCAL/MOL
REMARK 924 INTRA-LIGAND FREE ENERGY PREDICTED BY IDOCK:   -1.18 KCAL/MOL
REMARK 927      BINDING AFFINITY PREDICTED BY RF-SCORE:    0.00 PKD
ROOT
HETATM    1  C   UNL     1      -7.781  20.528  67.296  1.00  0.00    -0.332 C  
HETATM    2  N   UNL     1      -8.272  19.492  68.207  1.00  0.00    -0.331 NA 
HETATM    3  C   UNL     1      -9.743  19.545  68.323  1.00  0.00    -0.404 C  
HETATM    4  C   UNL     1     -10.506  18.959  67.112  1.00  0.00    -0.438 C  
HETATM    5  N   UNL     1     -10.102  17.582  66.742  1.00  0.00    -0.308 NA 
HETATM    6  C   UNL     1      -7.845  18.148  67.766  1.00  0.00    -0.235 C  
HETATM    7  C   UNL     1      -8.638  17.561  66.571  1.00  0.00    -0.263 C  
ENDROOT
BRANCH   5   8
HETATM    8  C   UNL     1     -10.540  16.561  67.721  1.00  0.00    -0.332 C  
BRANCH   8   9
HETATM    9  C   UNL     1     -10.765  15.218  67.058  1.00  0.00    -0.313 A  
HETATM   10  C   UNL     1     -10.249  14.060  67.654  1.00  0.00    -0.241 A  
HETATM   11  C   UNL     1     -10.143  12.887  66.914  1.00  0.00    -0.241 A  
HETATM   12  C   UNL     1     -10.557  12.858  65.575  1.00  0.00    -0.298 A  
HETATM   13  C   UNL     1     -11.307  15.148  65.767  1.00  0.00    -0.238 A  
HETATM   14  C   UNL     1     -11.197  13.973  65.021  1.00  0.00    -0.352 A  
BRANCH  12  15
HETATM   15  C   UNL     1     -10.143  11.686  64.758  1.00  0.00    -0.260 C  
HETATM   16  O   UNL     1     -10.940  11.219  63.950  1.00  0.00    -0.386 OA 
HETATM   17  N   UNL     1      -8.854  11.214  64.954  1.00  0.00    -0.374 N  
HETATM   18  H   UNL     1      -8.248  11.679  65.631  1.00  0.00     0.000 HD 
BRANCH  17  19
HETATM   19  C   UNL     1      -8.364  10.105  64.236  1.00  0.00    -0.171 A  
HETATM   20  C   UNL     1      -8.358   8.874  64.880  1.00  0.00    -0.181 A  
HETATM   21  C   UNL     1      -7.668   7.768  64.350  1.00  0.00    -0.123 A  
HETATM   22  C   UNL     1      -7.837  10.215  62.956  1.00  0.00    -0.149 A  
HETATM   23  C   UNL     1      -7.123   7.884  63.055  1.00  0.00    -0.087 A  
HETATM   24  C   UNL     1      -6.370   6.785  62.356  1.00  0.00    -0.039 C  
HETATM   25  C   UNL     1      -7.255   9.099  62.354  1.00  0.00    -0.096 A  
BRANCH  21  26
HETATM   26  N   UNL     1      -7.440   6.644  65.165  1.00  0.00    -0.081 NA 
HETATM   27  H   UNL     1      -6.484   6.289  65.169  1.00  0.00     0.000 HD 
BRANCH  26  28
HETATM   28  C   UNL     1      -8.345   5.949  65.970  1.00  0.00    -0.128 A  
HETATM   29  N   UNL     1      -8.608   4.683  65.633  1.00  0.00    -0.121 NA 
HETATM   30  C   UNL     1      -9.449   4.005  66.435  1.00  0.00    -0.191 A  
HETATM   31  C   UNL     1     -10.024   4.532  67.569  1.00  0.00    -0.152 A  
HETATM   32  C   UNL     1      -9.710   5.842  67.850  1.00  0.00    -0.119 A  
HETATM   33  N   UNL     1      -8.881   6.537  67.051  1.00  0.00    -0.115 NA 
BRANCH  32  34
HETATM   34  C   UNL     1     -10.219   6.597  69.010  1.00  0.00    -0.196 A  
HETATM   35  C   UNL     1     -11.273   6.148  69.807  1.00  0.00    -0.423 A  
HETATM   36  N   UNL     1     -11.789   6.815  70.871  1.00  0.00    -0.370 NA 
HETATM   37  C   UNL     1     -11.227   8.010  71.170  1.00  0.00    -0.261 A  
HETATM   38  C   UNL     1     -10.185   8.563  70.454  1.00  0.00    -0.215 A  
HETATM   39  C   UNL     1      -9.682   7.847  69.369  1.00  0.00    -0.170 A  
ENDBRANCH  32  34
ENDBRANCH  26  28
ENDBRANCH  21  26
ENDBRANCH  17  19
ENDBRANCH  12  15
ENDBRANCH   8   9
ENDBRANCH   5   8
TORSDOF 7
ENDMDL
MODEL       60
REMARK 921   NORMALIZED FREE ENERGY PREDICTED BY IDOCK:   -6.19 KCAL/MOL
REMARK 922        TOTAL FREE ENERGY PREDICTED BY IDOCK:   -9.87 KCAL/MOL
REMARK 923 INTER-LIGAND FREE ENERGY PREDICTED BY IDOCK:   -9.14 KCAL/MOL
REMARK 924 INTRA-LIGAND FREE ENERGY PREDICTED BY IDOCK:   -0.73 KCAL/MOL
REMARK 927      BINDING AFFINITY PREDICTED BY RF-SCORE:    0.00 PKD
ROOT
HETATM    1  C   UNL     1      -5.200  19.185  68.511  1.00  0.00    -0.189 C  
HETATM    2  N   UNL     1      -6.641  19.379  68.678  1.00  0.00    -0.263 NA 
HETATM    3  C   UNL     1      -7.213  20.114  67.532  1.00  0.00    -0.285 C  
HETATM    4  C   UNL     1      -7.390  19.269  66.249  1.00  0.00    -0.264 C  
HETATM    5  N   UNL     1      -8.154  18.014  66.444  1.00  0.00    -0.326 NA 
HETATM    6  C   UNL     1      -7.336  18.086  68.850  1.00  0.00    -0.243 C  
HETATM    7  C   UNL     1      -7.534  17.264  67.551  1.00  0.00    -0.170 C  
ENDROOT
BRANCH   5   8
HETATM    8  C   UNL     1      -9.596  18.239  66.692  1.00  0.00    -0.315 C  
BRANCH   8   9
HETATM    9  C   UNL     1     -10.387  16.952  66.576  1.00  0.00    -0.299 A  
HETATM   10  C   UNL     1     -10.775  16.275  67.739  1.00  0.00    -0.325 A  
HETATM   11  C   UNL     1     -11.190  14.949  67.663  1.00  0.00    -0.330 A  
HETATM   12  C   UNL     1     -11.227  14.291  66.426  1.00  0.00    -0.337 A  
HETATM   13  C   UNL     1     -10.559  16.338  65.328  1.00  0.00    -0.357 A  
HETATM   14  C   UNL     1     -10.970  15.006  65.250  1.00  0.00    -0.391 A  
BRANCH  12  15
HETATM   15  C   UNL     1     -11.381  12.812  66.444  1.00  0.00    -0.323 C  
HETATM   16  O   UNL     1     -12.261  12.301  65.757  1.00  0.00    -0.622 OA 
HETATM   17  N   UNL     1     -10.485  12.102  67.229  1.00  0.00    -0.215 N  
HETATM   18  H   UNL     1      -9.768  12.606  67.750  1.00  0.00     0.000 HD 
BRANCH  17  19
HETATM   19  C   UNL     1     -10.547  10.697  67.322  1.00  0.00    -0.263 A  
HETATM   20  C   UNL     1     -11.180  10.154  68.434  1.00  0.00    -0.238 A  
HETATM   21  C   UNL     1     -11.078   8.785  68.744  1.00  0.00     0.261 A  
HETATM   22  C   UNL     1      -9.952   9.858  66.390  1.00  0.00    -0.309 A  
HETATM   23  C   UNL     1     -10.462   7.935  67.802  1.00  0.00    -0.278 A  
HETATM   24  C   UNL     1     -10.291   6.452  67.991  1.00  0.00    -0.234 C  
HETATM   25  C   UNL     1      -9.944   8.480  66.611  1.00  0.00    -0.363 A  
BRANCH  21  26
HETATM   26  N   UNL     1     -11.475   8.336  70.016  1.00  0.00    -0.457 NA 
HETATM   27  H   UNL     1     -12.480   8.334  70.189  1.00  0.00     0.000 HD 
BRANCH  26  28
HETATM   28  C   UNL     1     -10.680   7.893  71.076  1.00  0.00    -0.220 A  
HETATM   29  N   UNL     1     -10.363   8.791  72.013  1.00  0.00    -0.343 NA 
HETATM   30  C   UNL     1      -9.631   8.349  73.052  1.00  0.00    -0.145 A  
HETATM   31  C   UNL     1      -9.217   7.045  73.203  1.00  0.00    -0.165 A  
HETATM   32  C   UNL     1      -9.578   6.178  72.196  1.00  0.00    -0.150 A  
HETATM   33  N   UNL     1     -10.299   6.608  71.145  1.00  0.00    -0.205 NA 
BRANCH  32  34
HETATM   34  C   UNL     1      -9.235   4.744  72.160  1.00  0.00    -0.155 A  
HETATM   35  C   UNL     1      -7.928   4.278  72.018  1.00  0.00    -0.090 A  
HETATM   36  N   UNL     1      -7.566   2.971  71.959  1.00  0.00    -0.052 NA 
HETATM   37  C   UNL     1      -8.562   2.059  72.046  1.00  0.00    -0.060 A  
HETATM   38  C   UNL     1      -9.894   2.396  72.181  1.00  0.00    -0.221 A  
HETATM   39  C   UNL     1     -10.227   3.748  72.239  1.00  0.00    -0.201 A  
ENDBRANCH  32  34
ENDBRANCH  26  28
ENDBRANCH  21  26
ENDBRANCH  17  19
ENDBRANCH  12  15
ENDBRANCH   8   9
ENDBRANCH   5   8
TORSDOF 7
ENDMDL
MODEL       61
REMARK 921   NORMALIZED FREE ENERGY PREDICTED BY IDOCK:   -6.14 KCAL/MOL
REMARK 922        TOTAL FREE ENERGY PREDICTED BY IDOCK:   -9.80 KCAL/MOL
REMARK 923 INTER-LIGAND FREE ENERGY PREDICTED BY IDOCK:   -9.23 KCAL/MOL
REMARK 924 INTRA-LIGAND FREE ENERGY PREDICTED BY IDOCK:   -0.57 KCAL/MOL
REMARK 927      BINDING AFFINITY PREDICTED BY RF-SCORE:    0.00 PKD
ROOT
HETATM    1  C   UNL     1      -7.575   3.928  64.483  1.00  0.00    -0.080 C  
HETATM    2  N   UNL     1      -7.724   3.464  65.863  1.00  0.00    -0.081 NA 
HETATM    3  C   UNL     1      -6.904   4.274  66.785  1.00  0.00    -0.052 C  
HETATM    4  C   UNL     1      -7.483   5.671  67.104  1.00  0.00    -0.084 C  
HETATM    5  N   UNL     1      -8.882   5.656  67.593  1.00  0.00    -0.107 NA 
HETATM    6  C   UNL     1      -9.140   3.492  66.285  1.00  0.00    -0.157 C  
HETATM    7  C   UNL     1      -9.699   4.896  66.631  1.00  0.00    -0.184 C  
ENDROOT
BRANCH   5   8
HETATM    8  C   UNL     1      -9.018   5.107  68.961  1.00  0.00    -0.100 C  
BRANCH   8   9
HETATM    9  C   UNL     1      -9.708   6.087  69.887  1.00  0.00    -0.200 A  
HETATM   10  C   UNL     1     -11.077   5.946  70.144  1.00  0.00    -0.395 A  
HETATM   11  C   UNL     1     -11.791   7.004  70.699  1.00  0.00    -0.377 A  
HETATM   12  C   UNL     1     -11.144   8.208  71.008  1.00  0.00    -0.281 A  
HETATM   13  C   UNL     1      -9.037   7.238  70.326  1.00  0.00    -0.152 A  
HETATM   14  C   UNL     1      -9.753   8.302  70.878  1.00  0.00    -0.204 A  
BRANCH  12  15
HETATM   15  C   UNL     1     -12.000   9.386  71.306  1.00  0.00    -0.353 C  
HETATM   16  O   UNL     1     -13.016   9.223  71.976  1.00  0.00    -0.363 OA 
HETATM   17  N   UNL     1     -11.567  10.610  70.819  1.00  0.00    -0.337 N  
HETATM   18  H   UNL     1     -10.696  10.658  70.291  1.00  0.00     0.000 HD 
BRANCH  17  19
HETATM   19  C   UNL     1     -12.308  11.789  71.040  1.00  0.00    -0.282 A  
HETATM   20  C   UNL     1     -12.225  12.789  70.079  1.00  0.00    -0.279 A  
HETATM   21  C   UNL     1     -12.718  14.085  70.319  1.00  0.00    -0.210 A  
HETATM   22  C   UNL     1     -13.049  12.003  72.194  1.00  0.00    -0.352 A  
HETATM   23  C   UNL     1     -13.461  14.304  71.497  1.00  0.00    -0.426 A  
HETATM   24  C   UNL     1     -14.058  15.631  71.883  1.00  0.00    -0.471 C  
HETATM   25  C   UNL     1     -13.655  13.242  72.402  1.00  0.00    -0.694 A  
BRANCH  21  26
HETATM   26  N   UNL     1     -12.354  15.131  69.453  1.00  0.00    -0.577 NA 
HETATM   27  H   UNL     1     -13.118  15.731  69.140  1.00  0.00     0.000 HD 
BRANCH  26  28
HETATM   28  C   UNL     1     -11.088  15.462  68.963  1.00  0.00    -0.268 A  
HETATM   29  N   UNL     1     -10.805  16.763  68.844  1.00  0.00    -0.320 NA 
HETATM   30  C   UNL     1      -9.571  17.076  68.410  1.00  0.00    -0.277 A  
HETATM   31  C   UNL     1      -8.602  16.146  68.108  1.00  0.00    -0.177 A  
HETATM   32  C   UNL     1      -8.968  14.827  68.252  1.00  0.00    -0.181 A  
HETATM   33  N   UNL     1     -10.202  14.498  68.672  1.00  0.00    -0.238 NA 
BRANCH  32  34
HETATM   34  C   UNL     1      -8.085  13.677  67.978  1.00  0.00    -0.161 A  
HETATM   35  C   UNL     1      -6.771  13.816  67.532  1.00  0.00    -0.115 A  
HETATM   36  N   UNL     1      -5.928  12.790  67.249  1.00  0.00    -0.309 NA 
HETATM   37  C   UNL     1      -6.416  11.539  67.415  1.00  0.00    -0.094 A  
HETATM   38  C   UNL     1      -7.701  11.272  67.844  1.00  0.00    -0.110 A  
HETATM   39  C   UNL     1      -8.536  12.352  68.126  1.00  0.00    -0.180 A  
ENDBRANCH  32  34
ENDBRANCH  26  28
ENDBRANCH  21  26
ENDBRANCH  17  19
ENDBRANCH  12  15
ENDBRANCH   8   9
ENDBRANCH   5   8
TORSDOF 7
ENDMDL
MODEL       62
REMARK 921   NORMALIZED FREE ENERGY PREDICTED BY IDOCK:   -6.09 KCAL/MOL
REMARK 922        TOTAL FREE ENERGY PREDICTED BY IDOCK:   -9.73 KCAL/MOL
REMARK 923 INTER-LIGAND FREE ENERGY PREDICTED BY IDOCK:   -9.44 KCAL/MOL
REMARK 924 INTRA-LIGAND FREE ENERGY PREDICTED BY IDOCK:   -0.29 KCAL/MOL
REMARK 927      BINDING AFFINITY PREDICTED BY RF-SCORE:    0.00 PKD
ROOT
HETATM    1  C   UNL     1      -9.170   1.602  68.074  1.00  0.00    -0.173 C  
HETATM    2  N   UNL     1      -9.191   2.511  66.927  1.00  0.00    -0.117 NA 
HETATM    3  C   UNL     1      -9.412   3.905  67.361  1.00  0.00    -0.195 C  
HETATM    4  C   UNL     1      -8.175   4.589  67.986  1.00  0.00    -0.094 C  
HETATM    5  N   UNL     1      -6.956   4.535  67.145  1.00  0.00    -0.059 NA 
HETATM    6  C   UNL     1      -7.939   2.415  66.147  1.00  0.00    -0.082 C  
HETATM    7  C   UNL     1      -6.715   3.130  66.770  1.00  0.00    -0.045 C  
ENDROOT
BRANCH   5   8
HETATM    8  C   UNL     1      -7.033   5.402  65.947  1.00  0.00    -0.066 C  
BRANCH   8   9
HETATM    9  C   UNL     1      -7.494   6.800  66.303  1.00  0.00    -0.077 A  
HETATM   10  C   UNL     1      -6.767   7.550  67.236  1.00  0.00    -0.067 A  
HETATM   11  C   UNL     1      -7.343   8.671  67.824  1.00  0.00    -0.092 A  
HETATM   12  C   UNL     1      -8.646   9.058  67.482  1.00  0.00    -0.120 A  
HETATM   13  C   UNL     1      -8.739   7.268  65.859  1.00  0.00    -0.150 A  
HETATM   14  C   UNL     1      -9.321   8.390  66.452  1.00  0.00    -0.274 A  
BRANCH  12  15
HETATM   15  C   UNL     1      -9.311  10.064  68.352  1.00  0.00    -0.138 C  
HETATM   16  O   UNL     1      -8.625  10.938  68.874  1.00  0.00    -0.158 OA 
HETATM   17  N   UNL     1     -10.686   9.954  68.493  1.00  0.00    -0.223 N  
HETATM   18  H   UNL     1     -11.181   9.209  68.003  1.00  0.00     0.000 HD 
BRANCH  17  19
HETATM   19  C   UNL     1     -11.412  10.852  69.300  1.00  0.00    -0.302 A  
HETATM   20  C   UNL     1     -11.646  12.126  68.796  1.00  0.00    -0.380 A  
HETATM   21  C   UNL     1     -12.136  13.163  69.611  1.00  0.00    -0.255 A  
HETATM   22  C   UNL     1     -11.836  10.531  70.583  1.00  0.00    -0.458 A  
HETATM   23  C   UNL     1     -12.555  12.839  70.918  1.00  0.00    -0.342 A  
HETATM   24  C   UNL     1     -13.108  13.837  71.898  1.00  0.00    -0.474 C  
HETATM   25  C   UNL     1     -12.439  11.510  71.373  1.00  0.00    -0.338 A  
BRANCH  21  26
HETATM   26  N   UNL     1     -12.076  14.490  69.147  1.00  0.00    -0.483 NA 
HETATM   27  H   UNL     1     -12.537  15.184  69.736  1.00  0.00     0.000 HD 
BRANCH  26  28
HETATM   28  C   UNL     1     -11.471  14.986  67.991  1.00  0.00    -0.342 A  
HETATM   29  N   UNL     1     -11.552  14.230  66.892  1.00  0.00    -0.369 NA 
HETATM   30  C   UNL     1     -11.003  14.731  65.770  1.00  0.00    -0.334 A  
HETATM   31  C   UNL     1     -10.392  15.962  65.696  1.00  0.00    -0.413 A  
HETATM   32  C   UNL     1     -10.343  16.682  66.868  1.00  0.00    -0.299 A  
HETATM   33  N   UNL     1     -10.876  16.189  68.001  1.00  0.00    -0.324 NA 
BRANCH  32  34
HETATM   34  C   UNL     1      -9.732  18.017  67.009  1.00  0.00    -0.303 A  
HETATM   35  C   UNL     1      -8.387  18.208  67.329  1.00  0.00    -0.241 A  
HETATM   36  N   UNL     1      -7.785  19.415  67.488  1.00  0.00    -0.252 NA 
HETATM   37  C   UNL     1      -8.563  20.509  67.321  1.00  0.00    -0.280 A  
HETATM   38  C   UNL     1      -9.906  20.449  67.010  1.00  0.00    -0.594 A  
HETATM   39  C   UNL     1     -10.488  19.193  66.853  1.00  0.00    -0.527 A  
ENDBRANCH  32  34
ENDBRANCH  26  28
ENDBRANCH  21  26
ENDBRANCH  17  19
ENDBRANCH  12  15
ENDBRANCH   8   9
ENDBRANCH   5   8
TORSDOF 7
ENDMDL
MODEL       63
REMARK 921   NORMALIZED FREE ENERGY PREDICTED BY IDOCK:   -6.07 KCAL/MOL
REMARK 922        TOTAL FREE ENERGY PREDICTED BY IDOCK:   -9.71 KCAL/MOL
REMARK 923 INTER-LIGAND FREE ENERGY PREDICTED BY IDOCK:   -9.77 KCAL/MOL
REMARK 924 INTRA-LIGAND FREE ENERGY PREDICTED BY IDOCK:    0.06 KCAL/MOL
REMARK 927      BINDING AFFINITY PREDICTED BY RF-SCORE:    0.00 PKD
ROOT
HETATM    1  C   UNL     1      -9.637   1.633  68.967  1.00  0.00    -0.059 C  
HETATM    2  N   UNL     1      -9.310   2.549  67.873  1.00  0.00    -0.205 NA 
HETATM    3  C   UNL     1      -9.566   3.950  68.262  1.00  0.00    -0.114 C  
HETATM    4  C   UNL     1      -8.503   4.562  69.203  1.00  0.00    -0.079 C  
HETATM    5  N   UNL     1      -7.110   4.447  68.710  1.00  0.00    -0.051 NA 
HETATM    6  C   UNL     1      -7.904   2.390  67.446  1.00  0.00    -0.065 C  
HETATM    7  C   UNL     1      -6.851   3.033  68.383  1.00  0.00    -0.048 C  
ENDROOT
BRANCH   5   8
HETATM    8  C   UNL     1      -6.826   5.324  67.551  1.00  0.00    -0.060 C  
BRANCH   8   9
HETATM    9  C   UNL     1      -7.250   6.753  67.820  1.00  0.00    -0.091 A  
HETATM   10  C   UNL     1      -7.031   7.311  69.085  1.00  0.00    -0.074 A  
HETATM   11  C   UNL     1      -7.703   8.472  69.456  1.00  0.00    -0.091 A  
HETATM   12  C   UNL     1      -8.594   9.087  68.566  1.00  0.00    -0.129 A  
HETATM   13  C   UNL     1      -8.030   7.446  66.883  1.00  0.00    -0.115 A  
HETATM   14  C   UNL     1      -8.710   8.607  67.256  1.00  0.00    -0.133 A  
BRANCH  12  15
HETATM   15  C   UNL     1      -9.499  10.130  69.118  1.00  0.00    -0.206 C  
HETATM   16  O   UNL     1      -9.225  11.311  68.925  1.00  0.00    -0.158 OA 
HETATM   17  N   UNL     1     -10.620   9.684  69.801  1.00  0.00    -0.227 N  
HETATM   18  H   UNL     1     -10.783   8.681  69.894  1.00  0.00     0.000 HD 
BRANCH  17  19
HETATM   19  C   UNL     1     -11.539  10.589  70.369  1.00  0.00    -0.342 A  
HETATM   20  C   UNL     1     -11.585  11.874  69.843  1.00  0.00    -0.333 A  
HETATM   21  C   UNL     1     -12.278  12.913  70.492  1.00  0.00    -0.314 A  
HETATM   22  C   UNL     1     -12.336  10.262  71.458  1.00  0.00    -0.488 A  
HETATM   23  C   UNL     1     -13.078  12.582  71.606  1.00  0.00    -0.414 A  
HETATM   24  C   UNL     1     -13.882  13.581  72.392  1.00  0.00    -0.687 C  
HETATM   25  C   UNL     1     -13.131  11.245  72.048  1.00  0.00    -0.431 A  
BRANCH  21  26
HETATM   26  N   UNL     1     -12.056  14.243  70.094  1.00  0.00    -0.318 NA 
HETATM   27  H   UNL     1     -12.237  14.952  70.804  1.00  0.00     0.000 HD 
BRANCH  26  28
HETATM   28  C   UNL     1     -11.619  14.725  68.857  1.00  0.00    -0.313 A  
HETATM   29  N   UNL     1     -10.965  15.890  68.858  1.00  0.00    -0.270 NA 
HETATM   30  C   UNL     1     -10.512  16.330  67.670  1.00  0.00    -0.295 A  
HETATM   31  C   UNL     1     -10.669  15.647  66.485  1.00  0.00    -0.293 A  
HETATM   32  C   UNL     1     -11.356  14.457  66.563  1.00  0.00    -0.350 A  
HETATM   33  N   UNL     1     -11.827  14.010  67.741  1.00  0.00    -0.369 NA 
BRANCH  32  34
HETATM   34  C   UNL     1     -11.637  13.574  65.415  1.00  0.00    -0.334 A  
HETATM   35  C   UNL     1     -12.904  13.053  65.149  1.00  0.00    -0.266 A  
HETATM   36  N   UNL     1     -13.208  12.222  64.118  1.00  0.00    -0.738 NA 
HETATM   37  C   UNL     1     -12.190  11.880  63.294  1.00  0.00    -0.374 A  
HETATM   38  C   UNL     1     -10.894  12.324  63.457  1.00  0.00    -0.508 A  
HETATM   39  C   UNL     1     -10.622  13.176  64.526  1.00  0.00    -0.425 A  
ENDBRANCH  32  34
ENDBRANCH  26  28
ENDBRANCH  21  26
ENDBRANCH  17  19
ENDBRANCH  12  15
ENDBRANCH   8   9
ENDBRANCH   5   8
TORSDOF 7
ENDMDL
MODEL       64
REMARK 921   NORMALIZED FREE ENERGY PREDICTED BY IDOCK:   -6.01 KCAL/MOL
REMARK 922        TOTAL FREE ENERGY PREDICTED BY IDOCK:   -9.62 KCAL/MOL
REMARK 923 INTER-LIGAND FREE ENERGY PREDICTED BY IDOCK:   -8.98 KCAL/MOL
REMARK 924 INTRA-LIGAND FREE ENERGY PREDICTED BY IDOCK:   -0.64 KCAL/MOL
REMARK 927      BINDING AFFINITY PREDICTED BY RF-SCORE:    0.00 PKD
ROOT
HETATM    1  C   UNL     1      -6.544   1.547  68.927  1.00  0.00    -0.029 C  
HETATM    2  N   UNL     1      -7.105   2.266  67.782  1.00  0.00    -0.047 NA 
HETATM    3  C   UNL     1      -8.567   2.420  67.919  1.00  0.00    -0.090 C  
HETATM    4  C   UNL     1      -9.009   3.508  68.925  1.00  0.00    -0.125 C  
HETATM    5  N   UNL     1      -8.405   4.840  68.690  1.00  0.00    -0.083 NA 
HETATM    6  C   UNL     1      -6.468   3.590  67.621  1.00  0.00    -0.037 C  
HETATM    7  C   UNL     1      -6.942   4.678  68.616  1.00  0.00    -0.052 C  
ENDROOT
BRANCH   5   8
HETATM    8  C   UNL     1      -8.930   5.514  67.481  1.00  0.00    -0.107 C  
BRANCH   8   9
HETATM    9  C   UNL     1      -9.241   6.973  67.748  1.00  0.00    -0.124 A  
HETATM   10  C   UNL     1      -9.285   7.437  69.069  1.00  0.00    -0.146 A  
HETATM   11  C   UNL     1      -9.891   8.657  69.355  1.00  0.00    -0.184 A  
HETATM   12  C   UNL     1     -10.451   9.425  68.325  1.00  0.00    -0.260 A  
HETATM   13  C   UNL     1      -9.674   7.806  66.708  1.00  0.00    -0.296 A  
HETATM   14  C   UNL     1     -10.287   9.027  66.993  1.00  0.00    -0.339 A  
BRANCH  12  15
HETATM   15  C   UNL     1     -11.340  10.551  68.720  1.00  0.00    -0.249 C  
HETATM   16  O   UNL     1     -12.083  11.040  67.874  1.00  0.00    -0.600 OA 
HETATM   17  N   UNL     1     -11.283  10.955  70.044  1.00  0.00    -0.390 N  
HETATM   18  H   UNL     1     -10.652  10.476  70.687  1.00  0.00     0.000 HD 
BRANCH  17  19
HETATM   19  C   UNL     1     -12.079  12.016  70.521  1.00  0.00    -0.311 A  
HETATM   20  C   UNL     1     -12.027  13.220  69.828  1.00  0.00    -0.391 A  
HETATM   21  C   UNL     1     -12.581  14.400  70.357  1.00  0.00    -0.345 A  
HETATM   22  C   UNL     1     -12.845  11.918  71.674  1.00  0.00    -0.417 A  
HETATM   23  C   UNL     1     -13.350  14.302  71.535  1.00  0.00    -0.429 A  
HETATM   24  C   UNL     1     -14.011  15.473  72.210  1.00  0.00    -0.642 C  
HETATM   25  C   UNL     1     -13.509  13.047  72.156  1.00  0.00    -0.638 A  
BRANCH  21  26
HETATM   26  N   UNL     1     -12.252  15.637  69.774  1.00  0.00    -0.479 NA 
HETATM   27  H   UNL     1     -13.019  16.304  69.693  1.00  0.00     0.000 HD 
BRANCH  26  28
HETATM   28  C   UNL     1     -11.016  16.076  69.292  1.00  0.00    -0.306 A  
HETATM   29  N   UNL     1     -10.895  17.381  69.034  1.00  0.00    -0.078 NA 
HETATM   30  C   UNL     1      -9.692  17.805  68.609  1.00  0.00    -0.346 A  
HETATM   31  C   UNL     1      -8.599  16.984  68.446  1.00  0.00    -0.243 A  
HETATM   32  C   UNL     1      -8.801  15.651  68.726  1.00  0.00    -0.208 A  
HETATM   33  N   UNL     1     -10.002  15.210  69.141  1.00  0.00    -0.229 NA 
BRANCH  32  34
HETATM   34  C   UNL     1      -7.768  14.604  68.614  1.00  0.00    -0.135 A  
HETATM   35  C   UNL     1      -6.676  14.518  69.477  1.00  0.00    -0.151 A  
HETATM   36  N   UNL     1      -5.691  13.586  69.402  1.00  0.00    -0.085 NA 
HETATM   37  C   UNL     1      -5.789  12.677  68.405  1.00  0.00    -0.059 A  
HETATM   38  C   UNL     1      -6.818  12.662  67.485  1.00  0.00    -0.151 A  
HETATM   39  C   UNL     1      -7.811  13.633  67.596  1.00  0.00    -0.178 A  
ENDBRANCH  32  34
ENDBRANCH  26  28
ENDBRANCH  21  26
ENDBRANCH  17  19
ENDBRANCH  12  15
ENDBRANCH   8   9
ENDBRANCH   5   8
TORSDOF 7
ENDMDL
MODEL       65
REMARK 921   NORMALIZED FREE ENERGY PREDICTED BY IDOCK:   -5.90 KCAL/MOL
REMARK 922        TOTAL FREE ENERGY PREDICTED BY IDOCK:   -9.47 KCAL/MOL
REMARK 923 INTER-LIGAND FREE ENERGY PREDICTED BY IDOCK:   -8.40 KCAL/MOL
REMARK 924 INTRA-LIGAND FREE ENERGY PREDICTED BY IDOCK:   -1.07 KCAL/MOL
REMARK 927      BINDING AFFINITY PREDICTED BY RF-SCORE:    0.00 PKD
ROOT
HETATM    1  C   UNL     1      -6.816  20.680  67.355  1.00  0.00    -0.337 C  
HETATM    2  N   UNL     1      -8.004  20.222  66.633  1.00  0.00    -0.280 NA 
HETATM    3  C   UNL     1      -7.916  18.779  66.331  1.00  0.00    -0.282 C  
HETATM    4  C   UNL     1      -8.187  17.851  67.537  1.00  0.00    -0.227 C  
HETATM    5  N   UNL     1      -9.465  18.118  68.238  1.00  0.00    -0.295 NA 
HETATM    6  C   UNL     1      -9.236  20.505  67.399  1.00  0.00    -0.348 C  
HETATM    7  C   UNL     1      -9.511  19.549  68.586  1.00  0.00    -0.397 C  
ENDROOT
BRANCH   5   8
HETATM    8  C   UNL     1     -10.656  17.719  67.454  1.00  0.00    -0.335 C  
BRANCH   8   9
HETATM    9  C   UNL     1     -10.672  16.228  67.186  1.00  0.00    -0.247 A  
HETATM   10  C   UNL     1     -10.570  15.334  68.259  1.00  0.00    -0.244 A  
HETATM   11  C   UNL     1     -10.242  14.003  68.023  1.00  0.00    -0.238 A  
HETATM   12  C   UNL     1     -10.021  13.552  66.715  1.00  0.00    -0.269 A  
HETATM   13  C   UNL     1     -10.589  15.745  65.873  1.00  0.00    -0.350 A  
HETATM   14  C   UNL     1     -10.255  14.411  65.634  1.00  0.00    -0.371 A  
BRANCH  12  15
HETATM   15  C   UNL     1      -9.384  12.218  66.551  1.00  0.00    -0.230 C  
HETATM   16  O   UNL     1      -8.402  11.945  67.236  1.00  0.00    -0.154 OA 
HETATM   17  N   UNL     1      -9.972  11.354  65.640  1.00  0.00    -0.229 N  
HETATM   18  H   UNL     1     -10.803  11.655  65.130  1.00  0.00     0.000 HD 
BRANCH  17  19
HETATM   19  C   UNL     1      -9.444  10.069  65.404  1.00  0.00    -0.250 A  
HETATM   20  C   UNL     1      -9.875   9.036  66.228  1.00  0.00    -0.361 A  
HETATM   21  C   UNL     1      -9.231   7.784  66.239  1.00  0.00    -0.166 A  
HETATM   22  C   UNL     1      -8.478   9.822  64.438  1.00  0.00    -0.185 A  
HETATM   23  C   UNL     1      -8.242   7.538  65.264  1.00  0.00    -0.130 A  
HETATM   24  C   UNL     1      -7.477   6.247  65.147  1.00  0.00    -0.082 C  
HETATM   25  C   UNL     1      -7.908   8.551  64.344  1.00  0.00    -0.140 A  
BRANCH  21  26
HETATM   26  N   UNL     1      -9.503   6.880  67.281  1.00  0.00    -0.133 NA 
HETATM   27  H   UNL     1     -10.162   6.135  67.058  1.00  0.00     0.000 HD 
BRANCH  26  28
HETATM   28  C   UNL     1      -8.991   6.864  68.581  1.00  0.00    -0.129 A  
HETATM   29  N   UNL     1      -8.022   7.740  68.862  1.00  0.00    -0.122 NA 
HETATM   30  C   UNL     1      -7.561   7.748  70.126  1.00  0.00    -0.085 A  
HETATM   31  C   UNL     1      -8.039   6.931  71.125  1.00  0.00    -0.110 A  
HETATM   32  C   UNL     1      -9.034   6.052  70.760  1.00  0.00    -0.149 A  
HETATM   33  N   UNL     1      -9.496   6.023  69.497  1.00  0.00    -0.138 NA 
BRANCH  32  34
HETATM   34  C   UNL     1      -9.681   5.090  71.672  1.00  0.00    -0.226 A  
HETATM   35  C   UNL     1     -10.724   5.438  72.530  1.00  0.00    -0.237 A  
HETATM   36  N   UNL     1     -11.336   4.594  73.400  1.00  0.00    -0.332 NA 
HETATM   37  C   UNL     1     -10.887   3.318  73.426  1.00  0.00    -0.208 A  
HETATM   38  C   UNL     1      -9.859   2.855  72.631  1.00  0.00    -0.207 A  
HETATM   39  C   UNL     1      -9.256   3.750  71.750  1.00  0.00    -0.179 A  
ENDBRANCH  32  34
ENDBRANCH  26  28
ENDBRANCH  21  26
ENDBRANCH  17  19
ENDBRANCH  12  15
ENDBRANCH   8   9
ENDBRANCH   5   8
TORSDOF 7
ENDMDL
MODEL       66
REMARK 921   NORMALIZED FREE ENERGY PREDICTED BY IDOCK:   -5.88 KCAL/MOL
REMARK 922        TOTAL FREE ENERGY PREDICTED BY IDOCK:   -9.44 KCAL/MOL
REMARK 923 INTER-LIGAND FREE ENERGY PREDICTED BY IDOCK:   -8.32 KCAL/MOL
REMARK 924 INTRA-LIGAND FREE ENERGY PREDICTED BY IDOCK:   -1.12 KCAL/MOL
REMARK 927      BINDING AFFINITY PREDICTED BY RF-SCORE:    0.00 PKD
ROOT
HETATM    1  C   UNL     1     -10.496  20.172  65.759  1.00  0.00    -0.280 C  
HETATM    2  N   UNL     1     -10.364  19.560  67.082  1.00  0.00    -0.419 NA 
HETATM    3  C   UNL     1     -10.633  18.110  67.024  1.00  0.00    -0.328 C  
HETATM    4  C   UNL     1      -9.484  17.265  66.426  1.00  0.00    -0.263 C  
HETATM    5  N   UNL     1      -8.167  17.484  67.068  1.00  0.00    -0.211 NA 
HETATM    6  C   UNL     1      -9.022  19.805  67.651  1.00  0.00    -0.329 C  
HETATM    7  C   UNL     1      -7.885  18.931  67.064  1.00  0.00    -0.243 C  
ENDROOT
BRANCH   5   8
HETATM    8  C   UNL     1      -8.083  16.927  68.437  1.00  0.00    -0.237 C  
BRANCH   8   9
HETATM    9  C   UNL     1      -8.349  15.435  68.447  1.00  0.00    -0.147 A  
HETATM   10  C   UNL     1      -7.487  14.577  67.754  1.00  0.00    -0.182 A  
HETATM   11  C   UNL     1      -7.889  13.276  67.464  1.00  0.00    -0.173 A  
HETATM   12  C   UNL     1      -9.150  12.820  67.870  1.00  0.00    -0.204 A  
HETATM   13  C   UNL     1      -9.549  14.934  68.973  1.00  0.00    -0.204 A  
HETATM   14  C   UNL     1      -9.956  13.632  68.679  1.00  0.00    -0.163 A  
BRANCH  12  15
HETATM   15  C   UNL     1      -9.640  11.547  67.277  1.00  0.00    -0.172 C  
HETATM   16  O   UNL     1     -10.563  11.589  66.469  1.00  0.00    -0.239 OA 
HETATM   17  N   UNL     1      -8.988  10.387  67.667  1.00  0.00    -0.137 N  
HETATM   18  H   UNL     1      -8.212  10.447  68.327  1.00  0.00     0.000 HD 
BRANCH  17  19
HETATM   19  C   UNL     1      -9.376   9.127  67.169  1.00  0.00    -0.143 A  
HETATM   20  C   UNL     1     -10.397   8.460  67.836  1.00  0.00    -0.279 A  
HETATM   21  C   UNL     1     -10.685   7.107  67.577  1.00  0.00    -0.274 A  
HETATM   22  C   UNL     1      -8.740   8.517  66.097  1.00  0.00    -0.176 A  
HETATM   23  C   UNL     1     -10.030   6.484  66.495  1.00  0.00    -0.154 A  
HETATM   24  C   UNL     1     -10.244   5.050  66.093  1.00  0.00    -0.288 C  
HETATM   25  C   UNL     1      -9.094   7.216  65.738  1.00  0.00     0.015 A  
BRANCH  21  26
HETATM   26  N   UNL     1     -11.510   6.397  68.468  1.00  0.00    -0.494 NA 
HETATM   27  H   UNL     1     -12.320   5.939  68.049  1.00  0.00     0.000 HD 
BRANCH  26  28
HETATM   28  C   UNL     1     -11.370   6.232  69.848  1.00  0.00    -0.434 A  
HETATM   29  N   UNL     1     -12.135   6.998  70.630  1.00  0.00    -0.322 NA 
HETATM   30  C   UNL     1     -12.027   6.807  71.958  1.00  0.00    -0.317 A  
HETATM   31  C   UNL     1     -11.199   5.871  72.535  1.00  0.00    -0.341 A  
HETATM   32  C   UNL     1     -10.439   5.121  71.666  1.00  0.00    -0.185 A  
HETATM   33  N   UNL     1     -10.527   5.310  70.337  1.00  0.00    -0.272 NA 
BRANCH  32  34
HETATM   34  C   UNL     1      -9.488   4.071  72.075  1.00  0.00    -0.198 A  
HETATM   35  C   UNL     1      -8.219   4.349  72.582  1.00  0.00    -0.105 A  
HETATM   36  N   UNL     1      -7.302   3.418  72.953  1.00  0.00    -0.049 NA 
HETATM   37  C   UNL     1      -7.663   2.121  72.812  1.00  0.00    -0.051 A  
HETATM   38  C   UNL     1      -8.887   1.719  72.316  1.00  0.00    -0.091 A  
HETATM   39  C   UNL     1      -9.801   2.704  71.948  1.00  0.00    -0.227 A  
ENDBRANCH  32  34
ENDBRANCH  26  28
ENDBRANCH  21  26
ENDBRANCH  17  19
ENDBRANCH  12  15
ENDBRANCH   8   9
ENDBRANCH   5   8
TORSDOF 7
ENDMDL
MODEL       67
REMARK 921   NORMALIZED FREE ENERGY PREDICTED BY IDOCK:   -5.81 KCAL/MOL
REMARK 922        TOTAL FREE ENERGY PREDICTED BY IDOCK:   -9.34 KCAL/MOL
REMARK 923 INTER-LIGAND FREE ENERGY PREDICTED BY IDOCK:   -8.56 KCAL/MOL
REMARK 924 INTRA-LIGAND FREE ENERGY PREDICTED BY IDOCK:   -0.78 KCAL/MOL
REMARK 927      BINDING AFFINITY PREDICTED BY RF-SCORE:    0.00 PKD
ROOT
HETATM    1  C   UNL     1      -5.962  19.308  66.747  1.00  0.00    -0.162 C  
HETATM    2  N   UNL     1      -7.044  19.417  67.727  1.00  0.00    -0.240 NA 
HETATM    3  C   UNL     1      -8.304  19.831  67.079  1.00  0.00    -0.309 C  
HETATM    4  C   UNL     1      -9.020  18.711  66.289  1.00  0.00    -0.219 C  
HETATM    5  N   UNL     1      -9.263  17.473  67.066  1.00  0.00    -0.242 NA 
HETATM    6  C   UNL     1      -7.239  18.142  68.450  1.00  0.00    -0.260 C  
HETATM    7  C   UNL     1      -7.984  17.040  67.657  1.00  0.00    -0.176 C  
ENDROOT
BRANCH   5   8
HETATM    8  C   UNL     1     -10.305  17.631  68.106  1.00  0.00    -0.386 C  
BRANCH   8   9
HETATM    9  C   UNL     1     -10.764  16.290  68.641  1.00  0.00    -0.309 A  
HETATM   10  C   UNL     1      -9.883  15.516  69.408  1.00  0.00    -0.283 A  
HETATM   11  C   UNL     1     -10.148  14.166  69.616  1.00  0.00     0.418 A  
HETATM   12  C   UNL     1     -11.296  13.579  69.067  1.00  0.00    -0.336 A  
HETATM   13  C   UNL     1     -11.978  15.735  68.213  1.00  0.00     0.032 A  
HETATM   14  C   UNL     1     -12.243  14.380  68.416  1.00  0.00    -0.178 A  
BRANCH  12  15
HETATM   15  C   UNL     1     -11.367  12.093  69.062  1.00  0.00    -0.276 C  
HETATM   16  O   UNL     1     -12.010  11.536  68.177  1.00  0.00    -0.571 OA 
HETATM   17  N   UNL     1     -10.668  11.433  70.061  1.00  0.00    -0.328 N  
HETATM   18  H   UNL     1     -10.138  11.976  70.744  1.00  0.00     0.000 HD 
BRANCH  17  19
HETATM   19  C   UNL     1     -10.675  10.027  70.152  1.00  0.00    -0.307 A  
HETATM   20  C   UNL     1      -9.704   9.332  69.441  1.00  0.00    -0.175 A  
HETATM   21  C   UNL     1      -9.775   7.938  69.264  1.00  0.00    -0.159 A  
HETATM   22  C   UNL     1     -11.641   9.327  70.861  1.00  0.00    -0.364 A  
HETATM   23  C   UNL     1     -10.765   7.229  69.977  1.00  0.00    -0.261 A  
HETATM   24  C   UNL     1     -10.955   5.738  69.897  1.00  0.00    -0.389 C  
HETATM   25  C   UNL     1     -11.661   7.933  70.804  1.00  0.00    -0.258 A  
BRANCH  21  26
HETATM   26  N   UNL     1      -8.952   7.322  68.304  1.00  0.00    -0.126 NA 
HETATM   27  H   UNL     1      -8.584   6.406  68.561  1.00  0.00     0.000 HD 
BRANCH  26  28
HETATM   28  C   UNL     1      -8.570   7.795  67.047  1.00  0.00    -0.129 A  
HETATM   29  N   UNL     1      -7.592   7.133  66.422  1.00  0.00    -0.090 NA 
HETATM   30  C   UNL     1      -7.256   7.567  65.194  1.00  0.00    -0.066 A  
HETATM   31  C   UNL     1      -7.867   8.623  64.556  1.00  0.00    -0.132 A  
HETATM   32  C   UNL     1      -8.863   9.258  65.263  1.00  0.00    -0.198 A  
HETATM   33  N   UNL     1      -9.202   8.843  66.497  1.00  0.00    -0.169 NA 
BRANCH  32  34
HETATM   34  C   UNL     1      -9.641  10.409  64.768  1.00  0.00    -0.352 A  
HETATM   35  C   UNL     1      -9.769  10.714  63.413  1.00  0.00    -0.339 A  
HETATM   36  N   UNL     1     -10.457  11.772  62.910  1.00  0.00    -0.132 NA 
HETATM   37  C   UNL     1     -11.057  12.588  63.807  1.00  0.00    -0.448 A  
HETATM   38  C   UNL     1     -10.997  12.396  65.173  1.00  0.00    -0.339 A  
HETATM   39  C   UNL     1     -10.283  11.298  65.650  1.00  0.00    -0.304 A  
ENDBRANCH  32  34
ENDBRANCH  26  28
ENDBRANCH  21  26
ENDBRANCH  17  19
ENDBRANCH  12  15
ENDBRANCH   8   9
ENDBRANCH   5   8
TORSDOF 7
ENDMDL
MODEL       68
REMARK 921   NORMALIZED FREE ENERGY PREDICTED BY IDOCK:   -5.80 KCAL/MOL
REMARK 922        TOTAL FREE ENERGY PREDICTED BY IDOCK:   -9.33 KCAL/MOL
REMARK 923 INTER-LIGAND FREE ENERGY PREDICTED BY IDOCK:   -8.00 KCAL/MOL
REMARK 924 INTRA-LIGAND FREE ENERGY PREDICTED BY IDOCK:   -1.33 KCAL/MOL
REMARK 927      BINDING AFFINITY PREDICTED BY RF-SCORE:    0.00 PKD
ROOT
HETATM    1  C   UNL     1     -10.297  20.187  66.683  1.00  0.00    -0.380 C  
HETATM    2  N   UNL     1      -9.221  19.445  67.340  1.00  0.00    -0.299 NA 
HETATM    3  C   UNL     1      -9.729  18.700  68.508  1.00  0.00    -0.370 C  
HETATM    4  C   UNL     1     -10.515  17.415  68.160  1.00  0.00    -0.389 C  
HETATM    5  N   UNL     1      -9.791  16.477  67.270  1.00  0.00    -0.249 NA 
HETATM    6  C   UNL     1      -8.557  18.520  66.397  1.00  0.00    -0.256 C  
HETATM    7  C   UNL     1      -9.343  17.223  66.080  1.00  0.00    -0.168 C  
ENDROOT
BRANCH   5   8
HETATM    8  C   UNL     1      -8.656  15.799  67.935  1.00  0.00    -0.159 C  
BRANCH   8   9
HETATM    9  C   UNL     1      -8.476  14.385  67.421  1.00  0.00    -0.216 A  
HETATM   10  C   UNL     1      -9.596  13.655  67.005  1.00  0.00    -0.251 A  
HETATM   11  C   UNL     1      -9.508  12.274  66.859  1.00  0.00    -0.217 A  
HETATM   12  C   UNL     1      -8.301  11.611  67.120  1.00  0.00    -0.164 A  
HETATM   13  C   UNL     1      -7.237  13.740  67.544  1.00  0.00    -0.173 A  
HETATM   14  C   UNL     1      -7.148  12.354  67.403  1.00  0.00    -0.152 A  
BRANCH  12  15
HETATM   15  C   UNL     1      -8.348  10.130  67.243  1.00  0.00    -0.121 C  
HETATM   16  O   UNL     1      -7.536   9.573  67.975  1.00  0.00    -0.082 OA 
HETATM   17  N   UNL     1      -9.341   9.477  66.529  1.00  0.00    -0.161 N  
HETATM   18  H   UNL     1      -9.991  10.022  65.962  1.00  0.00     0.000 HD 
BRANCH  17  19
HETATM   19  C   UNL     1      -9.469   8.074  66.571  1.00  0.00    -0.214 A  
HETATM   20  C   UNL     1     -10.323   7.534  67.526  1.00  0.00    -0.321 A  
HETATM   21  C   UNL     1     -10.331   6.157  67.813  1.00  0.00    -0.198 A  
HETATM   22  C   UNL     1      -8.735   7.230  65.749  1.00  0.00    -0.129 A  
HETATM   23  C   UNL     1      -9.575   5.301  66.985  1.00  0.00    -0.150 A  
HETATM   24  C   UNL     1      -9.496   3.809  67.163  1.00  0.00    -0.234 C  
HETATM   25  C   UNL     1      -8.819   5.849  65.930  1.00  0.00    -0.154 A  
BRANCH  21  26
HETATM   26  N   UNL     1     -10.981   5.700  68.974  1.00  0.00    -0.197 NA 
HETATM   27  H   UNL     1     -11.451   4.798  68.890  1.00  0.00     0.000 HD 
BRANCH  26  28
HETATM   28  C   UNL     1     -11.071   6.313  70.226  1.00  0.00    -0.364 A  
HETATM   29  N   UNL     1     -12.268   6.787  70.584  1.00  0.00    -0.342 NA 
HETATM   30  C   UNL     1     -12.358   7.339  71.807  1.00  0.00    -0.341 A  
HETATM   31  C   UNL     1     -11.309   7.423  72.694  1.00  0.00    -0.360 A  
HETATM   32  C   UNL     1     -10.107   6.917  72.254  1.00  0.00    -0.176 A  
HETATM   33  N   UNL     1      -9.997   6.373  71.028  1.00  0.00    -0.180 NA 
BRANCH  32  34
HETATM   34  C   UNL     1      -8.860   6.910  73.042  1.00  0.00    -0.144 A  
HETATM   35  C   UNL     1      -8.325   5.753  73.608  1.00  0.00    -0.110 A  
HETATM   36  N   UNL     1      -7.193   5.699  74.357  1.00  0.00    -0.085 NA 
HETATM   37  C   UNL     1      -6.544   6.869  74.562  1.00  0.00    -0.087 A  
HETATM   38  C   UNL     1      -6.978   8.080  74.060  1.00  0.00    -0.159 A  
HETATM   39  C   UNL     1      -8.143   8.094  73.295  1.00  0.00    -0.246 A  
ENDBRANCH  32  34
ENDBRANCH  26  28
ENDBRANCH  21  26
ENDBRANCH  17  19
ENDBRANCH  12  15
ENDBRANCH   8   9
ENDBRANCH   5   8
TORSDOF 7
ENDMDL
MODEL       69
REMARK 921   NORMALIZED FREE ENERGY PREDICTED BY IDOCK:   -5.71 KCAL/MOL
REMARK 922        TOTAL FREE ENERGY PREDICTED BY IDOCK:   -9.19 KCAL/MOL
REMARK 923 INTER-LIGAND FREE ENERGY PREDICTED BY IDOCK:   -9.56 KCAL/MOL
REMARK 924 INTRA-LIGAND FREE ENERGY PREDICTED BY IDOCK:    0.37 KCAL/MOL
REMARK 927      BINDING AFFINITY PREDICTED BY RF-SCORE:    0.00 PKD
ROOT
HETATM    1  C   UNL     1      -8.971   1.549  69.074  1.00  0.00    -0.089 C  
HETATM    2  N   UNL     1      -8.078   2.513  68.428  1.00  0.00    -0.057 NA 
HETATM    3  C   UNL     1      -8.144   2.392  66.958  1.00  0.00    -0.073 C  
HETATM    4  C   UNL     1      -9.410   3.009  66.318  1.00  0.00    -0.069 C  
HETATM    5  N   UNL     1      -9.661   4.419  66.696  1.00  0.00    -0.201 NA 
HETATM    6  C   UNL     1      -8.399   3.896  68.839  1.00  0.00    -0.073 C  
HETATM    7  C   UNL     1      -9.652   4.512  68.167  1.00  0.00    -0.146 C  
ENDROOT
BRANCH   5   8
HETATM    8  C   UNL     1      -8.696   5.367  66.095  1.00  0.00    -0.129 C  
BRANCH   8   9
HETATM    9  C   UNL     1      -9.230   6.785  66.105  1.00  0.00    -0.120 A  
HETATM   10  C   UNL     1      -8.478   7.809  65.515  1.00  0.00    -0.146 A  
HETATM   11  C   UNL     1      -8.770   9.138  65.804  1.00  0.00    -0.192 A  
HETATM   12  C   UNL     1      -9.818   9.456  66.679  1.00  0.00    -0.309 A  
HETATM   13  C   UNL     1     -10.362   7.109  66.866  1.00  0.00    -0.349 A  
HETATM   14  C   UNL     1     -10.653   8.441  67.162  1.00  0.00    -0.326 A  
BRANCH  12  15
HETATM   15  C   UNL     1      -9.885  10.854  67.183  1.00  0.00    -0.184 C  
HETATM   16  O   UNL     1      -8.944  11.291  67.839  1.00  0.00    -0.138 OA 
HETATM   17  N   UNL     1     -11.015  11.584  66.845  1.00  0.00    -0.284 N  
HETATM   18  H   UNL     1     -11.740  11.149  66.274  1.00  0.00     0.000 HD 
BRANCH  17  19
HETATM   19  C   UNL     1     -11.182  12.915  67.277  1.00  0.00    -0.288 A  
HETATM   20  C   UNL     1     -10.686  13.923  66.459  1.00  0.00    -0.277 A  
HETATM   21  C   UNL     1     -10.579  15.252  66.909  1.00  0.00    -0.304 A  
HETATM   22  C   UNL     1     -11.754  13.240  68.500  1.00  0.00    -0.388 A  
HETATM   23  C   UNL     1     -11.151  15.579  68.156  1.00  0.00    -0.325 A  
HETATM   24  C   UNL     1     -11.124  16.956  68.761  1.00  0.00    -0.160 C  
HETATM   25  C   UNL     1     -11.773  14.570  68.919  1.00  0.00    -0.354 A  
BRANCH  21  26
HETATM   26  N   UNL     1      -9.809  16.169  66.171  1.00  0.00    -0.310 NA 
HETATM   27  H   UNL     1      -9.241  15.767  65.425  1.00  0.00     0.000 HD 
BRANCH  26  28
HETATM   28  C   UNL     1      -9.718  17.555  66.320  1.00  0.00    -0.258 A  
HETATM   29  N   UNL     1     -10.700  18.288  65.788  1.00  0.00    -0.450 NA 
HETATM   30  C   UNL     1     -10.628  19.619  65.969  1.00  0.00    -0.483 A  
HETATM   31  C   UNL     1      -9.627  20.247  66.675  1.00  0.00    -0.522 A  
HETATM   32  C   UNL     1      -8.649  19.427  67.191  1.00  0.00    -0.294 A  
HETATM   33  N   UNL     1      -8.700  18.096  67.007  1.00  0.00    -0.252 NA 
BRANCH  32  34
HETATM   34  C   UNL     1      -7.488  19.894  67.973  1.00  0.00    -0.332 A  
HETATM   35  C   UNL     1      -7.311  19.595  69.323  1.00  0.00    -0.259 A  
HETATM   36  N   UNL     1      -6.272  20.018  70.089  1.00  0.00    -0.354 NA 
HETATM   37  C   UNL     1      -5.344  20.791  69.480  1.00  0.00    -0.371 A  
HETATM   38  C   UNL     1      -5.412  21.161  68.152  1.00  0.00    -0.363 A  
HETATM   39  C   UNL     1      -6.492  20.706  67.398  1.00  0.00    -0.332 A  
ENDBRANCH  32  34
ENDBRANCH  26  28
ENDBRANCH  21  26
ENDBRANCH  17  19
ENDBRANCH  12  15
ENDBRANCH   8   9
ENDBRANCH   5   8
TORSDOF 7
ENDMDL
MODEL       70
REMARK 921   NORMALIZED FREE ENERGY PREDICTED BY IDOCK:   -5.70 KCAL/MOL
REMARK 922        TOTAL FREE ENERGY PREDICTED BY IDOCK:   -9.19 KCAL/MOL
REMARK 923 INTER-LIGAND FREE ENERGY PREDICTED BY IDOCK:   -8.73 KCAL/MOL
REMARK 924 INTRA-LIGAND FREE ENERGY PREDICTED BY IDOCK:   -0.45 KCAL/MOL
REMARK 927      BINDING AFFINITY PREDICTED BY RF-SCORE:    0.00 PKD
ROOT
HETATM    1  C   UNL     1      -5.536  17.496  67.519  1.00  0.00    -0.130 C  
HETATM    2  N   UNL     1      -6.518  17.972  68.494  1.00  0.00    -0.202 NA 
HETATM    3  C   UNL     1      -7.505  18.866  67.857  1.00  0.00    -0.246 C  
HETATM    4  C   UNL     1      -8.575  18.143  67.007  1.00  0.00    -0.254 C  
HETATM    5  N   UNL     1      -9.296  17.063  67.721  1.00  0.00    -0.234 NA 
HETATM    6  C   UNL     1      -7.207  16.843  69.152  1.00  0.00    -0.209 C  
HETATM    7  C   UNL     1      -8.297  16.146  68.300  1.00  0.00    -0.171 C  
ENDROOT
BRANCH   5   8
HETATM    8  C   UNL     1     -10.224  17.567  68.759  1.00  0.00    -0.373 C  
BRANCH   8   9
HETATM    9  C   UNL     1     -11.114  16.462  69.291  1.00  0.00    -0.297 A  
HETATM   10  C   UNL     1     -11.256  16.298  70.675  1.00  0.00    -0.310 A  
HETATM   11  C   UNL     1     -11.776  15.112  71.182  1.00  0.00    -0.400 A  
HETATM   12  C   UNL     1     -12.163  14.082  70.314  1.00  0.00    -0.430 A  
HETATM   13  C   UNL     1     -11.631  15.491  68.423  1.00  0.00    -0.368 A  
HETATM   14  C   UNL     1     -12.148  14.297  68.930  1.00  0.00    -0.314 A  
BRANCH  12  15
HETATM   15  C   UNL     1     -12.418  12.745  70.912  1.00  0.00    -0.283 C  
HETATM   16  O   UNL     1     -13.354  12.618  71.696  1.00  0.00    -0.367 OA 
HETATM   17  N   UNL     1     -11.582  11.714  70.513  1.00  0.00    -0.454 N  
HETATM   18  H   UNL     1     -10.842  11.903  69.836  1.00  0.00     0.000 HD 
BRANCH  17  19
HETATM   19  C   UNL     1     -11.733  10.409  71.024  1.00  0.00    -0.337 A  
HETATM   20  C   UNL     1     -10.624   9.573  70.989  1.00  0.00    -0.392 A  
HETATM   21  C   UNL     1     -10.733   8.192  71.240  1.00  0.00    -0.227 A  
HETATM   22  C   UNL     1     -12.947   9.923  71.490  1.00  0.00    -0.523 A  
HETATM   23  C   UNL     1     -11.970   7.698  71.702  1.00  0.00    -0.329 A  
HETATM   24  C   UNL     1     -12.234   6.251  72.021  1.00  0.00    -0.270 C  
HETATM   25  C   UNL     1     -13.054   8.583  71.864  1.00  0.00    -0.391 A  
BRANCH  21  26
HETATM   26  N   UNL     1      -9.661   7.345  70.907  1.00  0.00    -0.166 NA 
HETATM   27  H   UNL     1      -9.778   6.364  71.162  1.00  0.00     0.000 HD 
BRANCH  26  28
HETATM   28  C   UNL     1      -8.457   7.664  70.274  1.00  0.00    -0.134 A  
HETATM   29  N   UNL     1      -7.331   7.282  70.885  1.00  0.00    -0.073 NA 
HETATM   30  C   UNL     1      -6.177   7.556  70.252  1.00  0.00    -0.034 A  
HETATM   31  C   UNL     1      -6.099   8.179  69.026  1.00  0.00    -0.039 A  
HETATM   32  C   UNL     1      -7.299   8.547  68.461  1.00  0.00    -0.092 A  
HETATM   33  N   UNL     1      -8.461   8.291  69.088  1.00  0.00    -0.126 NA 
BRANCH  32  34
HETATM   34  C   UNL     1      -7.441   9.227  67.160  1.00  0.00    -0.091 A  
HETATM   35  C   UNL     1      -8.427  10.179  66.903  1.00  0.00    -0.126 A  
HETATM   36  N   UNL     1      -8.609  10.817  65.718  1.00  0.00    -0.181 NA 
HETATM   37  C   UNL     1      -7.759  10.492  64.716  1.00  0.00     0.000 A  
HETATM   38  C   UNL     1      -6.748   9.561  64.845  1.00  0.00    -0.094 A  
HETATM   39  C   UNL     1      -6.592   8.929  66.077  1.00  0.00    -0.065 A  
ENDBRANCH  32  34
ENDBRANCH  26  28
ENDBRANCH  21  26
ENDBRANCH  17  19
ENDBRANCH  12  15
ENDBRANCH   8   9
ENDBRANCH   5   8
TORSDOF 7
ENDMDL
MODEL       71
REMARK 921   NORMALIZED FREE ENERGY PREDICTED BY IDOCK:   -5.69 KCAL/MOL
REMARK 922        TOTAL FREE ENERGY PREDICTED BY IDOCK:   -9.18 KCAL/MOL
REMARK 923 INTER-LIGAND FREE ENERGY PREDICTED BY IDOCK:   -7.94 KCAL/MOL
REMARK 924 INTRA-LIGAND FREE ENERGY PREDICTED BY IDOCK:   -1.24 KCAL/MOL
REMARK 927      BINDING AFFINITY PREDICTED BY RF-SCORE:    0.00 PKD
ROOT
HETATM    1  C   UNL     1      -7.673   2.385  62.915  1.00  0.00    -0.058 C  
HETATM    2  N   UNL     1      -8.358   2.191  64.194  1.00  0.00    -0.081 NA 
HETATM    3  C   UNL     1      -7.794   3.071  65.235  1.00  0.00    -0.082 C  
HETATM    4  C   UNL     1      -8.228   4.552  65.132  1.00  0.00    -0.112 C  
HETATM    5  N   UNL     1      -9.695   4.756  65.072  1.00  0.00    -0.072 NA 
HETATM    6  C   UNL     1      -9.811   2.428  64.061  1.00  0.00    -0.129 C  
HETATM    7  C   UNL     1     -10.235   3.916  63.988  1.00  0.00    -0.208 C  
ENDROOT
BRANCH   5   8
HETATM    8  C   UNL     1     -10.377   4.476  66.356  1.00  0.00    -0.156 C  
BRANCH   8   9
HETATM    9  C   UNL     1     -10.416   5.702  67.244  1.00  0.00    -0.322 A  
HETATM   10  C   UNL     1     -10.735   6.947  66.687  1.00  0.00    -0.161 A  
HETATM   11  C   UNL     1     -10.449   8.114  67.387  1.00  0.00    -0.356 A  
HETATM   12  C   UNL     1      -9.849   8.049  68.652  1.00  0.00    -0.182 A  
HETATM   13  C   UNL     1      -9.948   5.636  68.563  1.00  0.00    -0.205 A  
HETATM   14  C   UNL     1      -9.655   6.806  69.266  1.00  0.00    -0.144 A  
BRANCH  12  15
HETATM   15  C   UNL     1      -9.296   9.312  69.211  1.00  0.00    -0.160 C  
HETATM   16  O   UNL     1      -9.979   9.957  70.000  1.00  0.00    -0.242 OA 
HETATM   17  N   UNL     1      -8.014   9.660  68.812  1.00  0.00    -0.087 N  
HETATM   18  H   UNL     1      -7.507   9.051  68.169  1.00  0.00     0.000 HD 
BRANCH  17  19
HETATM   19  C   UNL     1      -7.399  10.839  69.277  1.00  0.00    -0.129 A  
HETATM   20  C   UNL     1      -7.733  12.031  68.645  1.00  0.00    -0.099 A  
HETATM   21  C   UNL     1      -6.998  13.212  68.862  1.00  0.00    -0.093 A  
HETATM   22  C   UNL     1      -6.440  10.838  70.282  1.00  0.00    -0.128 A  
HETATM   23  C   UNL     1      -6.017  13.206  69.875  1.00  0.00    -0.138 A  
HETATM   24  C   UNL     1      -5.163  14.394  70.227  1.00  0.00    -0.098 C  
HETATM   25  C   UNL     1      -5.781  12.025  70.605  1.00  0.00    -0.127 A  
BRANCH  21  26
HETATM   26  N   UNL     1      -7.177  14.303  67.993  1.00  0.00    -0.124 NA 
HETATM   27  H   UNL     1      -6.326  14.795  67.723  1.00  0.00     0.000 HD 
BRANCH  26  28
HETATM   28  C   UNL     1      -8.363  14.804  67.450  1.00  0.00    -0.200 A  
HETATM   29  N   UNL     1      -8.715  16.044  67.803  1.00  0.00    -0.167 NA 
HETATM   30  C   UNL     1      -9.835  16.537  67.245  1.00  0.00    -0.254 A  
HETATM   31  C   UNL     1     -10.610  15.851  66.337  1.00  0.00    -0.298 A  
HETATM   32  C   UNL     1     -10.187  14.578  66.025  1.00  0.00    -0.315 A  
HETATM   33  N   UNL     1      -9.075  14.067  66.584  1.00  0.00    -0.234 NA 
BRANCH  32  34
HETATM   34  C   UNL     1     -10.871  13.674  65.082  1.00  0.00    -0.338 A  
HETATM   35  C   UNL     1     -12.050  14.017  64.420  1.00  0.00    -0.458 A  
HETATM   36  N   UNL     1     -12.726  13.213  63.559  1.00  0.00    -0.682 NA 
HETATM   37  C   UNL     1     -12.203  11.985  63.337  1.00  0.00    -0.519 A  
HETATM   38  C   UNL     1     -11.047  11.528  63.937  1.00  0.00    -0.458 A  
HETATM   39  C   UNL     1     -10.380  12.383  64.813  1.00  0.00    -0.324 A  
ENDBRANCH  32  34
ENDBRANCH  26  28
ENDBRANCH  21  26
ENDBRANCH  17  19
ENDBRANCH  12  15
ENDBRANCH   8   9
ENDBRANCH   5   8
TORSDOF 7
ENDMDL
MODEL       72
REMARK 921   NORMALIZED FREE ENERGY PREDICTED BY IDOCK:   -5.69 KCAL/MOL
REMARK 922        TOTAL FREE ENERGY PREDICTED BY IDOCK:   -9.17 KCAL/MOL
REMARK 923 INTER-LIGAND FREE ENERGY PREDICTED BY IDOCK:   -7.91 KCAL/MOL
REMARK 924 INTRA-LIGAND FREE ENERGY PREDICTED BY IDOCK:   -1.26 KCAL/MOL
REMARK 927      BINDING AFFINITY PREDICTED BY RF-SCORE:    0.00 PKD
ROOT
HETATM    1  C   UNL     1     -13.165  15.820  71.612  1.00  0.00    -0.386 C  
HETATM    2  N   UNL     1     -11.875  15.184  71.340  1.00  0.00    -0.333 NA 
HETATM    3  C   UNL     1     -12.038  13.737  71.102  1.00  0.00    -0.185 C  
HETATM    4  C   UNL     1     -12.605  13.373  69.710  1.00  0.00     0.080 C  
HETATM    5  N   UNL     1     -11.862  13.966  68.573  1.00  0.00    -0.351 NA 
HETATM    6  C   UNL     1     -11.202  15.816  70.186  1.00  0.00    -0.349 C  
HETATM    7  C   UNL     1     -11.761  15.420  68.796  1.00  0.00    -0.351 C  
ENDROOT
BRANCH   5   8
HETATM    8  C   UNL     1     -10.526  13.362  68.368  1.00  0.00    -0.250 C  
BRANCH   8   9
HETATM    9  C   UNL     1     -10.610  11.854  68.256  1.00  0.00    -0.236 A  
HETATM   10  C   UNL     1     -10.183  11.058  69.327  1.00  0.00    -0.153 A  
HETATM   11  C   UNL     1      -9.931   9.705  69.127  1.00  0.00    -0.189 A  
HETATM   12  C   UNL     1     -10.109   9.133  67.860  1.00  0.00    -0.246 A  
HETATM   13  C   UNL     1     -10.921  11.252  67.029  1.00  0.00    -0.352 A  
HETATM   14  C   UNL     1     -10.663   9.895  66.825  1.00  0.00    -0.154 A  
BRANCH  12  15
HETATM   15  C   UNL     1      -9.539   7.777  67.638  1.00  0.00    -0.146 C  
HETATM   16  O   UNL     1      -8.718   7.343  68.440  1.00  0.00    -0.124 OA 
HETATM   17  N   UNL     1     -10.006   7.079  66.534  1.00  0.00    -0.399 N  
HETATM   18  H   UNL     1     -10.709   7.507  65.932  1.00  0.00     0.000 HD 
BRANCH  17  19
HETATM   19  C   UNL     1      -9.527   5.789  66.229  1.00  0.00    -0.148 A  
HETATM   20  C   UNL     1      -9.916   4.745  67.060  1.00  0.00    -0.235 A  
HETATM   21  C   UNL     1      -9.302   3.481  66.992  1.00  0.00    -0.194 A  
HETATM   22  C   UNL     1      -8.646   5.545  65.185  1.00  0.00    -0.141 A  
HETATM   23  C   UNL     1      -8.398   3.238  65.937  1.00  0.00    -0.103 A  
HETATM   24  C   UNL     1      -7.674   1.935  65.731  1.00  0.00    -0.071 C  
HETATM   25  C   UNL     1      -8.114   4.266  65.017  1.00  0.00    -0.098 A  
BRANCH  21  26
HETATM   26  N   UNL     1      -9.512   2.557  68.032  1.00  0.00    -0.280 NA 
HETATM   27  H   UNL     1      -9.713   1.601  67.738  1.00  0.00     0.000 HD 
BRANCH  26  28
HETATM   28  C   UNL     1      -9.482   2.771  69.412  1.00  0.00    -0.075 A  
HETATM   29  N   UNL     1      -8.915   1.821  70.160  1.00  0.00    -0.071 NA 
HETATM   30  C   UNL     1      -8.852   2.050  71.484  1.00  0.00    -0.066 A  
HETATM   31  C   UNL     1      -9.315   3.196  72.090  1.00  0.00    -0.181 A  
HETATM   32  C   UNL     1      -9.890   4.128  71.255  1.00  0.00    -0.179 A  
HETATM   33  N   UNL     1      -9.971   3.907  69.931  1.00  0.00    -0.050 NA 
BRANCH  32  34
HETATM   34  C   UNL     1     -10.451   5.418  71.698  1.00  0.00    -0.291 A  
HETATM   35  C   UNL     1     -10.309   5.903  72.998  1.00  0.00    -0.203 A  
HETATM   36  N   UNL     1     -10.823   7.073  73.458  1.00  0.00    -0.323 NA 
HETATM   37  C   UNL     1     -11.529   7.816  72.573  1.00  0.00    -0.373 A  
HETATM   38  C   UNL     1     -11.744   7.440  71.263  1.00  0.00    -0.316 A  
HETATM   39  C   UNL     1     -11.199   6.233  70.828  1.00  0.00    -0.387 A  
ENDBRANCH  32  34
ENDBRANCH  26  28
ENDBRANCH  21  26
ENDBRANCH  17  19
ENDBRANCH  12  15
ENDBRANCH   8   9
ENDBRANCH   5   8
TORSDOF 7
ENDMDL
MODEL       73
REMARK 921   NORMALIZED FREE ENERGY PREDICTED BY IDOCK:   -5.66 KCAL/MOL
REMARK 922        TOTAL FREE ENERGY PREDICTED BY IDOCK:   -9.13 KCAL/MOL
REMARK 923 INTER-LIGAND FREE ENERGY PREDICTED BY IDOCK:   -8.17 KCAL/MOL
REMARK 924 INTRA-LIGAND FREE ENERGY PREDICTED BY IDOCK:   -0.96 KCAL/MOL
REMARK 927      BINDING AFFINITY PREDICTED BY RF-SCORE:    0.00 PKD
ROOT
HETATM    1  C   UNL     1      -8.013   2.760  73.335  1.00  0.00    -0.060 C  
HETATM    2  N   UNL     1      -9.211   3.588  73.182  1.00  0.00    -0.097 NA 
HETATM    3  C   UNL     1      -8.852   4.984  72.863  1.00  0.00    -0.117 C  
HETATM    4  C   UNL     1      -8.404   5.216  71.402  1.00  0.00    -0.119 C  
HETATM    5  N   UNL     1      -9.360   4.720  70.383  1.00  0.00    -0.139 NA 
HETATM    6  C   UNL     1     -10.107   3.043  72.140  1.00  0.00    -0.132 C  
HETATM    7  C   UNL     1      -9.661   3.308  70.680  1.00  0.00    -0.153 C  
ENDROOT
BRANCH   5   8
HETATM    8  C   UNL     1     -10.599   5.526  70.304  1.00  0.00    -0.287 C  
BRANCH   8   9
HETATM    9  C   UNL     1     -10.380   6.806  69.524  1.00  0.00    -0.225 A  
HETATM   10  C   UNL     1     -10.225   8.016  70.213  1.00  0.00    -0.200 A  
HETATM   11  C   UNL     1     -10.365   9.223  69.535  1.00  0.00    -0.223 A  
HETATM   12  C   UNL     1     -10.654   9.233  68.163  1.00  0.00    -0.248 A  
HETATM   13  C   UNL     1     -10.529   6.819  68.130  1.00  0.00    -0.251 A  
HETATM   14  C   UNL     1     -10.675   8.029  67.449  1.00  0.00    -0.260 A  
BRANCH  12  15
HETATM   15  C   UNL     1     -11.089  10.524  67.567  1.00  0.00    -0.290 C  
HETATM   16  O   UNL     1     -12.020  11.131  68.089  1.00  0.00    -0.615 OA 
HETATM   17  N   UNL     1     -10.382  10.969  66.461  1.00  0.00    -0.238 N  
HETATM   18  H   UNL     1      -9.605  10.411  66.106  1.00  0.00     0.000 HD 
BRANCH  17  19
HETATM   19  C   UNL     1     -10.717  12.176  65.816  1.00  0.00    -0.267 A  
HETATM   20  C   UNL     1      -9.795  13.215  65.876  1.00  0.00    -0.241 A  
HETATM   21  C   UNL     1     -10.132  14.524  65.486  1.00  0.00    -0.366 A  
HETATM   22  C   UNL     1     -11.940  12.378  65.192  1.00  0.00    -0.454 A  
HETATM   23  C   UNL     1     -11.381  14.730  64.863  1.00  0.00    -0.411 A  
HETATM   24  C   UNL     1     -11.873  16.069  64.384  1.00  0.00    -0.042 C  
HETATM   25  C   UNL     1     -12.254  13.639  64.683  1.00  0.00    -0.448 A  
BRANCH  21  26
HETATM   26  N   UNL     1      -9.282  15.587  65.837  1.00  0.00    -0.368 NA 
HETATM   27  H   UNL     1      -9.277  16.379  65.194  1.00  0.00     0.000 HD 
BRANCH  26  28
HETATM   28  C   UNL     1      -8.443  15.707  66.948  1.00  0.00    -0.251 A  
HETATM   29  N   UNL     1      -8.153  16.945  67.358  1.00  0.00    -0.171 NA 
HETATM   30  C   UNL     1      -7.377  17.055  68.451  1.00  0.00    -0.213 A  
HETATM   31  C   UNL     1      -6.894  15.980  69.164  1.00  0.00    -0.180 A  
HETATM   32  C   UNL     1      -7.231  14.737  68.679  1.00  0.00    -0.119 A  
HETATM   33  N   UNL     1      -7.995  14.611  67.579  1.00  0.00    -0.175 NA 
BRANCH  32  34
HETATM   34  C   UNL     1      -6.816  13.459  69.287  1.00  0.00    -0.036 A  
HETATM   35  C   UNL     1      -6.044  13.383  70.447  1.00  0.00    -0.077 A  
HETATM   36  N   UNL     1      -5.621  12.233  71.032  1.00  0.00    -0.349 NA 
HETATM   37  C   UNL     1      -5.984  11.076  70.430  1.00  0.00    -0.141 A  
HETATM   38  C   UNL     1      -6.739  11.021  69.276  1.00  0.00    -0.099 A  
HETATM   39  C   UNL     1      -7.156  12.222  68.706  1.00  0.00    -0.107 A  
ENDBRANCH  32  34
ENDBRANCH  26  28
ENDBRANCH  21  26
ENDBRANCH  17  19
ENDBRANCH  12  15
ENDBRANCH   8   9
ENDBRANCH   5   8
TORSDOF 7
ENDMDL
MODEL       74
REMARK 921   NORMALIZED FREE ENERGY PREDICTED BY IDOCK:   -5.66 KCAL/MOL
REMARK 922        TOTAL FREE ENERGY PREDICTED BY IDOCK:   -9.12 KCAL/MOL
REMARK 923 INTER-LIGAND FREE ENERGY PREDICTED BY IDOCK:   -7.84 KCAL/MOL
REMARK 924 INTRA-LIGAND FREE ENERGY PREDICTED BY IDOCK:   -1.29 KCAL/MOL
REMARK 927      BINDING AFFINITY PREDICTED BY RF-SCORE:    0.00 PKD
ROOT
HETATM    1  C   UNL     1     -10.937  15.642  64.766  1.00  0.00    -0.400 C  
HETATM    2  N   UNL     1     -11.805  15.283  65.889  1.00  0.00     0.085 NA 
HETATM    3  C   UNL     1     -12.532  14.027  65.614  1.00  0.00    -0.504 C  
HETATM    4  C   UNL     1     -11.679  12.746  65.754  1.00  0.00    -0.402 C  
HETATM    5  N   UNL     1     -10.974  12.618  67.051  1.00  0.00    -0.257 NA 
HETATM    6  C   UNL     1     -11.031  15.158  67.142  1.00  0.00    -0.326 C  
HETATM    7  C   UNL     1     -10.205  13.855  67.282  1.00  0.00    -0.249 C  
ENDROOT
BRANCH   5   8
HETATM    8  C   UNL     1     -11.882  12.334  68.185  1.00  0.00    -0.311 C  
BRANCH   8   9
HETATM    9  C   UNL     1     -11.397  11.156  69.004  1.00  0.00    -0.343 A  
HETATM   10  C   UNL     1     -10.610  10.170  68.395  1.00  0.00    -0.249 A  
HETATM   11  C   UNL     1     -10.443   8.936  69.014  1.00  0.00    -0.231 A  
HETATM   12  C   UNL     1     -11.054   8.677  70.249  1.00  0.00    -0.230 A  
HETATM   13  C   UNL     1     -11.889  10.945  70.300  1.00  0.00    -0.450 A  
HETATM   14  C   UNL     1     -11.727   9.705  70.920  1.00  0.00    -0.412 A  
BRANCH  12  15
HETATM   15  C   UNL     1     -11.094   7.262  70.707  1.00  0.00    -0.266 C  
HETATM   16  O   UNL     1     -11.717   6.443  70.039  1.00  0.00    -0.429 OA 
HETATM   17  N   UNL     1     -10.389   6.962  71.862  1.00  0.00    -0.190 N  
HETATM   18  H   UNL     1      -9.876   7.702  72.343  1.00  0.00     0.000 HD 
BRANCH  17  19
HETATM   19  C   UNL     1     -10.366   5.654  72.387  1.00  0.00    -0.203 A  
HETATM   20  C   UNL     1      -9.299   4.838  72.033  1.00  0.00    -0.176 A  
HETATM   21  C   UNL     1      -9.309   3.455  72.295  1.00  0.00    -0.115 A  
HETATM   22  C   UNL     1     -11.390   5.146  73.175  1.00  0.00    -0.385 A  
HETATM   23  C   UNL     1     -10.356   2.938  73.086  1.00  0.00    -0.234 A  
HETATM   24  C   UNL     1     -10.494   1.486  73.457  1.00  0.00    -0.177 C  
HETATM   25  C   UNL     1     -11.364   3.803  73.555  1.00  0.00    -0.245 A  
BRANCH  21  26
HETATM   26  N   UNL     1      -8.362   2.628  71.666  1.00  0.00    -0.062 NA 
HETATM   27  H   UNL     1      -8.182   1.735  72.125  1.00  0.00     0.000 HD 
BRANCH  26  28
HETATM   28  C   UNL     1      -7.632   2.864  70.499  1.00  0.00    -0.043 A  
HETATM   29  N   UNL     1      -6.308   2.695  70.566  1.00  0.00    -0.023 NA 
HETATM   30  C   UNL     1      -5.615   2.883  69.429  1.00  0.00    -0.018 A  
HETATM   31  C   UNL     1      -6.190   3.216  68.223  1.00  0.00    -0.032 A  
HETATM   32  C   UNL     1      -7.557   3.377  68.232  1.00  0.00    -0.056 A  
HETATM   33  N   UNL     1      -8.262   3.204  69.364  1.00  0.00    -0.054 NA 
BRANCH  32  34
HETATM   34  C   UNL     1      -8.367   3.735  67.053  1.00  0.00    -0.099 A  
HETATM   35  C   UNL     1      -9.679   4.202  67.144  1.00  0.00    -0.186 A  
HETATM   36  N   UNL     1     -10.470   4.525  66.089  1.00  0.00    -0.239 NA 
HETATM   37  C   UNL     1      -9.930   4.376  64.857  1.00  0.00    -0.124 A  
HETATM   38  C   UNL     1      -8.647   3.917  64.637  1.00  0.00    -0.110 A  
HETATM   39  C   UNL     1      -7.866   3.597  65.745  1.00  0.00    -0.092 A  
ENDBRANCH  32  34
ENDBRANCH  26  28
ENDBRANCH  21  26
ENDBRANCH  17  19
ENDBRANCH  12  15
ENDBRANCH   8   9
ENDBRANCH   5   8
TORSDOF 7
ENDMDL
MODEL       75
REMARK 921   NORMALIZED FREE ENERGY PREDICTED BY IDOCK:   -5.62 KCAL/MOL
REMARK 922        TOTAL FREE ENERGY PREDICTED BY IDOCK:   -9.08 KCAL/MOL
REMARK 923 INTER-LIGAND FREE ENERGY PREDICTED BY IDOCK:   -8.02 KCAL/MOL
REMARK 924 INTRA-LIGAND FREE ENERGY PREDICTED BY IDOCK:   -1.06 KCAL/MOL
REMARK 927      BINDING AFFINITY PREDICTED BY RF-SCORE:    0.00 PKD
ROOT
HETATM    1  C   UNL     1      -7.932  19.597  67.387  1.00  0.00    -0.278 C  
HETATM    2  N   UNL     1      -8.555  18.985  66.213  1.00  0.00    -0.395 NA 
HETATM    3  C   UNL     1      -8.126  17.581  66.058  1.00  0.00    -0.127 C  
HETATM    4  C   UNL     1      -8.800  16.590  67.035  1.00  0.00    -0.195 C  
HETATM    5  N   UNL     1     -10.281  16.643  67.036  1.00  0.00    -0.285 NA 
HETATM    6  C   UNL     1     -10.029  19.060  66.291  1.00  0.00    -0.398 C  
HETATM    7  C   UNL     1     -10.693  18.042  67.252  1.00  0.00    -0.290 C  
ENDROOT
BRANCH   5   8
HETATM    8  C   UNL     1     -10.886  16.092  65.802  1.00  0.00    -0.230 C  
BRANCH   8   9
HETATM    9  C   UNL     1     -11.087  14.594  65.904  1.00  0.00    -0.338 A  
HETATM   10  C   UNL     1     -11.218  13.999  67.165  1.00  0.00    -0.327 A  
HETATM   11  C   UNL     1     -11.061  12.624  67.303  1.00  0.00    -0.320 A  
HETATM   12  C   UNL     1     -10.779  11.830  66.183  1.00  0.00    -0.320 A  
HETATM   13  C   UNL     1     -10.945  13.783  64.769  1.00  0.00    -0.396 A  
HETATM   14  C   UNL     1     -10.782  12.403  64.905  1.00  0.00    -0.328 A  
BRANCH  12  15
HETATM   15  C   UNL     1     -10.325  10.435  66.432  1.00  0.00    -0.213 C  
HETATM   16  O   UNL     1      -9.432   9.972  65.729  1.00  0.00    -0.181 OA 
HETATM   17  N   UNL     1     -10.937   9.758  67.475  1.00  0.00    -0.403 N  
HETATM   18  H   UNL     1     -11.656  10.229  68.024  1.00  0.00     0.000 HD 
BRANCH  17  19
HETATM   19  C   UNL     1     -10.586   8.430  67.791  1.00  0.00    -0.171 A  
HETATM   20  C   UNL     1      -9.702   8.232  68.845  1.00  0.00    -0.164 A  
HETATM   21  C   UNL     1      -9.101   6.981  69.077  1.00  0.00    -0.135 A  
HETATM   22  C   UNL     1     -11.035   7.342  67.055  1.00  0.00    -0.243 A  
HETATM   23  C   UNL     1      -9.549   5.878  68.322  1.00  0.00    -0.134 A  
HETATM   24  C   UNL     1      -9.008   4.482  68.466  1.00  0.00    -0.145 C  
HETATM   25  C   UNL     1     -10.547   6.067  67.346  1.00  0.00    -0.355 A  
BRANCH  21  26
HETATM   26  N   UNL     1      -8.003   6.898  69.953  1.00  0.00    -0.118 NA 
HETATM   27  H   UNL     1      -7.093   7.101  69.540  1.00  0.00     0.000 HD 
BRANCH  26  28
HETATM   28  C   UNL     1      -7.991   6.574  71.312  1.00  0.00    -0.108 A  
HETATM   29  N   UNL     1      -7.348   7.413  72.129  1.00  0.00    -0.071 NA 
HETATM   30  C   UNL     1      -7.374   7.119  73.442  1.00  0.00    -0.072 A  
HETATM   31  C   UNL     1      -8.029   6.032  73.974  1.00  0.00    -0.103 A  
HETATM   32  C   UNL     1      -8.666   5.211  73.071  1.00  0.00    -0.114 A  
HETATM   33  N   UNL     1      -8.638   5.485  71.755  1.00  0.00    -0.134 NA 
BRANCH  32  34
HETATM   34  C   UNL     1      -9.420   3.995  73.429  1.00  0.00    -0.128 A  
HETATM   35  C   UNL     1      -8.805   2.805  73.818  1.00  0.00    -0.075 A  
HETATM   36  N   UNL     1      -9.455   1.656  74.137  1.00  0.00    -0.064 NA 
HETATM   37  C   UNL     1     -10.806   1.683  74.067  1.00  0.00    -0.138 A  
HETATM   38  C   UNL     1     -11.528   2.797  73.689  1.00  0.00    -0.202 A  
HETATM   39  C   UNL     1     -10.826   3.957  73.370  1.00  0.00    -0.318 A  
ENDBRANCH  32  34
ENDBRANCH  26  28
ENDBRANCH  21  26
ENDBRANCH  17  19
ENDBRANCH  12  15
ENDBRANCH   8   9
ENDBRANCH   5   8
TORSDOF 7
ENDMDL
MODEL       76
REMARK 921   NORMALIZED FREE ENERGY PREDICTED BY IDOCK:   -5.60 KCAL/MOL
REMARK 922        TOTAL FREE ENERGY PREDICTED BY IDOCK:   -9.05 KCAL/MOL
REMARK 923 INTER-LIGAND FREE ENERGY PREDICTED BY IDOCK:   -7.98 KCAL/MOL
REMARK 924 INTRA-LIGAND FREE ENERGY PREDICTED BY IDOCK:   -1.07 KCAL/MOL
REMARK 927      BINDING AFFINITY PREDICTED BY RF-SCORE:    0.00 PKD
ROOT
HETATM    1  C   UNL     1      -6.826  20.436  67.281  1.00  0.00    -0.267 C  
HETATM    2  N   UNL     1      -8.235  20.230  67.620  1.00  0.00    -0.303 NA 
HETATM    3  C   UNL     1      -8.972  19.644  66.483  1.00  0.00    -0.369 C  
HETATM    4  C   UNL     1      -8.719  18.136  66.260  1.00  0.00    -0.172 C  
HETATM    5  N   UNL     1      -8.939  17.294  67.460  1.00  0.00    -0.221 NA 
HETATM    6  C   UNL     1      -8.376  19.370  68.814  1.00  0.00    -0.344 C  
HETATM    7  C   UNL     1      -8.149  17.857  68.570  1.00  0.00    -0.301 C  
ENDROOT
BRANCH   5   8
HETATM    8  C   UNL     1     -10.366  17.167  67.831  1.00  0.00    -0.350 C  
BRANCH   8   9
HETATM    9  C   UNL     1     -10.587  16.030  68.808  1.00  0.00    -0.262 A  
HETATM   10  C   UNL     1     -10.376  14.710  68.389  1.00  0.00    -0.237 A  
HETATM   11  C   UNL     1     -10.890  13.655  69.137  1.00  0.00    -0.189 A  
HETATM   12  C   UNL     1     -11.611  13.908  70.312  1.00  0.00    -0.217 A  
HETATM   13  C   UNL     1     -11.185  16.273  70.052  1.00  0.00    -0.324 A  
HETATM   14  C   UNL     1     -11.705  15.217  70.802  1.00  0.00    -0.370 A  
BRANCH  12  15
HETATM   15  C   UNL     1     -12.385  12.779  70.894  1.00  0.00    -0.265 C  
HETATM   16  O   UNL     1     -13.362  13.032  71.592  1.00  0.00    -0.372 OA 
HETATM   17  N   UNL     1     -11.953  11.500  70.579  1.00  0.00    -0.420 N  
HETATM   18  H   UNL     1     -11.143  11.381  69.970  1.00  0.00     0.000 HD 
BRANCH  17  19
HETATM   19  C   UNL     1     -12.611  10.361  71.083  1.00  0.00    -0.410 A  
HETATM   20  C   UNL     1     -11.925   9.576  72.002  1.00  0.00    -0.283 A  
HETATM   21  C   UNL     1     -12.386   8.299  72.372  1.00  0.00    -0.327 A  
HETATM   22  C   UNL     1     -13.871   9.971  70.651  1.00  0.00     0.483 A  
HETATM   23  C   UNL     1     -13.662   7.899  71.922  1.00  0.00    -0.366 A  
HETATM   24  C   UNL     1     -14.291   6.570  72.244  1.00  0.00     0.088 C  
HETATM   25  C   UNL     1     -14.410   8.764  71.099  1.00  0.00    -0.099 A  
BRANCH  21  26
HETATM   26  N   UNL     1     -11.524   7.428  73.062  1.00  0.00    -0.593 NA 
HETATM   27  H   UNL     1     -11.959   6.865  73.793  1.00  0.00     0.000 HD 
BRANCH  26  28
HETATM   28  C   UNL     1     -10.153   7.230  72.882  1.00  0.00    -0.227 A  
HETATM   29  N   UNL     1      -9.330   7.965  73.635  1.00  0.00    -0.272 NA 
HETATM   30  C   UNL     1      -8.012   7.741  73.488  1.00  0.00    -0.159 A  
HETATM   31  C   UNL     1      -7.482   6.801  72.633  1.00  0.00    -0.091 A  
HETATM   32  C   UNL     1      -8.391   6.084  71.888  1.00  0.00    -0.115 A  
HETATM   33  N   UNL     1      -9.711   6.306  72.015  1.00  0.00    -0.152 NA 
BRANCH  32  34
HETATM   34  C   UNL     1      -8.036   5.036  70.913  1.00  0.00    -0.092 A  
HETATM   35  C   UNL     1      -6.799   4.392  70.905  1.00  0.00    -0.036 A  
HETATM   36  N   UNL     1      -6.419   3.437  70.018  1.00  0.00    -0.032 NA 
HETATM   37  C   UNL     1      -7.322   3.094  69.070  1.00  0.00    -0.048 A  
HETATM   38  C   UNL     1      -8.576   3.664  68.970  1.00  0.00    -0.120 A  
HETATM   39  C   UNL     1      -8.929   4.639  69.900  1.00  0.00    -0.144 A  
ENDBRANCH  32  34
ENDBRANCH  26  28
ENDBRANCH  21  26
ENDBRANCH  17  19
ENDBRANCH  12  15
ENDBRANCH   8   9
ENDBRANCH   5   8
TORSDOF 7
ENDMDL
MODEL       77
REMARK 921   NORMALIZED FREE ENERGY PREDICTED BY IDOCK:   -5.60 KCAL/MOL
REMARK 922        TOTAL FREE ENERGY PREDICTED BY IDOCK:   -9.05 KCAL/MOL
REMARK 923 INTER-LIGAND FREE ENERGY PREDICTED BY IDOCK:   -7.88 KCAL/MOL
REMARK 924 INTRA-LIGAND FREE ENERGY PREDICTED BY IDOCK:   -1.16 KCAL/MOL
REMARK 927      BINDING AFFINITY PREDICTED BY RF-SCORE:    0.00 PKD
ROOT
HETATM    1  C   UNL     1     -13.505  16.217  73.453  1.00  0.00    -0.322 C  
HETATM    2  N   UNL     1     -12.895  14.907  73.216  1.00  0.00    -0.511 NA 
HETATM    3  C   UNL     1     -13.765  14.065  72.371  1.00  0.00    -0.568 C  
HETATM    4  C   UNL     1     -13.757  14.433  70.870  1.00  0.00    -0.021 C  
HETATM    5  N   UNL     1     -12.406  14.492  70.262  1.00  0.00    -0.333 NA 
HETATM    6  C   UNL     1     -11.561  15.044  72.594  1.00  0.00    -0.230 C  
HETATM    7  C   UNL     1     -11.568  15.384  71.083  1.00  0.00    -0.377 C  
ENDROOT
BRANCH   5   8
HETATM    8  C   UNL     1     -11.777  13.161  70.106  1.00  0.00    -0.178 C  
BRANCH   8   9
HETATM    9  C   UNL     1     -11.324  12.924  68.680  1.00  0.00    -0.327 A  
HETATM   10  C   UNL     1     -11.999  11.986  67.889  1.00  0.00    -0.204 A  
HETATM   11  C   UNL     1     -11.408  11.509  66.723  1.00  0.00    -0.309 A  
HETATM   12  C   UNL     1     -10.143  11.969  66.334  1.00  0.00    -0.242 A  
HETATM   13  C   UNL     1     -10.126  13.485  68.216  1.00  0.00    -0.247 A  
HETATM   14  C   UNL     1      -9.529  13.004  67.050  1.00  0.00    -0.237 A  
BRANCH  12  15
HETATM   15  C   UNL     1      -9.440  11.210  65.265  1.00  0.00    -0.226 C  
HETATM   16  O   UNL     1      -9.678  11.486  64.092  1.00  0.00    -0.238 OA 
HETATM   17  N   UNL     1      -8.532  10.248  65.677  1.00  0.00    -0.153 N  
HETATM   18  H   UNL     1      -8.377  10.101  66.675  1.00  0.00     0.000 HD 
BRANCH  17  19
HETATM   19  C   UNL     1      -7.817   9.469  64.745  1.00  0.00    -0.120 A  
HETATM   20  C   UNL     1      -8.463   8.365  64.201  1.00  0.00    -0.018 A  
HETATM   21  C   UNL     1      -7.765   7.392  63.464  1.00  0.00    -0.125 A  
HETATM   22  C   UNL     1      -6.495   9.726  64.412  1.00  0.00    -0.117 A  
HETATM   23  C   UNL     1      -6.417   7.648  63.135  1.00  0.00    -0.062 A  
HETATM   24  C   UNL     1      -5.549   6.708  62.344  1.00  0.00    -0.028 C  
HETATM   25  C   UNL     1      -5.811   8.840  63.578  1.00  0.00    -0.076 A  
BRANCH  21  26
HETATM   26  N   UNL     1      -8.385   6.159  63.190  1.00  0.00    -0.309 NA 
HETATM   27  H   UNL     1      -8.699   6.028  62.228  1.00  0.00     0.000 HD 
BRANCH  26  28
HETATM   28  C   UNL     1      -8.628   5.090  64.055  1.00  0.00    -0.117 A  
HETATM   29  N   UNL     1      -8.400   3.862  63.581  1.00  0.00    -0.090 NA 
HETATM   30  C   UNL     1      -8.597   2.839  64.431  1.00  0.00    -0.091 A  
HETATM   31  C   UNL     1      -8.994   2.991  65.740  1.00  0.00    -0.144 A  
HETATM   32  C   UNL     1      -9.213   4.285  66.156  1.00  0.00    -0.145 A  
HETATM   33  N   UNL     1      -9.033   5.317  65.314  1.00  0.00    -0.152 NA 
BRANCH  32  34
HETATM   34  C   UNL     1      -9.646   4.668  67.513  1.00  0.00    -0.198 A  
HETATM   35  C   UNL     1      -9.274   3.962  68.658  1.00  0.00    -0.151 A  
HETATM   36  N   UNL     1      -9.662   4.264  69.924  1.00  0.00    -0.213 NA 
HETATM   37  C   UNL     1     -10.475   5.335  70.071  1.00  0.00    -0.281 A  
HETATM   38  C   UNL     1     -10.917   6.108  69.016  1.00  0.00    -0.436 A  
HETATM   39  C   UNL     1     -10.496   5.768  67.732  1.00  0.00    -0.289 A  
ENDBRANCH  32  34
ENDBRANCH  26  28
ENDBRANCH  21  26
ENDBRANCH  17  19
ENDBRANCH  12  15
ENDBRANCH   8   9
ENDBRANCH   5   8
TORSDOF 7
ENDMDL
MODEL       78
REMARK 921   NORMALIZED FREE ENERGY PREDICTED BY IDOCK:   -5.58 KCAL/MOL
REMARK 922        TOTAL FREE ENERGY PREDICTED BY IDOCK:   -9.02 KCAL/MOL
REMARK 923 INTER-LIGAND FREE ENERGY PREDICTED BY IDOCK:   -7.80 KCAL/MOL
REMARK 924 INTRA-LIGAND FREE ENERGY PREDICTED BY IDOCK:   -1.22 KCAL/MOL
REMARK 927      BINDING AFFINITY PREDICTED BY RF-SCORE:    0.00 PKD
ROOT
HETATM    1  C   UNL     1      -7.890   3.016  62.345  1.00  0.00    -0.063 C  
HETATM    2  N   UNL     1      -8.132   2.655  63.743  1.00  0.00    -0.081 NA 
HETATM    3  C   UNL     1      -7.635   3.705  64.654  1.00  0.00    -0.076 C  
HETATM    4  C   UNL     1      -8.530   4.963  64.736  1.00  0.00    -0.145 C  
HETATM    5  N   UNL     1      -9.950   4.684  65.054  1.00  0.00    -0.078 NA 
HETATM    6  C   UNL     1      -9.569   2.408  63.988  1.00  0.00    -0.137 C  
HETATM    7  C   UNL     1     -10.449   3.679  64.098  1.00  0.00    -0.247 C  
ENDROOT
BRANCH   5   8
HETATM    8  C   UNL     1     -10.161   4.243  66.452  1.00  0.00    -0.152 C  
BRANCH   8   9
HETATM    9  C   UNL     1      -9.988   5.388  67.428  1.00  0.00    -0.198 A  
HETATM   10  C   UNL     1     -10.678   6.588  67.213  1.00  0.00    -0.427 A  
HETATM   11  C   UNL     1     -10.283   7.744  67.880  1.00  0.00    -0.259 A  
HETATM   12  C   UNL     1      -9.203   7.710  68.772  1.00  0.00    -0.142 A  
HETATM   13  C   UNL     1      -9.002   5.327  68.423  1.00  0.00    -0.116 A  
HETATM   14  C   UNL     1      -8.601   6.486  69.089  1.00  0.00    -0.129 A  
BRANCH  12  15
HETATM   15  C   UNL     1      -8.642   9.015  69.213  1.00  0.00    -0.136 C  
HETATM   16  O   UNL     1      -8.988   9.468  70.301  1.00  0.00    -0.221 OA 
HETATM   17  N   UNL     1      -7.733   9.622  68.361  1.00  0.00    -0.081 N  
HETATM   18  H   UNL     1      -7.483   9.163  67.485  1.00  0.00     0.000 HD 
BRANCH  17  19
HETATM   19  C   UNL     1      -7.147  10.864  68.682  1.00  0.00    -0.080 A  
HETATM   20  C   UNL     1      -7.942  11.998  68.570  1.00  0.00    -0.132 A  
HETATM   21  C   UNL     1      -7.392  13.292  68.623  1.00  0.00    -0.101 A  
HETATM   22  C   UNL     1      -5.810  10.992  69.034  1.00  0.00    -0.040 A  
HETATM   23  C   UNL     1      -6.031  13.421  68.969  1.00  0.00    -0.083 A  
HETATM   24  C   UNL     1      -5.309  14.737  69.075  1.00  0.00    -0.093 C  
HETATM   25  C   UNL     1      -5.266  12.264  69.215  1.00  0.00    -0.068 A  
BRANCH  21  26
HETATM   26  N   UNL     1      -8.172  14.388  68.213  1.00  0.00    -0.141 NA 
HETATM   27  H   UNL     1      -7.652  15.192  67.860  1.00  0.00     0.000 HD 
BRANCH  26  28
HETATM   28  C   UNL     1      -9.562  14.526  68.223  1.00  0.00    -0.212 A  
HETATM   29  N   UNL     1     -10.196  14.356  67.060  1.00  0.00    -0.260 NA 
HETATM   30  C   UNL     1     -11.538  14.450  67.083  1.00  0.00    -0.386 A  
HETATM   31  C   UNL     1     -12.274  14.689  68.222  1.00  0.00    -0.112 A  
HETATM   32  C   UNL     1     -11.551  14.857  69.381  1.00  0.00    -0.309 A  
HETATM   33  N   UNL     1     -10.208  14.779  69.372  1.00  0.00    -0.175 NA 
BRANCH  32  34
HETATM   34  C   UNL     1     -12.141  15.125  70.706  1.00  0.00    -0.387 A  
HETATM   35  C   UNL     1     -11.540  15.956  71.652  1.00  0.00    -0.461 A  
HETATM   36  N   UNL     1     -12.033  16.218  72.890  1.00  0.00    -0.528 NA 
HETATM   37  C   UNL     1     -13.200  15.616  73.218  1.00  0.00    -0.557 A  
HETATM   38  C   UNL     1     -13.886  14.769  72.372  1.00  0.00    -0.578 A  
HETATM   39  C   UNL     1     -13.348  14.526  71.109  1.00  0.00    -0.415 A  
ENDBRANCH  32  34
ENDBRANCH  26  28
ENDBRANCH  21  26
ENDBRANCH  17  19
ENDBRANCH  12  15
ENDBRANCH   8   9
ENDBRANCH   5   8
TORSDOF 7
ENDMDL
MODEL       79
REMARK 921   NORMALIZED FREE ENERGY PREDICTED BY IDOCK:   -5.49 KCAL/MOL
REMARK 922        TOTAL FREE ENERGY PREDICTED BY IDOCK:   -8.88 KCAL/MOL
REMARK 923 INTER-LIGAND FREE ENERGY PREDICTED BY IDOCK:   -7.47 KCAL/MOL
REMARK 924 INTRA-LIGAND FREE ENERGY PREDICTED BY IDOCK:   -1.41 KCAL/MOL
REMARK 927      BINDING AFFINITY PREDICTED BY RF-SCORE:    0.00 PKD
ROOT
HETATM    1  C   UNL     1     -10.048   5.772  74.194  1.00  0.00    -0.257 C  
HETATM    2  N   UNL     1     -10.744   5.222  73.030  1.00  0.00    -0.234 NA 
HETATM    3  C   UNL     1     -10.845   6.224  71.951  1.00  0.00    -0.242 C  
HETATM    4  C   UNL     1      -9.535   6.457  71.163  1.00  0.00    -0.167 C  
HETATM    5  N   UNL     1      -8.923   5.223  70.616  1.00  0.00    -0.132 NA 
HETATM    6  C   UNL     1     -10.069   4.005  72.531  1.00  0.00    -0.168 C  
HETATM    7  C   UNL     1      -8.774   4.254  71.717  1.00  0.00    -0.110 C  
ENDROOT
BRANCH   5   8
HETATM    8  C   UNL     1      -9.689   4.639  69.491  1.00  0.00    -0.208 C  
BRANCH   8   9
HETATM    9  C   UNL     1      -9.755   5.588  68.312  1.00  0.00    -0.167 A  
HETATM   10  C   UNL     1      -8.567   6.043  67.727  1.00  0.00    -0.106 A  
HETATM   11  C   UNL     1      -8.588   7.153  66.888  1.00  0.00    -0.124 A  
HETATM   12  C   UNL     1      -9.795   7.814  66.623  1.00  0.00    -0.295 A  
HETATM   13  C   UNL     1     -10.976   6.163  67.934  1.00  0.00    -0.399 A  
HETATM   14  C   UNL     1     -10.999   7.280  67.098  1.00  0.00    -0.285 A  
BRANCH  12  15
HETATM   15  C   UNL     1      -9.713   9.153  65.980  1.00  0.00    -0.287 C  
HETATM   16  O   UNL     1      -8.853   9.346  65.126  1.00  0.00    -0.171 OA 
HETATM   17  N   UNL     1     -10.648  10.095  66.381  1.00  0.00    -0.136 N  
HETATM   18  H   UNL     1     -11.345   9.841  67.082  1.00  0.00     0.000 HD 
BRANCH  17  19
HETATM   19  C   UNL     1     -10.655  11.396  65.839  1.00  0.00    -0.263 A  
HETATM   20  C   UNL     1      -9.658  12.270  66.256  1.00  0.00    -0.248 A  
HETATM   21  C   UNL     1      -9.720  13.647  65.973  1.00  0.00    -0.222 A  
HETATM   22  C   UNL     1     -11.643  11.841  64.972  1.00  0.00    -0.214 A  
HETATM   23  C   UNL     1     -10.731  14.101  65.101  1.00  0.00    -0.400 A  
HETATM   24  C   UNL     1     -10.915  15.539  64.699  1.00  0.00    -0.341 C  
HETATM   25  C   UNL     1     -11.657  13.179  64.574  1.00  0.00    -0.406 A  
BRANCH  21  26
HETATM   26  N   UNL     1      -8.863  14.529  66.655  1.00  0.00    -0.412 NA 
HETATM   27  H   UNL     1      -9.138  15.512  66.639  1.00  0.00     0.000 HD 
BRANCH  26  28
HETATM   28  C   UNL     1      -7.687  14.243  67.353  1.00  0.00    -0.173 A  
HETATM   29  N   UNL     1      -6.722  15.166  67.319  1.00  0.00    -0.288 NA 
HETATM   30  C   UNL     1      -5.608  14.904  68.025  1.00  0.00    -0.134 A  
HETATM   31  C   UNL     1      -5.424  13.766  68.779  1.00  0.00    -0.081 A  
HETATM   32  C   UNL     1      -6.460  12.860  68.762  1.00  0.00    -0.085 A  
HETATM   33  N   UNL     1      -7.575  13.102  68.050  1.00  0.00    -0.129 NA 
BRANCH  32  34
HETATM   34  C   UNL     1      -6.466  11.579  69.495  1.00  0.00    -0.124 A  
HETATM   35  C   UNL     1      -5.915  11.429  70.768  1.00  0.00     0.042 A  
HETATM   36  N   UNL     1      -5.879  10.268  71.473  1.00  0.00    -0.306 NA 
HETATM   37  C   UNL     1      -6.423   9.180  70.879  1.00  0.00    -0.074 A  
HETATM   38  C   UNL     1      -6.992   9.201  69.622  1.00  0.00    -0.055 A  
HETATM   39  C   UNL     1      -7.011  10.411  68.930  1.00  0.00    -0.067 A  
ENDBRANCH  32  34
ENDBRANCH  26  28
ENDBRANCH  21  26
ENDBRANCH  17  19
ENDBRANCH  12  15
ENDBRANCH   8   9
ENDBRANCH   5   8
TORSDOF 7
ENDMDL
MODEL       80
REMARK 921   NORMALIZED FREE ENERGY PREDICTED BY IDOCK:   -5.42 KCAL/MOL
REMARK 922        TOTAL FREE ENERGY PREDICTED BY IDOCK:   -8.79 KCAL/MOL
REMARK 923 INTER-LIGAND FREE ENERGY PREDICTED BY IDOCK:   -7.11 KCAL/MOL
REMARK 924 INTRA-LIGAND FREE ENERGY PREDICTED BY IDOCK:   -1.69 KCAL/MOL
REMARK 927      BINDING AFFINITY PREDICTED BY RF-SCORE:    0.00 PKD
ROOT
HETATM    1  C   UNL     1      -9.500   3.178  64.788  1.00  0.00    -0.150 C  
HETATM    2  N   UNL     1      -8.375   3.501  65.667  1.00  0.00    -0.104 NA 
HETATM    3  C   UNL     1      -7.938   4.897  65.476  1.00  0.00    -0.099 C  
HETATM    4  C   UNL     1      -8.858   5.955  66.128  1.00  0.00    -0.147 C  
HETATM    5  N   UNL     1      -9.126   5.728  67.568  1.00  0.00    -0.107 NA 
HETATM    6  C   UNL     1      -8.721   3.266  67.085  1.00  0.00    -0.121 C  
HETATM    7  C   UNL     1      -9.619   4.349  67.734  1.00  0.00    -0.160 C  
ENDROOT
BRANCH   5   8
HETATM    8  C   UNL     1      -7.949   5.983  68.429  1.00  0.00    -0.107 C  
BRANCH   8   9
HETATM    9  C   UNL     1      -7.691   7.466  68.593  1.00  0.00    -0.120 A  
HETATM   10  C   UNL     1      -8.676   8.278  69.168  1.00  0.00    -0.143 A  
HETATM   11  C   UNL     1      -8.609   9.660  69.020  1.00  0.00    -0.133 A  
HETATM   12  C   UNL     1      -7.556  10.243  68.302  1.00  0.00    -0.091 A  
HETATM   13  C   UNL     1      -6.567   8.058  67.998  1.00  0.00    -0.057 A  
HETATM   14  C   UNL     1      -6.501   9.444  67.843  1.00  0.00    -0.062 A  
BRANCH  12  15
HETATM   15  C   UNL     1      -7.699  11.673  67.920  1.00  0.00    -0.126 C  
HETATM   16  O   UNL     1      -7.352  12.022  66.796  1.00  0.00    -0.088 OA 
HETATM   17  N   UNL     1      -8.250  12.520  68.871  1.00  0.00    -0.340 N  
HETATM   18  H   UNL     1      -8.535  12.140  69.774  1.00  0.00     0.000 HD 
BRANCH  17  19
HETATM   19  C   UNL     1      -8.424  13.894  68.613  1.00  0.00    -0.082 A  
HETATM   20  C   UNL     1      -9.455  14.263  67.758  1.00  0.00    -0.216 A  
HETATM   21  C   UNL     1      -9.556  15.569  67.245  1.00  0.00    -0.213 A  
HETATM   22  C   UNL     1      -7.573  14.865  69.125  1.00  0.00    -0.160 A  
HETATM   23  C   UNL     1      -8.684  16.553  67.756  1.00  0.00    -0.197 A  
HETATM   24  C   UNL     1      -8.681  17.990  67.312  1.00  0.00    -0.243 C  
HETATM   25  C   UNL     1      -7.728  16.194  68.727  1.00  0.00    -0.200 A  
BRANCH  21  26
HETATM   26  N   UNL     1     -10.424  15.820  66.167  1.00  0.00    -0.305 NA 
HETATM   27  H   UNL     1     -10.701  16.794  66.042  1.00  0.00     0.000 HD 
BRANCH  26  28
HETATM   28  C   UNL     1     -10.958  14.917  65.245  1.00  0.00    -0.380 A  
HETATM   29  N   UNL     1     -12.040  15.311  64.567  1.00  0.00    -0.326 NA 
HETATM   30  C   UNL     1     -12.526  14.455  63.651  1.00  0.00     0.367 A  
HETATM   31  C   UNL     1     -11.967  13.228  63.370  1.00  0.00    -0.491 A  
HETATM   32  C   UNL     1     -10.856  12.890  64.111  1.00  0.00    -0.416 A  
HETATM   33  N   UNL     1     -10.367  13.730  65.039  1.00  0.00    -0.379 NA 
BRANCH  32  34
HETATM   34  C   UNL     1     -10.109  11.626  63.972  1.00  0.00    -0.362 A  
HETATM   35  C   UNL     1      -9.605  11.170  62.754  1.00  0.00    -0.303 A  
HETATM   36  N   UNL     1      -8.929  10.005  62.574  1.00  0.00    -0.247 NA 
HETATM   37  C   UNL     1      -8.739   9.237  63.671  1.00  0.00    -0.167 A  
HETATM   38  C   UNL     1      -9.196   9.576  64.928  1.00  0.00    -0.284 A  
HETATM   39  C   UNL     1      -9.884  10.779  65.074  1.00  0.00    -0.346 A  
ENDBRANCH  32  34
ENDBRANCH  26  28
ENDBRANCH  21  26
ENDBRANCH  17  19
ENDBRANCH  12  15
ENDBRANCH   8   9
ENDBRANCH   5   8
TORSDOF 7
ENDMDL
MODEL       81
REMARK 921   NORMALIZED FREE ENERGY PREDICTED BY IDOCK:   -5.42 KCAL/MOL
REMARK 922        TOTAL FREE ENERGY PREDICTED BY IDOCK:   -8.79 KCAL/MOL
REMARK 923 INTER-LIGAND FREE ENERGY PREDICTED BY IDOCK:   -7.73 KCAL/MOL
REMARK 924 INTRA-LIGAND FREE ENERGY PREDICTED BY IDOCK:   -1.06 KCAL/MOL
REMARK 927      BINDING AFFINITY PREDICTED BY RF-SCORE:    0.00 PKD
ROOT
HETATM    1  C   UNL     1      -8.994   1.579  64.288  1.00  0.00    -0.100 C  
HETATM    2  N   UNL     1      -8.895   2.847  63.564  1.00  0.00    -0.092 NA 
HETATM    3  C   UNL     1      -9.752   3.878  64.183  1.00  0.00    -0.171 C  
HETATM    4  C   UNL     1      -9.189   4.484  65.489  1.00  0.00    -0.152 C  
HETATM    5  N   UNL     1      -7.809   5.012  65.374  1.00  0.00    -0.087 NA 
HETATM    6  C   UNL     1      -7.496   3.319  63.504  1.00  0.00    -0.059 C  
HETATM    7  C   UNL     1      -6.954   3.951  64.811  1.00  0.00    -0.050 C  
ENDROOT
BRANCH   5   8
HETATM    8  C   UNL     1      -7.723   6.251  64.569  1.00  0.00    -0.106 C  
BRANCH   8   9
HETATM    9  C   UNL     1      -7.910   7.486  65.427  1.00  0.00    -0.117 A  
HETATM   10  C   UNL     1      -7.388   7.507  66.727  1.00  0.00    -0.092 A  
HETATM   11  C   UNL     1      -7.830   8.463  67.636  1.00  0.00    -0.107 A  
HETATM   12  C   UNL     1      -8.789   9.410  67.253  1.00  0.00    -0.136 A  
HETATM   13  C   UNL     1      -8.762   8.517  65.007  1.00  0.00    -0.124 A  
HETATM   14  C   UNL     1      -9.210   9.474  65.919  1.00  0.00    -0.260 A  
BRANCH  12  15
HETATM   15  C   UNL     1      -9.438  10.199  68.334  1.00  0.00    -0.143 C  
HETATM   16  O   UNL     1      -8.797  10.445  69.351  1.00  0.00    -0.167 OA 
HETATM   17  N   UNL     1     -10.735  10.630  68.099  1.00  0.00    -0.207 N  
HETATM   18  H   UNL     1     -11.185  10.400  67.213  1.00  0.00     0.000 HD 
BRANCH  17  19
HETATM   19  C   UNL     1     -11.443  11.378  69.060  1.00  0.00    -0.300 A  
HETATM   20  C   UNL     1     -11.268  12.757  69.059  1.00  0.00    -0.317 A  
HETATM   21  C   UNL     1     -11.726  13.560  70.120  1.00  0.00    -0.210 A  
HETATM   22  C   UNL     1     -12.242  10.787  70.030  1.00  0.00    -0.409 A  
HETATM   23  C   UNL     1     -12.528  12.956  71.111  1.00  0.00    -0.344 A  
HETATM   24  C   UNL     1     -13.097  13.688  72.296  1.00  0.00    -0.491 C  
HETATM   25  C   UNL     1     -12.813  11.579  71.027  1.00  0.00    -0.358 A  
BRANCH  21  26
HETATM   26  N   UNL     1     -11.274  14.887  70.223  1.00  0.00    -0.355 NA 
HETATM   27  H   UNL     1     -11.887  15.523  70.734  1.00  0.00     0.000 HD 
BRANCH  26  28
HETATM   28  C   UNL     1     -10.100  15.454  69.721  1.00  0.00    -0.256 A  
HETATM   29  N   UNL     1      -8.951  14.853  70.044  1.00  0.00     0.337 NA 
HETATM   30  C   UNL     1      -7.827  15.378  69.525  1.00  0.00    -0.204 A  
HETATM   31  C   UNL     1      -7.803  16.468  68.683  1.00  0.00    -0.226 A  
HETATM   32  C   UNL     1      -9.024  17.036  68.399  1.00  0.00    -0.247 A  
HETATM   33  N   UNL     1     -10.156  16.530  68.921  1.00  0.00    -0.251 NA 
BRANCH  32  34
HETATM   34  C   UNL     1      -9.222  18.208  67.526  1.00  0.00    -0.257 A  
HETATM   35  C   UNL     1      -8.214  18.732  66.717  1.00  0.00    -0.278 A  
HETATM   36  N   UNL     1      -8.341  19.819  65.912  1.00  0.00    -0.390 NA 
HETATM   37  C   UNL     1      -9.547  20.433  65.908  1.00  0.00    -0.019 A  
HETATM   38  C   UNL     1     -10.620  20.014  66.669  1.00  0.00    -0.461 A  
HETATM   39  C   UNL     1     -10.450  18.893  67.480  1.00  0.00    -0.522 A  
ENDBRANCH  32  34
ENDBRANCH  26  28
ENDBRANCH  21  26
ENDBRANCH  17  19
ENDBRANCH  12  15
ENDBRANCH   8   9
ENDBRANCH   5   8
TORSDOF 7
ENDMDL
MODEL       82
REMARK 921   NORMALIZED FREE ENERGY PREDICTED BY IDOCK:   -5.35 KCAL/MOL
REMARK 922        TOTAL FREE ENERGY PREDICTED BY IDOCK:   -8.69 KCAL/MOL
REMARK 923 INTER-LIGAND FREE ENERGY PREDICTED BY IDOCK:   -7.86 KCAL/MOL
REMARK 924 INTRA-LIGAND FREE ENERGY PREDICTED BY IDOCK:   -0.83 KCAL/MOL
REMARK 927      BINDING AFFINITY PREDICTED BY RF-SCORE:    0.00 PKD
ROOT
HETATM    1  C   UNL     1      -7.261  20.798  67.531  1.00  0.00    -0.326 C  
HETATM    2  N   UNL     1      -8.407  20.275  66.786  1.00  0.00    -0.287 NA 
HETATM    3  C   UNL     1      -8.177  18.875  66.378  1.00  0.00    -0.294 C  
HETATM    4  C   UNL     1      -8.337  17.838  67.514  1.00  0.00    -0.226 C  
HETATM    5  N   UNL     1      -9.625  17.922  68.241  1.00  0.00    -0.299 NA 
HETATM    6  C   UNL     1      -9.650  20.375  67.579  1.00  0.00    -0.420 C  
HETATM    7  C   UNL     1      -9.811  19.312  68.694  1.00  0.00    -0.431 C  
ENDROOT
BRANCH   5   8
HETATM    8  C   UNL     1     -10.781  17.462  67.438  1.00  0.00    -0.251 C  
BRANCH   8   9
HETATM    9  C   UNL     1     -10.656  15.998  67.072  1.00  0.00    -0.302 A  
HETATM   10  C   UNL     1     -10.299  15.069  68.058  1.00  0.00    -0.236 A  
HETATM   11  C   UNL     1      -9.851  13.804  67.689  1.00  0.00    -0.234 A  
HETATM   12  C   UNL     1      -9.763  13.454  66.335  1.00  0.00    -0.282 A  
HETATM   13  C   UNL     1     -10.700  15.598  65.729  1.00  0.00    -0.350 A  
HETATM   14  C   UNL     1     -10.246  14.332  65.356  1.00  0.00    -0.395 A  
BRANCH  12  15
HETATM   15  C   UNL     1      -9.001  12.222  65.997  1.00  0.00     0.066 C  
HETATM   16  O   UNL     1      -8.100  11.861  66.749  1.00  0.00    -0.163 OA 
HETATM   17  N   UNL     1      -9.387  11.546  64.850  1.00  0.00    -0.399 N  
HETATM   18  H   UNL     1     -10.164  11.905  64.294  1.00  0.00     0.000 HD 
BRANCH  17  19
HETATM   19  C   UNL     1      -8.726  10.372  64.436  1.00  0.00    -0.198 A  
HETATM   20  C   UNL     1      -8.754   9.281  65.296  1.00  0.00    -0.214 A  
HETATM   21  C   UNL     1      -7.927   8.161  65.094  1.00  0.00    -0.126 A  
HETATM   22  C   UNL     1      -8.009  10.295  63.249  1.00  0.00    -0.148 A  
HETATM   23  C   UNL     1      -7.189   8.089  63.893  1.00  0.00    -0.092 A  
HETATM   24  C   UNL     1      -6.273   6.951  63.534  1.00  0.00    -0.043 C  
HETATM   25  C   UNL     1      -7.276   9.143  62.963  1.00  0.00    -0.094 A  
BRANCH  21  26
HETATM   26  N   UNL     1      -7.768   7.225  66.132  1.00  0.00    -0.097 NA 
HETATM   27  H   UNL     1      -6.998   7.408  66.776  1.00  0.00     0.000 HD 
BRANCH  26  28
HETATM   28  C   UNL     1      -8.522   6.081  66.401  1.00  0.00    -0.118 A  
HETATM   29  N   UNL     1      -8.995   5.405  65.350  1.00  0.00    -0.152 NA 
HETATM   30  C   UNL     1      -9.686   4.281  65.614  1.00  0.00    -0.205 A  
HETATM   31  C   UNL     1      -9.909   3.794  66.882  1.00  0.00    -0.045 A  
HETATM   32  C   UNL     1      -9.395   4.546  67.914  1.00  0.00    -0.140 A  
HETATM   33  N   UNL     1      -8.713   5.678  67.667  1.00  0.00    -0.108 NA 
BRANCH  32  34
HETATM   34  C   UNL     1      -9.523   4.207  69.344  1.00  0.00    -0.260 A  
HETATM   35  C   UNL     1      -9.151   2.969  69.868  1.00  0.00    -0.126 A  
HETATM   36  N   UNL     1      -9.268   2.603  71.171  1.00  0.00    -0.113 NA 
HETATM   37  C   UNL     1      -9.791   3.523  72.015  1.00  0.00    -0.168 A  
HETATM   38  C   UNL     1     -10.202   4.778  71.616  1.00  0.00    -0.249 A  
HETATM   39  C   UNL     1     -10.064   5.117  70.271  1.00  0.00    -0.338 A  
ENDBRANCH  32  34
ENDBRANCH  26  28
ENDBRANCH  21  26
ENDBRANCH  17  19
ENDBRANCH  12  15
ENDBRANCH   8   9
ENDBRANCH   5   8
TORSDOF 7
ENDMDL
MODEL       83
REMARK 921   NORMALIZED FREE ENERGY PREDICTED BY IDOCK:   -5.32 KCAL/MOL
REMARK 922        TOTAL FREE ENERGY PREDICTED BY IDOCK:   -8.65 KCAL/MOL
REMARK 923 INTER-LIGAND FREE ENERGY PREDICTED BY IDOCK:   -7.75 KCAL/MOL
REMARK 924 INTRA-LIGAND FREE ENERGY PREDICTED BY IDOCK:   -0.90 KCAL/MOL
REMARK 927      BINDING AFFINITY PREDICTED BY RF-SCORE:    0.00 PKD
ROOT
HETATM    1  C   UNL     1      -7.652  20.703  68.173  1.00  0.00     0.055 C  
HETATM    2  N   UNL     1      -6.967  19.541  67.604  1.00  0.00    -0.230 NA 
HETATM    3  C   UNL     1      -6.991  18.401  68.540  1.00  0.00    -0.261 C  
HETATM    4  C   UNL     1      -8.348  17.664  68.623  1.00  0.00    -0.267 C  
HETATM    5  N   UNL     1      -8.885  17.223  67.314  1.00  0.00    -0.219 NA 
HETATM    6  C   UNL     1      -7.566  19.150  66.311  1.00  0.00    -0.274 C  
HETATM    7  C   UNL     1      -8.911  18.387  66.409  1.00  0.00    -0.248 C  
ENDROOT
BRANCH   5   8
HETATM    8  C   UNL     1      -8.126  16.100  66.719  1.00  0.00    -0.270 C  
BRANCH   8   9
HETATM    9  C   UNL     1      -8.839  14.779  66.922  1.00  0.00    -0.274 A  
HETATM   10  C   UNL     1     -10.184  14.656  66.549  1.00  0.00    -0.282 A  
HETATM   11  C   UNL     1     -10.942  13.592  67.028  1.00  0.00    -0.298 A  
HETATM   12  C   UNL     1     -10.363  12.639  67.876  1.00  0.00    -0.221 A  
HETATM   13  C   UNL     1      -8.228  13.750  67.653  1.00  0.00    -0.180 A  
HETATM   14  C   UNL     1      -8.988  12.685  68.139  1.00  0.00    -0.199 A  
BRANCH  12  15
HETATM   15  C   UNL     1     -11.282  11.713  68.591  1.00  0.00    -0.250 C  
HETATM   16  O   UNL     1     -12.293  11.323  68.013  1.00  0.00    -0.432 OA 
HETATM   17  N   UNL     1     -10.911  11.331  69.870  1.00  0.00    -0.466 N  
HETATM   18  H   UNL     1     -10.039  11.685  70.265  1.00  0.00     0.000 HD 
BRANCH  17  19
HETATM   19  C   UNL     1     -11.714  10.463  70.637  1.00  0.00    -0.351 A  
HETATM   20  C   UNL     1     -11.288   9.148  70.776  1.00  0.00    -0.337 A  
HETATM   21  C   UNL     1     -12.130   8.151  71.303  1.00  0.00    -0.288 A  
HETATM   22  C   UNL     1     -12.925  10.856  71.190  1.00  0.00    -0.449 A  
HETATM   23  C   UNL     1     -13.366   8.550  71.854  1.00  0.00    -0.401 A  
HETATM   24  C   UNL     1     -14.364   7.601  72.461  1.00  0.00     0.035 C  
HETATM   25  C   UNL     1     -13.728   9.911  71.829  1.00  0.00    -0.268 A  
BRANCH  21  26
HETATM   26  N   UNL     1     -11.775   6.799  71.152  1.00  0.00    -0.327 NA 
HETATM   27  H   UNL     1     -11.981   6.387  70.242  1.00  0.00     0.000 HD 
BRANCH  26  28
HETATM   28  C   UNL     1     -11.177   5.943  72.080  1.00  0.00    -0.287 A  
HETATM   29  N   UNL     1     -11.979   5.376  72.986  1.00  0.00    -0.085 NA 
HETATM   30  C   UNL     1     -11.406   4.521  73.852  1.00  0.00     0.058 A  
HETATM   31  C   UNL     1     -10.069   4.194  73.840  1.00  0.00    -0.197 A  
HETATM   32  C   UNL     1      -9.305   4.820  72.881  1.00  0.00    -0.127 A  
HETATM   33  N   UNL     1      -9.862   5.687  72.016  1.00  0.00    -0.162 NA 
BRANCH  32  34
HETATM   34  C   UNL     1      -7.856   4.616  72.697  1.00  0.00    -0.088 A  
HETATM   35  C   UNL     1      -7.274   3.354  72.580  1.00  0.00    -0.048 A  
HETATM   36  N   UNL     1      -5.945   3.115  72.430  1.00  0.00    -0.009 NA 
HETATM   37  C   UNL     1      -5.134   4.197  72.395  1.00  0.00     0.000 A  
HETATM   38  C   UNL     1      -5.589   5.495  72.507  1.00  0.00    -0.022 A  
HETATM   39  C   UNL     1      -6.959   5.700  72.658  1.00  0.00    -0.080 A  
ENDBRANCH  32  34
ENDBRANCH  26  28
ENDBRANCH  21  26
ENDBRANCH  17  19
ENDBRANCH  12  15
ENDBRANCH   8   9
ENDBRANCH   5   8
TORSDOF 7
ENDMDL
MODEL       84
REMARK 921   NORMALIZED FREE ENERGY PREDICTED BY IDOCK:   -5.32 KCAL/MOL
REMARK 922        TOTAL FREE ENERGY PREDICTED BY IDOCK:   -8.64 KCAL/MOL
REMARK 923 INTER-LIGAND FREE ENERGY PREDICTED BY IDOCK:   -7.60 KCAL/MOL
REMARK 924 INTRA-LIGAND FREE ENERGY PREDICTED BY IDOCK:   -1.04 KCAL/MOL
REMARK 927      BINDING AFFINITY PREDICTED BY RF-SCORE:    0.00 PKD
ROOT
HETATM    1  C   UNL     1      -7.696  20.834  67.175  1.00  0.00    -0.259 C  
HETATM    2  N   UNL     1      -9.082  20.507  67.515  1.00  0.00    -0.325 NA 
HETATM    3  C   UNL     1      -9.773  19.882  66.370  1.00  0.00    -0.447 C  
HETATM    4  C   UNL     1      -9.398  18.404  66.119  1.00  0.00    -0.137 C  
HETATM    5  N   UNL     1      -9.543  17.526  67.305  1.00  0.00    -0.267 NA 
HETATM    6  C   UNL     1      -9.146  19.618  68.694  1.00  0.00    -0.285 C  
HETATM    7  C   UNL     1      -8.797  18.133  68.422  1.00  0.00    -0.293 C  
ENDROOT
BRANCH   5   8
HETATM    8  C   UNL     1     -10.953  17.275  67.678  1.00  0.00    -0.133 C  
BRANCH   8   9
HETATM    9  C   UNL     1     -11.067  16.177  68.716  1.00  0.00    -0.354 A  
HETATM   10  C   UNL     1     -10.686  14.872  68.382  1.00  0.00    -0.245 A  
HETATM   11  C   UNL     1     -11.092  13.806  69.180  1.00  0.00    -0.282 A  
HETATM   12  C   UNL     1     -11.875  14.036  70.319  1.00  0.00    -0.373 A  
HETATM   13  C   UNL     1     -11.728  16.417  69.929  1.00  0.00     0.108 A  
HETATM   14  C   UNL     1     -12.140  15.349  70.727  1.00  0.00    -0.413 A  
BRANCH  12  15
HETATM   15  C   UNL     1     -12.526  12.856  70.949  1.00  0.00    -0.296 C  
HETATM   16  O   UNL     1     -13.326  13.041  71.862  1.00  0.00    -0.446 OA 
HETATM   17  N   UNL     1     -12.195  11.612  70.433  1.00  0.00    -0.358 N  
HETATM   18  H   UNL     1     -11.537  11.552  69.656  1.00  0.00     0.000 HD 
BRANCH  17  19
HETATM   19  C   UNL     1     -12.750  10.430  70.962  1.00  0.00    -0.394 A  
HETATM   20  C   UNL     1     -12.019   9.755  71.933  1.00  0.00    -0.270 A  
HETATM   21  C   UNL     1     -12.360   8.452  72.339  1.00  0.00    -0.351 A  
HETATM   22  C   UNL     1     -13.946   9.894  70.505  1.00  0.00     0.746 A  
HETATM   23  C   UNL     1     -13.570   7.904  71.865  1.00  0.00    -0.346 A  
HETATM   24  C   UNL     1     -14.069   6.530  72.221  1.00  0.00     0.173 C  
HETATM   25  C   UNL     1     -14.373   8.655  70.984  1.00  0.00    -0.026 A  
BRANCH  21  26
HETATM   26  N   UNL     1     -11.438   7.703  73.092  1.00  0.00    -0.613 NA 
HETATM   27  H   UNL     1     -11.841   6.986  73.696  1.00  0.00     0.000 HD 
BRANCH  26  28
HETATM   28  C   UNL     1     -10.045   7.806  73.125  1.00  0.00    -0.327 A  
HETATM   29  N   UNL     1      -9.420   7.246  74.165  1.00  0.00    -0.244 NA 
HETATM   30  C   UNL     1      -8.077   7.313  74.171  1.00  0.00    -0.147 A  
HETATM   31  C   UNL     1      -7.330   7.901  73.175  1.00  0.00    -0.135 A  
HETATM   32  C   UNL     1      -8.044   8.460  72.139  1.00  0.00    -0.135 A  
HETATM   33  N   UNL     1      -9.388   8.412  72.125  1.00  0.00    -0.244 NA 
BRANCH  32  34
HETATM   34  C   UNL     1      -7.442   9.141  70.977  1.00  0.00    -0.120 A  
HETATM   35  C   UNL     1      -8.091   9.266  69.748  1.00  0.00    -0.120 A  
HETATM   36  N   UNL     1      -7.571   9.865  68.646  1.00  0.00    -0.078 NA 
HETATM   37  C   UNL     1      -6.323  10.375  68.763  1.00  0.00    -0.047 A  
HETATM   38  C   UNL     1      -5.578  10.307  69.922  1.00  0.00    -0.045 A  
HETATM   39  C   UNL     1      -6.146   9.686  71.033  1.00  0.00    -0.077 A  
ENDBRANCH  32  34
ENDBRANCH  26  28
ENDBRANCH  21  26
ENDBRANCH  17  19
ENDBRANCH  12  15
ENDBRANCH   8   9
ENDBRANCH   5   8
TORSDOF 7
ENDMDL
MODEL       85
REMARK 921   NORMALIZED FREE ENERGY PREDICTED BY IDOCK:   -5.30 KCAL/MOL
REMARK 922        TOTAL FREE ENERGY PREDICTED BY IDOCK:   -8.62 KCAL/MOL
REMARK 923 INTER-LIGAND FREE ENERGY PREDICTED BY IDOCK:   -7.62 KCAL/MOL
REMARK 924 INTRA-LIGAND FREE ENERGY PREDICTED BY IDOCK:   -1.01 KCAL/MOL
REMARK 927      BINDING AFFINITY PREDICTED BY RF-SCORE:    0.00 PKD
ROOT
HETATM    1  C   UNL     1     -10.173  19.203  66.911  1.00  0.00    -0.395 C  
HETATM    2  N   UNL     1      -9.525  18.455  67.989  1.00  0.00    -0.281 NA 
HETATM    3  C   UNL     1     -10.454  17.475  68.585  1.00  0.00    -0.338 C  
HETATM    4  C   UNL     1     -10.687  16.207  67.732  1.00  0.00    -0.325 C  
HETATM    5  N   UNL     1      -9.446  15.507  67.326  1.00  0.00    -0.211 NA 
HETATM    6  C   UNL     1      -8.307  17.772  67.507  1.00  0.00    -0.226 C  
HETATM    7  C   UNL     1      -8.554  16.486  66.678  1.00  0.00    -0.254 C  
ENDROOT
BRANCH   5   8
HETATM    8  C   UNL     1      -8.764  14.825  68.450  1.00  0.00    -0.169 C  
BRANCH   8   9
HETATM    9  C   UNL     1      -8.382  13.404  68.088  1.00  0.00    -0.164 A  
HETATM   10  C   UNL     1      -9.380  12.427  67.985  1.00  0.00    -0.204 A  
HETATM   11  C   UNL     1      -9.034  11.079  67.994  1.00  0.00    -0.145 A  
HETATM   12  C   UNL     1      -7.690  10.696  68.099  1.00  0.00    -0.101 A  
HETATM   13  C   UNL     1      -7.034  13.022  68.051  1.00  0.00    -0.112 A  
HETATM   14  C   UNL     1      -6.685  11.671  68.065  1.00  0.00    -0.064 A  
BRANCH  12  15
HETATM   15  C   UNL     1      -7.409   9.269  68.409  1.00  0.00    -0.077 C  
HETATM   16  O   UNL     1      -6.543   9.005  69.238  1.00  0.00    -0.048 OA 
HETATM   17  N   UNL     1      -8.178   8.325  67.746  1.00  0.00    -0.126 N  
HETATM   18  H   UNL     1      -8.894   8.634  67.089  1.00  0.00     0.000 HD 
BRANCH  17  19
HETATM   19  C   UNL     1      -7.988   6.945  67.962  1.00  0.00    -0.115 A  
HETATM   20  C   UNL     1      -8.673   6.360  69.020  1.00  0.00    -0.123 A  
HETATM   21  C   UNL     1      -8.365   5.062  69.469  1.00  0.00    -0.088 A  
HETATM   22  C   UNL     1      -7.107   6.183  67.207  1.00  0.00    -0.070 A  
HETATM   23  C   UNL     1      -7.460   4.293  68.708  1.00  0.00    -0.056 A  
HETATM   24  C   UNL     1      -7.045   2.890  69.059  1.00  0.00    -0.045 C  
HETATM   25  C   UNL     1      -6.874   4.852  67.556  1.00  0.00    -0.060 A  
BRANCH  21  26
HETATM   26  N   UNL     1      -8.865   4.627  70.710  1.00  0.00    -0.116 NA 
HETATM   27  H   UNL     1      -8.821   3.621  70.875  1.00  0.00     0.000 HD 
BRANCH  26  28
HETATM   28  C   UNL     1      -9.413   5.385  71.747  1.00  0.00    -0.147 A  
HETATM   29  N   UNL     1      -9.096   5.025  72.994  1.00  0.00    -0.124 NA 
HETATM   30  C   UNL     1      -9.593   5.783  73.988  1.00  0.00    -0.153 A  
HETATM   31  C   UNL     1     -10.379   6.895  73.789  1.00  0.00    -0.409 A  
HETATM   32  C   UNL     1     -10.666   7.202  72.478  1.00  0.00    -0.250 A  
HETATM   33  N   UNL     1     -10.187   6.447  71.474  1.00  0.00    -0.192 NA 
BRANCH  32  34
HETATM   34  C   UNL     1     -11.491   8.346  72.046  1.00  0.00    -0.418 A  
HETATM   35  C   UNL     1     -10.997   9.386  71.258  1.00  0.00    -0.370 A  
HETATM   36  N   UNL     1     -11.710  10.467  70.852  1.00  0.00    -0.347 NA 
HETATM   37  C   UNL     1     -13.002  10.528  71.252  1.00  0.00    -0.433 A  
HETATM   38  C   UNL     1     -13.603   9.566  72.037  1.00  0.00    -0.492 A  
HETATM   39  C   UNL     1     -12.838   8.470  72.433  1.00  0.00    -0.373 A  
ENDBRANCH  32  34
ENDBRANCH  26  28
ENDBRANCH  21  26
ENDBRANCH  17  19
ENDBRANCH  12  15
ENDBRANCH   8   9
ENDBRANCH   5   8
TORSDOF 7
ENDMDL
MODEL       86
REMARK 921   NORMALIZED FREE ENERGY PREDICTED BY IDOCK:   -5.29 KCAL/MOL
REMARK 922        TOTAL FREE ENERGY PREDICTED BY IDOCK:   -8.60 KCAL/MOL
REMARK 923 INTER-LIGAND FREE ENERGY PREDICTED BY IDOCK:   -7.50 KCAL/MOL
REMARK 924 INTRA-LIGAND FREE ENERGY PREDICTED BY IDOCK:   -1.11 KCAL/MOL
REMARK 927      BINDING AFFINITY PREDICTED BY RF-SCORE:    0.00 PKD
ROOT
HETATM    1  C   UNL     1     -11.283   1.569  73.132  1.00  0.00    -0.164 C  
HETATM    2  N   UNL     1      -9.968   2.183  73.320  1.00  0.00    -0.097 NA 
HETATM    3  C   UNL     1      -9.232   2.260  72.043  1.00  0.00    -0.088 C  
HETATM    4  C   UNL     1      -9.711   3.379  71.090  1.00  0.00    -0.152 C  
HETATM    5  N   UNL     1      -9.752   4.728  71.703  1.00  0.00    -0.161 NA 
HETATM    6  C   UNL     1     -10.089   3.529  73.918  1.00  0.00    -0.132 C  
HETATM    7  C   UNL     1     -10.541   4.647  72.945  1.00  0.00    -0.212 C  
ENDROOT
BRANCH   5   8
HETATM    8  C   UNL     1      -8.409   5.295  71.958  1.00  0.00    -0.122 C  
BRANCH   8   9
HETATM    9  C   UNL     1      -8.199   6.590  71.200  1.00  0.00    -0.121 A  
HETATM   10  C   UNL     1      -6.992   6.805  70.524  1.00  0.00    -0.063 A  
HETATM   11  C   UNL     1      -6.643   8.090  70.119  1.00  0.00    -0.037 A  
HETATM   12  C   UNL     1      -7.499   9.168  70.380  1.00  0.00    -0.107 A  
HETATM   13  C   UNL     1      -9.114   7.644  71.333  1.00  0.00    -0.146 A  
HETATM   14  C   UNL     1      -8.764   8.934  70.933  1.00  0.00    -0.256 A  
BRANCH  12  15
HETATM   15  C   UNL     1      -6.945  10.537  70.202  1.00  0.00    -0.113 C  
HETATM   16  O   UNL     1      -6.224  11.000  71.081  1.00  0.00    -0.327 OA 
HETATM   17  N   UNL     1      -7.268  11.192  69.024  1.00  0.00    -0.109 N  
HETATM   18  H   UNL     1      -7.856  10.722  68.335  1.00  0.00     0.000 HD 
BRANCH  17  19
HETATM   19  C   UNL     1      -6.801  12.495  68.759  1.00  0.00    -0.096 A  
HETATM   20  C   UNL     1      -7.693  13.546  68.937  1.00  0.00     0.030 A  
HETATM   21  C   UNL     1      -7.408  14.842  68.467  1.00  0.00    -0.118 A  
HETATM   22  C   UNL     1      -5.526  12.749  68.274  1.00  0.00    -0.067 A  
HETATM   23  C   UNL     1      -6.116  15.096  67.963  1.00  0.00    -0.159 A  
HETATM   24  C   UNL     1      -5.664  16.432  67.437  1.00  0.00    -0.183 C  
HETATM   25  C   UNL     1      -5.173  14.051  67.915  1.00  0.00    -0.062 A  
BRANCH  21  26
HETATM   26  N   UNL     1      -8.443  15.792  68.401  1.00  0.00    -0.164 NA 
HETATM   27  H   UNL     1      -8.565  16.370  69.233  1.00  0.00     0.000 HD 
BRANCH  26  28
HETATM   28  C   UNL     1      -9.325  16.054  67.350  1.00  0.00    -0.217 A  
HETATM   29  N   UNL     1      -9.500  17.334  67.009  1.00  0.00    -0.254 NA 
HETATM   30  C   UNL     1     -10.319  17.577  65.970  1.00  0.00    -0.306 A  
HETATM   31  C   UNL     1     -10.956  16.595  65.245  1.00  0.00    -0.127 A  
HETATM   32  C   UNL     1     -10.731  15.301  65.657  1.00  0.00    -0.365 A  
HETATM   33  N   UNL     1      -9.925  15.043  66.702  1.00  0.00    -0.249 NA 
BRANCH  32  34
HETATM   34  C   UNL     1     -11.318  14.105  65.024  1.00  0.00    -0.350 A  
HETATM   35  C   UNL     1     -12.671  13.782  65.117  1.00  0.00    -0.397 A  
HETATM   36  N   UNL     1     -13.254  12.684  64.569  1.00  0.00    -0.714 NA 
HETATM   37  C   UNL     1     -12.443  11.845  63.884  1.00  0.00    -0.371 A  
HETATM   38  C   UNL     1     -11.087  12.052  63.728  1.00  0.00    -0.510 A  
HETATM   39  C   UNL     1     -10.527  13.191  64.303  1.00  0.00    -0.410 A  
ENDBRANCH  32  34
ENDBRANCH  26  28
ENDBRANCH  21  26
ENDBRANCH  17  19
ENDBRANCH  12  15
ENDBRANCH   8   9
ENDBRANCH   5   8
TORSDOF 7
ENDMDL
MODEL       87
REMARK 921   NORMALIZED FREE ENERGY PREDICTED BY IDOCK:   -5.24 KCAL/MOL
REMARK 922        TOTAL FREE ENERGY PREDICTED BY IDOCK:   -8.54 KCAL/MOL
REMARK 923 INTER-LIGAND FREE ENERGY PREDICTED BY IDOCK:   -7.21 KCAL/MOL
REMARK 924 INTRA-LIGAND FREE ENERGY PREDICTED BY IDOCK:   -1.33 KCAL/MOL
REMARK 927      BINDING AFFINITY PREDICTED BY RF-SCORE:    0.00 PKD
ROOT
HETATM    1  C   UNL     1      -9.688   3.381  73.471  1.00  0.00    -0.107 C  
HETATM    2  N   UNL     1      -8.459   3.460  72.680  1.00  0.00    -0.084 NA 
HETATM    3  C   UNL     1      -8.485   2.494  71.564  1.00  0.00    -0.063 C  
HETATM    4  C   UNL     1      -9.378   2.911  70.372  1.00  0.00    -0.152 C  
HETATM    5  N   UNL     1      -9.088   4.260  69.833  1.00  0.00    -0.096 NA 
HETATM    6  C   UNL     1      -8.245   4.828  72.162  1.00  0.00    -0.111 C  
HETATM    7  C   UNL     1      -9.125   5.222  70.950  1.00  0.00    -0.138 C  
ENDROOT
BRANCH   5   8
HETATM    8  C   UNL     1      -7.801   4.335  69.106  1.00  0.00    -0.057 C  
BRANCH   8   9
HETATM    9  C   UNL     1      -7.794   5.472  68.104  1.00  0.00    -0.092 A  
HETATM   10  C   UNL     1      -6.907   6.542  68.282  1.00  0.00    -0.071 A  
HETATM   11  C   UNL     1      -7.111   7.733  67.592  1.00  0.00    -0.083 A  
HETATM   12  C   UNL     1      -8.196   7.864  66.715  1.00  0.00    -0.116 A  
HETATM   13  C   UNL     1      -8.792   5.557  67.124  1.00  0.00    -0.106 A  
HETATM   14  C   UNL     1      -9.002   6.753  66.435  1.00  0.00    -0.165 A  
BRANCH  12  15
HETATM   15  C   UNL     1      -8.536   9.235  66.249  1.00  0.00    -0.127 C  
HETATM   16  O   UNL     1      -7.624  10.028  66.035  1.00  0.00    -0.102 OA 
HETATM   17  N   UNL     1      -9.881   9.514  66.063  1.00  0.00    -0.272 N  
HETATM   18  H   UNL     1     -10.573   8.787  66.243  1.00  0.00     0.000 HD 
BRANCH  17  19
HETATM   19  C   UNL     1     -10.311  10.785  65.630  1.00  0.00    -0.230 A  
HETATM   20  C   UNL     1     -10.689  11.702  66.603  1.00  0.00    -0.310 A  
HETATM   21  C   UNL     1     -11.362  12.893  66.273  1.00  0.00    -0.323 A  
HETATM   22  C   UNL     1     -10.429  11.118  64.287  1.00  0.00    -0.427 A  
HETATM   23  C   UNL     1     -11.491  13.225  64.908  1.00  0.00    -0.342 A  
HETATM   24  C   UNL     1     -12.174  14.468  64.405  1.00  0.00    -0.480 C  
HETATM   25  C   UNL     1     -10.980  12.349  63.930  1.00  0.00    -0.467 A  
BRANCH  21  26
HETATM   26  N   UNL     1     -11.982  13.638  67.291  1.00  0.00    -0.387 NA 
HETATM   27  H   UNL     1     -12.957  13.401  67.480  1.00  0.00     0.000 HD 
BRANCH  26  28
HETATM   28  C   UNL     1     -11.446  14.658  68.080  1.00  0.00    -0.323 A  
HETATM   29  N   UNL     1     -12.267  15.241  68.958  1.00  0.00    -0.189 NA 
HETATM   30  C   UNL     1     -11.735  16.195  69.744  1.00  0.00    -0.189 A  
HETATM   31  C   UNL     1     -10.414  16.579  69.702  1.00  0.00    -0.267 A  
HETATM   32  C   UNL     1      -9.630  15.937  68.770  1.00  0.00    -0.219 A  
HETATM   33  N   UNL     1     -10.150  14.990  67.968  1.00  0.00    -0.222 NA 
BRANCH  32  34
HETATM   34  C   UNL     1      -8.194  16.199  68.557  1.00  0.00    -0.186 A  
HETATM   35  C   UNL     1      -7.470  17.124  69.310  1.00  0.00    -0.061 A  
HETATM   36  N   UNL     1      -6.155  17.414  69.139  1.00  0.00    -0.204 NA 
HETATM   37  C   UNL     1      -5.508  16.746  68.155  1.00  0.00    -0.117 A  
HETATM   38  C   UNL     1      -6.116  15.813  67.339  1.00  0.00    -0.117 A  
HETATM   39  C   UNL     1      -7.467  15.542  67.547  1.00  0.00    -0.209 A  
ENDBRANCH  32  34
ENDBRANCH  26  28
ENDBRANCH  21  26
ENDBRANCH  17  19
ENDBRANCH  12  15
ENDBRANCH   8   9
ENDBRANCH   5   8
TORSDOF 7
ENDMDL
MODEL       88
REMARK 921   NORMALIZED FREE ENERGY PREDICTED BY IDOCK:   -5.20 KCAL/MOL
REMARK 922        TOTAL FREE ENERGY PREDICTED BY IDOCK:   -8.48 KCAL/MOL
REMARK 923 INTER-LIGAND FREE ENERGY PREDICTED BY IDOCK:   -7.26 KCAL/MOL
REMARK 924 INTRA-LIGAND FREE ENERGY PREDICTED BY IDOCK:   -1.22 KCAL/MOL
REMARK 927      BINDING AFFINITY PREDICTED BY RF-SCORE:    0.00 PKD
ROOT
HETATM    1  C   UNL     1      -7.657   2.054  63.773  1.00  0.00    -0.059 C  
HETATM    2  N   UNL     1      -7.877   3.175  62.857  1.00  0.00    -0.067 NA 
HETATM    3  C   UNL     1      -8.807   4.161  63.441  1.00  0.00    -0.116 C  
HETATM    4  C   UNL     1      -8.186   5.064  64.532  1.00  0.00    -0.126 C  
HETATM    5  N   UNL     1      -6.946   5.761  64.115  1.00  0.00    -0.049 NA 
HETATM    6  C   UNL     1      -6.601   3.830  62.500  1.00  0.00    -0.023 C  
HETATM    7  C   UNL     1      -6.005   4.755  63.590  1.00  0.00    -0.018 C  
ENDROOT
BRANCH   5   8
HETATM    8  C   UNL     1      -7.184   6.838  63.127  1.00  0.00    -0.064 C  
BRANCH   8   9
HETATM    9  C   UNL     1      -7.481   8.159  63.806  1.00  0.00    -0.120 A  
HETATM   10  C   UNL     1      -6.713   8.556  64.908  1.00  0.00    -0.068 A  
HETATM   11  C   UNL     1      -7.171   9.571  65.742  1.00  0.00    -0.097 A  
HETATM   12  C   UNL     1      -8.395  10.202  65.481  1.00  0.00    -0.160 A  
HETATM   13  C   UNL     1      -8.632   8.885  63.468  1.00  0.00    -0.104 A  
HETATM   14  C   UNL     1      -9.096   9.900  64.307  1.00  0.00    -0.297 A  
BRANCH  12  15
HETATM   15  C   UNL     1      -8.970  11.049  66.559  1.00  0.00    -0.173 C  
HETATM   16  O   UNL     1      -8.318  11.222  67.585  1.00  0.00    -0.119 OA 
HETATM   17  N   UNL     1     -10.211  11.615  66.312  1.00  0.00    -0.220 N  
HETATM   18  H   UNL     1     -10.673  11.437  65.420  1.00  0.00     0.000 HD 
BRANCH  17  19
HETATM   19  C   UNL     1     -10.849  12.429  67.270  1.00  0.00    -0.243 A  
HETATM   20  C   UNL     1     -10.609  13.796  67.212  1.00  0.00    -0.275 A  
HETATM   21  C   UNL     1     -10.990  14.656  68.259  1.00  0.00    -0.252 A  
HETATM   22  C   UNL     1     -11.638  11.910  68.287  1.00  0.00    -0.390 A  
HETATM   23  C   UNL     1     -11.783  14.126  69.298  1.00  0.00    -0.368 A  
HETATM   24  C   UNL     1     -12.273  14.925  70.476  1.00  0.00    -0.388 C  
HETATM   25  C   UNL     1     -12.135  12.762  69.275  1.00  0.00    -0.224 A  
BRANCH  21  26
HETATM   26  N   UNL     1     -10.473  15.964  68.299  1.00  0.00    -0.249 NA 
HETATM   27  H   UNL     1     -11.155  16.711  68.170  1.00  0.00     0.000 HD 
BRANCH  26  28
HETATM   28  C   UNL     1      -9.153  16.377  68.491  1.00  0.00    -0.223 A  
HETATM   29  N   UNL     1      -8.407  15.654  69.331  1.00  0.00    -0.252 NA 
HETATM   30  C   UNL     1      -7.125  16.032  69.482  1.00  0.00    -0.181 A  
HETATM   31  C   UNL     1      -6.551  17.091  68.815  1.00  0.00    -0.187 A  
HETATM   32  C   UNL     1      -7.382  17.791  67.969  1.00  0.00    -0.220 A  
HETATM   33  N   UNL     1      -8.669  17.433  67.818  1.00  0.00    -0.228 NA 
BRANCH  32  34
HETATM   34  C   UNL     1      -6.971  18.957  67.165  1.00  0.00    -0.210 A  
HETATM   35  C   UNL     1      -7.055  20.269  67.630  1.00  0.00    -0.290 A  
HETATM   36  N   UNL     1      -6.709  21.375  66.922  1.00  0.00    -0.506 NA 
HETATM   37  C   UNL     1      -6.248  21.172  65.666  1.00  0.00    -0.150 A  
HETATM   38  C   UNL     1      -6.125  19.923  65.091  1.00  0.00    -0.272 A  
HETATM   39  C   UNL     1      -6.490  18.812  65.850  1.00  0.00    -0.270 A  
ENDBRANCH  32  34
ENDBRANCH  26  28
ENDBRANCH  21  26
ENDBRANCH  17  19
ENDBRANCH  12  15
ENDBRANCH   8   9
ENDBRANCH   5   8
TORSDOF 7
ENDMDL
MODEL       89
REMARK 921   NORMALIZED FREE ENERGY PREDICTED BY IDOCK:   -5.12 KCAL/MOL
REMARK 922        TOTAL FREE ENERGY PREDICTED BY IDOCK:   -8.36 KCAL/MOL
REMARK 923 INTER-LIGAND FREE ENERGY PREDICTED BY IDOCK:   -7.69 KCAL/MOL
REMARK 924 INTRA-LIGAND FREE ENERGY PREDICTED BY IDOCK:   -0.67 KCAL/MOL
REMARK 927      BINDING AFFINITY PREDICTED BY RF-SCORE:    0.00 PKD
ROOT
HETATM    1  C   UNL     1     -13.025  16.017  73.924  1.00  0.00    -0.428 C  
HETATM    2  N   UNL     1     -13.423  16.023  72.515  1.00  0.00    -0.372 NA 
HETATM    3  C   UNL     1     -12.247  16.171  71.634  1.00  0.00    -0.367 C  
HETATM    4  C   UNL     1     -11.396  14.890  71.475  1.00  0.00    -0.168 C  
HETATM    5  N   UNL     1     -12.164  13.694  71.055  1.00  0.00    -0.341 NA 
HETATM    6  C   UNL     1     -14.167  14.795  72.166  1.00  0.00    -0.515 C  
HETATM    7  C   UNL     1     -13.299  13.525  71.980  1.00  0.00    -0.475 C  
ENDROOT
BRANCH   5   8
HETATM    8  C   UNL     1     -12.625  13.759  69.650  1.00  0.00     0.029 C  
BRANCH   8   9
HETATM    9  C   UNL     1     -11.707  12.983  68.728  1.00  0.00    -0.363 A  
HETATM   10  C   UNL     1     -12.032  12.866  67.370  1.00  0.00    -0.360 A  
HETATM   11  C   UNL     1     -11.409  11.897  66.590  1.00  0.00    -0.400 A  
HETATM   12  C   UNL     1     -10.453  11.042  67.155  1.00  0.00    -0.274 A  
HETATM   13  C   UNL     1     -10.652  12.224  69.254  1.00  0.00     0.064 A  
HETATM   14  C   UNL     1     -10.030  11.248  68.474  1.00  0.00    -0.206 A  
BRANCH  12  15
HETATM   15  C   UNL     1     -10.053   9.847  66.365  1.00  0.00    -0.240 C  
HETATM   16  O   UNL     1     -10.612   8.778  66.589  1.00  0.00    -0.226 OA 
HETATM   17  N   UNL     1      -9.079  10.038  65.397  1.00  0.00    -0.178 N  
HETATM   18  H   UNL     1      -8.684  10.969  65.261  1.00  0.00     0.000 HD 
BRANCH  17  19
HETATM   19  C   UNL     1      -8.623   8.971  64.597  1.00  0.00    -0.165 A  
HETATM   20  C   UNL     1      -8.361   7.761  65.229  1.00  0.00    -0.128 A  
HETATM   21  C   UNL     1      -7.674   6.722  64.575  1.00  0.00    -0.113 A  
HETATM   22  C   UNL     1      -8.371   9.107  63.239  1.00  0.00    -0.193 A  
HETATM   23  C   UNL     1      -7.408   6.866  63.197  1.00  0.00    -0.076 A  
HETATM   24  C   UNL     1      -6.693   5.836  62.365  1.00  0.00    -0.035 C  
HETATM   25  C   UNL     1      -7.802   8.045  62.535  1.00  0.00    -0.140 A  
BRANCH  21  26
HETATM   26  N   UNL     1      -7.172   5.646  65.329  1.00  0.00    -0.065 NA 
HETATM   27  H   UNL     1      -6.181   5.441  65.201  1.00  0.00     0.000 HD 
BRANCH  26  28
HETATM   28  C   UNL     1      -7.847   4.820  66.231  1.00  0.00    -0.099 A  
HETATM   29  N   UNL     1      -7.956   3.528  65.906  1.00  0.00    -0.092 NA 
HETATM   30  C   UNL     1      -8.571   2.730  66.797  1.00  0.00    -0.110 A  
HETATM   31  C   UNL     1      -9.066   3.162  68.006  1.00  0.00    -0.218 A  
HETATM   32  C   UNL     1      -8.921   4.506  68.270  1.00  0.00    -0.116 A  
HETATM   33  N   UNL     1      -8.320   5.320  67.383  1.00  0.00    -0.107 NA 
BRANCH  32  34
HETATM   34  C   UNL     1      -9.384   5.174  69.501  1.00  0.00    -0.181 A  
HETATM   35  C   UNL     1      -9.214   6.539  69.735  1.00  0.00    -0.145 A  
HETATM   36  N   UNL     1      -9.604   7.194  70.859  1.00  0.00    -0.167 NA 
HETATM   37  C   UNL     1     -10.202   6.452  71.819  1.00  0.00    -0.197 A  
HETATM   38  C   UNL     1     -10.420   5.093  71.707  1.00  0.00    -0.268 A  
HETATM   39  C   UNL     1     -10.007   4.456  70.538  1.00  0.00    -0.256 A  
ENDBRANCH  32  34
ENDBRANCH  26  28
ENDBRANCH  21  26
ENDBRANCH  17  19
ENDBRANCH  12  15
ENDBRANCH   8   9
ENDBRANCH   5   8
TORSDOF 7
ENDMDL
MODEL       90
REMARK 921   NORMALIZED FREE ENERGY PREDICTED BY IDOCK:   -5.09 KCAL/MOL
REMARK 922        TOTAL FREE ENERGY PREDICTED BY IDOCK:   -8.33 KCAL/MOL
REMARK 923 INTER-LIGAND FREE ENERGY PREDICTED BY IDOCK:   -8.41 KCAL/MOL
REMARK 924 INTRA-LIGAND FREE ENERGY PREDICTED BY IDOCK:    0.08 KCAL/MOL
REMARK 927      BINDING AFFINITY PREDICTED BY RF-SCORE:    0.00 PKD
ROOT
HETATM    1  C   UNL     1     -10.083   4.823  73.043  1.00  0.00    -0.160 C  
HETATM    2  N   UNL     1     -10.118   4.348  71.659  1.00  0.00    -0.182 NA 
HETATM    3  C   UNL     1      -9.558   5.358  70.739  1.00  0.00    -0.173 C  
HETATM    4  C   UNL     1      -8.016   5.457  70.754  1.00  0.00    -0.099 C  
HETATM    5  N   UNL     1      -7.317   4.168  70.535  1.00  0.00    -0.041 NA 
HETATM    6  C   UNL     1      -9.389   3.070  71.515  1.00  0.00    -0.133 C  
HETATM    7  C   UNL     1      -7.845   3.188  71.501  1.00  0.00    -0.056 C  
ENDROOT
BRANCH   5   8
HETATM    8  C   UNL     1      -7.436   3.667  69.147  1.00  0.00    -0.053 C  
BRANCH   8   9
HETATM    9  C   UNL     1      -7.458   4.805  68.146  1.00  0.00    -0.074 A  
HETATM   10  C   UNL     1      -6.540   5.854  68.274  1.00  0.00    -0.052 A  
HETATM   11  C   UNL     1      -6.754   7.050  67.596  1.00  0.00    -0.068 A  
HETATM   12  C   UNL     1      -7.882   7.206  66.780  1.00  0.00    -0.103 A  
HETATM   13  C   UNL     1      -8.506   4.913  67.222  1.00  0.00    -0.105 A  
HETATM   14  C   UNL     1      -8.726   6.113  66.545  1.00  0.00    -0.133 A  
BRANCH  12  15
HETATM   15  C   UNL     1      -8.216   8.584  66.332  1.00  0.00    -0.108 C  
HETATM   16  O   UNL     1      -7.335   9.439  66.347  1.00  0.00    -0.091 OA 
HETATM   17  N   UNL     1      -9.515   8.801  65.898  1.00  0.00    -0.364 N  
HETATM   18  H   UNL     1     -10.178   8.026  65.897  1.00  0.00     0.000 HD 
BRANCH  17  19
HETATM   19  C   UNL     1      -9.937  10.072  65.460  1.00  0.00    -0.296 A  
HETATM   20  C   UNL     1     -10.541  10.906  66.393  1.00  0.00    -0.289 A  
HETATM   21  C   UNL     1     -11.215  12.079  66.006  1.00  0.00    -0.335 A  
HETATM   22  C   UNL     1      -9.829  10.482  64.138  1.00  0.00    -0.401 A  
HETATM   23  C   UNL     1     -11.115  12.489  64.660  1.00  0.00    -0.343 A  
HETATM   24  C   UNL     1     -11.771  13.724  64.104  1.00  0.00    -0.397 C  
HETATM   25  C   UNL     1     -10.382  11.703  63.749  1.00  0.00    -0.445 A  
BRANCH  21  26
HETATM   26  N   UNL     1     -12.055  12.727  66.929  1.00  0.00    -0.468 NA 
HETATM   27  H   UNL     1     -12.628  13.482  66.550  1.00  0.00     0.000 HD 
BRANCH  26  28
HETATM   28  C   UNL     1     -12.212  12.478  68.295  1.00  0.00     0.144 A  
HETATM   29  N   UNL     1     -12.180  11.200  68.685  1.00  0.00    -0.549 NA 
HETATM   30  C   UNL     1     -12.291  10.968  70.005  1.00  0.00    -0.305 A  
HETATM   31  C   UNL     1     -12.414  11.958  70.954  1.00  0.00    -0.397 A  
HETATM   32  C   UNL     1     -12.443  13.249  70.476  1.00  0.00    -0.260 A  
HETATM   33  N   UNL     1     -12.346  13.496  69.158  1.00  0.00    -0.170 NA 
BRANCH  32  34
HETATM   34  C   UNL     1     -12.572  14.452  71.319  1.00  0.00    -0.421 A  
HETATM   35  C   UNL     1     -11.575  15.423  71.417  1.00  0.00    -0.402 A  
HETATM   36  N   UNL     1     -11.639  16.536  72.192  1.00  0.00    -0.323 NA 
HETATM   37  C   UNL     1     -12.766  16.702  72.923  1.00  0.00     0.352 A  
HETATM   38  C   UNL     1     -13.819  15.810  72.916  1.00  0.00    -0.565 A  
HETATM   39  C   UNL     1     -13.716  14.680  72.107  1.00  0.00    -0.544 A  
ENDBRANCH  32  34
ENDBRANCH  26  28
ENDBRANCH  21  26
ENDBRANCH  17  19
ENDBRANCH  12  15
ENDBRANCH   8   9
ENDBRANCH   5   8
TORSDOF 7
ENDMDL
MODEL       91
REMARK 921   NORMALIZED FREE ENERGY PREDICTED BY IDOCK:   -5.07 KCAL/MOL
REMARK 922        TOTAL FREE ENERGY PREDICTED BY IDOCK:   -8.30 KCAL/MOL
REMARK 923 INTER-LIGAND FREE ENERGY PREDICTED BY IDOCK:   -7.95 KCAL/MOL
REMARK 924 INTRA-LIGAND FREE ENERGY PREDICTED BY IDOCK:   -0.35 KCAL/MOL
REMARK 927      BINDING AFFINITY PREDICTED BY RF-SCORE:    0.00 PKD
ROOT
HETATM    1  C   UNL     1     -10.193   6.466  74.334  1.00  0.00    -0.324 C  
HETATM    2  N   UNL     1     -10.237   5.591  73.161  1.00  0.00    -0.180 NA 
HETATM    3  C   UNL     1      -9.614   6.242  71.992  1.00  0.00    -0.151 C  
HETATM    4  C   UNL     1      -8.068   6.270  72.018  1.00  0.00    -0.109 C  
HETATM    5  N   UNL     1      -7.437   4.945  72.224  1.00  0.00    -0.086 NA 
HETATM    6  C   UNL     1      -9.575   4.299  73.436  1.00  0.00    -0.120 C  
HETATM    7  C   UNL     1      -8.026   4.334  73.429  1.00  0.00    -0.090 C  
ENDROOT
BRANCH   5   8
HETATM    8  C   UNL     1      -7.564   4.048  71.054  1.00  0.00    -0.048 C  
BRANCH   8   9
HETATM    9  C   UNL     1      -7.502   4.821  69.752  1.00  0.00    -0.055 A  
HETATM   10  C   UNL     1      -6.459   5.732  69.540  1.00  0.00    -0.042 A  
HETATM   11  C   UNL     1      -6.564   6.683  68.530  1.00  0.00    -0.051 A  
HETATM   12  C   UNL     1      -7.706   6.728  67.719  1.00  0.00    -0.111 A  
HETATM   13  C   UNL     1      -8.576   4.778  68.852  1.00  0.00    -0.095 A  
HETATM   14  C   UNL     1      -8.685   5.734  67.841  1.00  0.00    -0.103 A  
BRANCH  12  15
HETATM   15  C   UNL     1      -7.895   7.936  66.873  1.00  0.00    -0.104 C  
HETATM   16  O   UNL     1      -7.061   8.189  66.009  1.00  0.00    -0.060 OA 
HETATM   17  N   UNL     1      -9.035   8.690  67.109  1.00  0.00    -0.131 N  
HETATM   18  H   UNL     1      -9.690   8.393  67.834  1.00  0.00     0.000 HD 
BRANCH  17  19
HETATM   19  C   UNL     1      -9.306   9.858  66.369  1.00  0.00    -0.167 A  
HETATM   20  C   UNL     1      -8.824  11.062  66.868  1.00  0.00    -0.150 A  
HETATM   21  C   UNL     1      -9.247  12.298  66.346  1.00  0.00    -0.203 A  
HETATM   22  C   UNL     1     -10.080   9.851  65.217  1.00  0.00    -0.227 A  
HETATM   23  C   UNL     1     -10.043  12.290  65.182  1.00  0.00    -0.284 A  
HETATM   24  C   UNL     1     -10.560  13.531  64.506  1.00  0.00    -0.439 C  
HETATM   25  C   UNL     1     -10.414  11.060  64.605  1.00  0.00    -0.398 A  
BRANCH  21  26
HETATM   26  N   UNL     1      -8.971  13.477  67.061  1.00  0.00    -0.232 NA 
HETATM   27  H   UNL     1      -7.983  13.688  67.201  1.00  0.00     0.000 HD 
BRANCH  26  28
HETATM   28  C   UNL     1      -9.867  14.400  67.606  1.00  0.00    -0.224 A  
HETATM   29  N   UNL     1     -10.870  13.910  68.341  1.00  0.00    -0.247 NA 
HETATM   30  C   UNL     1     -11.706  14.806  68.897  1.00  0.00    -0.309 A  
HETATM   31  C   UNL     1     -11.573  16.169  68.765  1.00  0.00    -0.297 A  
HETATM   32  C   UNL     1     -10.520  16.599  67.990  1.00  0.00    -0.320 A  
HETATM   33  N   UNL     1      -9.682  15.716  67.417  1.00  0.00    -0.222 NA 
BRANCH  32  34
HETATM   34  C   UNL     1     -10.201  18.013  67.717  1.00  0.00    -0.385 A  
HETATM   35  C   UNL     1      -9.671  18.873  68.679  1.00  0.00    -0.400 A  
HETATM   36  N   UNL     1      -9.380  20.184  68.482  1.00  0.00    -0.095 NA 
HETATM   37  C   UNL     1      -9.630  20.683  67.249  1.00  0.00    -0.417 A  
HETATM   38  C   UNL     1     -10.159  19.935  66.216  1.00  0.00    -0.613 A  
HETATM   39  C   UNL     1     -10.443  18.592  66.457  1.00  0.00    -0.465 A  
ENDBRANCH  32  34
ENDBRANCH  26  28
ENDBRANCH  21  26
ENDBRANCH  17  19
ENDBRANCH  12  15
ENDBRANCH   8   9
ENDBRANCH   5   8
TORSDOF 7
ENDMDL
MODEL       92
REMARK 921   NORMALIZED FREE ENERGY PREDICTED BY IDOCK:   -5.07 KCAL/MOL
REMARK 922        TOTAL FREE ENERGY PREDICTED BY IDOCK:   -8.30 KCAL/MOL
REMARK 923 INTER-LIGAND FREE ENERGY PREDICTED BY IDOCK:   -8.46 KCAL/MOL
REMARK 924 INTRA-LIGAND FREE ENERGY PREDICTED BY IDOCK:    0.16 KCAL/MOL
REMARK 927      BINDING AFFINITY PREDICTED BY RF-SCORE:    0.00 PKD
ROOT
HETATM    1  C   UNL     1      -8.276   1.497  71.433  1.00  0.00    -0.043 C  
HETATM    2  N   UNL     1      -7.465   2.291  70.508  1.00  0.00    -0.033 NA 
HETATM    3  C   UNL     1      -7.519   1.731  69.143  1.00  0.00    -0.043 C  
HETATM    4  C   UNL     1      -8.829   2.025  68.378  1.00  0.00    -0.107 C  
HETATM    5  N   UNL     1      -9.198   3.459  68.324  1.00  0.00    -0.163 NA 
HETATM    6  C   UNL     1      -7.901   3.703  70.496  1.00  0.00    -0.047 C  
HETATM    7  C   UNL     1      -9.199   3.988  69.700  1.00  0.00    -0.147 C  
ENDROOT
BRANCH   5   8
HETATM    8  C   UNL     1      -8.313   4.258  67.446  1.00  0.00    -0.099 C  
BRANCH   8   9
HETATM    9  C   UNL     1      -8.841   5.665  67.257  1.00  0.00    -0.106 A  
HETATM   10  C   UNL     1      -8.031   6.757  67.593  1.00  0.00    -0.113 A  
HETATM   11  C   UNL     1      -8.597   8.018  67.754  1.00  0.00    -0.128 A  
HETATM   12  C   UNL     1      -9.975   8.201  67.572  1.00  0.00    -0.251 A  
HETATM   13  C   UNL     1     -10.190   5.878  66.940  1.00  0.00    -0.262 A  
HETATM   14  C   UNL     1     -10.761   7.141  67.105  1.00  0.00    -0.422 A  
BRANCH  12  15
HETATM   15  C   UNL     1     -10.561   9.482  68.049  1.00  0.00    -0.230 C  
HETATM   16  O   UNL     1     -11.086   9.514  69.158  1.00  0.00    -0.171 OA 
HETATM   17  N   UNL     1     -10.447  10.573  67.201  1.00  0.00    -0.235 N  
HETATM   18  H   UNL     1      -9.972  10.462  66.305  1.00  0.00     0.000 HD 
BRANCH  17  19
HETATM   19  C   UNL     1     -10.974  11.832  67.553  1.00  0.00    -0.256 A  
HETATM   20  C   UNL     1     -10.848  12.862  66.630  1.00  0.00    -0.288 A  
HETATM   21  C   UNL     1     -11.112  14.200  66.978  1.00  0.00    -0.307 A  
HETATM   22  C   UNL     1     -11.544  12.084  68.793  1.00  0.00    -0.366 A  
HETATM   23  C   UNL     1     -11.681  14.457  68.242  1.00  0.00    -0.376 A  
HETATM   24  C   UNL     1     -12.027  15.832  68.748  1.00  0.00    -0.226 C  
HETATM   25  C   UNL     1     -11.931  13.384  69.120  1.00  0.00    -0.363 A  
BRANCH  21  26
HETATM   26  N   UNL     1     -10.692  15.231  66.118  1.00  0.00    -0.314 NA 
HETATM   27  H   UNL     1     -10.838  15.061  65.122  1.00  0.00     0.000 HD 
BRANCH  26  28
HETATM   28  C   UNL     1     -10.104  16.456  66.441  1.00  0.00    -0.316 A  
HETATM   29  N   UNL     1     -10.635  17.549  65.886  1.00  0.00    -0.419 NA 
HETATM   30  C   UNL     1     -10.091  18.729  66.233  1.00  0.00    -0.409 A  
HETATM   31  C   UNL     1      -9.051  18.865  67.124  1.00  0.00    -0.305 A  
HETATM   32  C   UNL     1      -8.554  17.695  67.652  1.00  0.00    -0.224 A  
HETATM   33  N   UNL     1      -9.079  16.507  67.305  1.00  0.00    -0.202 NA 
BRANCH  32  34
HETATM   34  C   UNL     1      -7.442  17.617  68.618  1.00  0.00    -0.273 A  
HETATM   35  C   UNL     1      -6.963  16.411  69.130  1.00  0.00    -0.218 A  
HETATM   36  N   UNL     1      -5.957  16.289  70.035  1.00  0.00    -0.189 NA 
HETATM   37  C   UNL     1      -5.385  17.437  70.465  1.00  0.00    -0.259 A  
HETATM   38  C   UNL     1      -5.775  18.690  70.039  1.00  0.00    -0.254 A  
HETATM   39  C   UNL     1      -6.810  18.774  69.109  1.00  0.00    -0.299 A  
ENDBRANCH  32  34
ENDBRANCH  26  28
ENDBRANCH  21  26
ENDBRANCH  17  19
ENDBRANCH  12  15
ENDBRANCH   8   9
ENDBRANCH   5   8
TORSDOF 7
ENDMDL
MODEL       93
REMARK 921   NORMALIZED FREE ENERGY PREDICTED BY IDOCK:   -5.07 KCAL/MOL
REMARK 922        TOTAL FREE ENERGY PREDICTED BY IDOCK:   -8.29 KCAL/MOL
REMARK 923 INTER-LIGAND FREE ENERGY PREDICTED BY IDOCK:   -6.74 KCAL/MOL
REMARK 924 INTRA-LIGAND FREE ENERGY PREDICTED BY IDOCK:   -1.56 KCAL/MOL
REMARK 927      BINDING AFFINITY PREDICTED BY RF-SCORE:    0.00 PKD
ROOT
HETATM    1  C   UNL     1     -10.537  15.663  65.302  1.00  0.00    -0.426 C  
HETATM    2  N   UNL     1     -11.604  15.165  66.171  1.00  0.00    -0.165 NA 
HETATM    3  C   UNL     1     -12.007  13.799  65.784  1.00  0.00    -0.399 C  
HETATM    4  C   UNL     1     -11.022  12.690  66.218  1.00  0.00    -0.283 C  
HETATM    5  N   UNL     1     -10.686  12.700  67.661  1.00  0.00    -0.215 NA 
HETATM    6  C   UNL     1     -11.191  15.190  67.590  1.00  0.00    -0.327 C  
HETATM    7  C   UNL     1     -10.227  14.055  68.018  1.00  0.00    -0.238 C  
ENDROOT
BRANCH   5   8
HETATM    8  C   UNL     1     -11.807  12.270  68.526  1.00  0.00    -0.307 C  
BRANCH   8   9
HETATM    9  C   UNL     1     -11.382  11.175  69.483  1.00  0.00    -0.359 A  
HETATM   10  C   UNL     1     -10.160  10.521  69.284  1.00  0.00    -0.244 A  
HETATM   11  C   UNL     1      -9.908   9.311  69.923  1.00  0.00    -0.219 A  
HETATM   12  C   UNL     1     -10.871   8.747  70.770  1.00  0.00    -0.282 A  
HETATM   13  C   UNL     1     -12.282  10.681  70.437  1.00  0.00    -0.432 A  
HETATM   14  C   UNL     1     -12.034   9.465  71.075  1.00  0.00    -0.389 A  
BRANCH  12  15
HETATM   15  C   UNL     1     -10.677   7.329  71.176  1.00  0.00    -0.228 C  
HETATM   16  O   UNL     1     -10.625   6.468  70.303  1.00  0.00    -0.206 OA 
HETATM   17  N   UNL     1     -10.540   7.083  72.533  1.00  0.00    -0.214 N  
HETATM   18  H   UNL     1     -10.572   7.864  73.189  1.00  0.00     0.000 HD 
BRANCH  17  19
HETATM   19  C   UNL     1     -10.358   5.774  73.024  1.00  0.00    -0.204 A  
HETATM   20  C   UNL     1      -9.054   5.332  73.208  1.00  0.00    -0.128 A  
HETATM   21  C   UNL     1      -8.762   3.977  73.452  1.00  0.00    -0.091 A  
HETATM   22  C   UNL     1     -11.418   4.910  73.263  1.00  0.00    -0.359 A  
HETATM   23  C   UNL     1      -9.840   3.097  73.682  1.00  0.00    -0.154 A  
HETATM   24  C   UNL     1      -9.683   1.628  73.965  1.00  0.00    -0.093 C  
HETATM   25  C   UNL     1     -11.160   3.589  73.628  1.00  0.00    -0.314 A  
BRANCH  21  26
HETATM   26  N   UNL     1      -7.435   3.527  73.336  1.00  0.00    -0.059 NA 
HETATM   27  H   UNL     1      -6.962   3.320  74.216  1.00  0.00     0.000 HD 
BRANCH  26  28
HETATM   28  C   UNL     1      -6.677   3.325  72.181  1.00  0.00    -0.019 A  
HETATM   29  N   UNL     1      -5.877   2.255  72.160  1.00  0.00    -0.008 NA 
HETATM   30  C   UNL     1      -5.180   2.042  71.029  1.00  0.00    -0.004 A  
HETATM   31  C   UNL     1      -5.261   2.843  69.912  1.00  0.00    -0.008 A  
HETATM   32  C   UNL     1      -6.103   3.928  70.010  1.00  0.00    -0.023 A  
HETATM   33  N   UNL     1      -6.796   4.161  71.138  1.00  0.00    -0.034 NA 
BRANCH  32  34
HETATM   34  C   UNL     1      -6.332   4.911  68.934  1.00  0.00    -0.032 A  
HETATM   35  C   UNL     1      -5.543   4.980  67.785  1.00  0.00    -0.013 A  
HETATM   36  N   UNL     1      -5.702   5.878  66.779  1.00  0.00    -0.016 NA 
HETATM   37  C   UNL     1      -6.709   6.772  66.917  1.00  0.00    -0.056 A  
HETATM   38  C   UNL     1      -7.552   6.809  68.009  1.00  0.00    -0.107 A  
HETATM   39  C   UNL     1      -7.358   5.870  69.020  1.00  0.00    -0.084 A  
ENDBRANCH  32  34
ENDBRANCH  26  28
ENDBRANCH  21  26
ENDBRANCH  17  19
ENDBRANCH  12  15
ENDBRANCH   8   9
ENDBRANCH   5   8
TORSDOF 7
ENDMDL
MODEL       94
REMARK 921   NORMALIZED FREE ENERGY PREDICTED BY IDOCK:   -5.06 KCAL/MOL
REMARK 922        TOTAL FREE ENERGY PREDICTED BY IDOCK:   -8.28 KCAL/MOL
REMARK 923 INTER-LIGAND FREE ENERGY PREDICTED BY IDOCK:   -7.44 KCAL/MOL
REMARK 924 INTRA-LIGAND FREE ENERGY PREDICTED BY IDOCK:   -0.84 KCAL/MOL
REMARK 927      BINDING AFFINITY PREDICTED BY RF-SCORE:    0.00 PKD
ROOT
HETATM    1  C   UNL     1      -6.787   3.463  62.361  1.00  0.00    -0.027 C  
HETATM    2  N   UNL     1      -7.027   3.054  63.746  1.00  0.00    -0.043 NA 
HETATM    3  C   UNL     1      -7.174   4.230  64.627  1.00  0.00    -0.070 C  
HETATM    4  C   UNL     1      -8.537   4.951  64.515  1.00  0.00    -0.146 C  
HETATM    5  N   UNL     1      -9.713   4.067  64.693  1.00  0.00    -0.176 NA 
HETATM    6  C   UNL     1      -8.222   2.191  63.848  1.00  0.00    -0.081 C  
HETATM    7  C   UNL     1      -9.581   2.930  63.765  1.00  0.00    -0.121 C  
ENDROOT
BRANCH   5   8
HETATM    8  C   UNL     1      -9.889   3.601  66.088  1.00  0.00     0.001 C  
BRANCH   8   9
HETATM    9  C   UNL     1      -9.898   4.760  67.063  1.00  0.00    -0.224 A  
HETATM   10  C   UNL     1     -10.776   5.831  66.854  1.00  0.00    -0.381 A  
HETATM   11  C   UNL     1     -10.572   7.036  67.519  1.00  0.00    -0.351 A  
HETATM   12  C   UNL     1      -9.494   7.180  68.403  1.00  0.00    -0.138 A  
HETATM   13  C   UNL     1      -8.908   4.861  68.051  1.00  0.00    -0.112 A  
HETATM   14  C   UNL     1      -8.698   6.070  68.715  1.00  0.00    -0.111 A  
BRANCH  12  15
HETATM   15  C   UNL     1      -9.151   8.559  68.842  1.00  0.00    -0.146 C  
HETATM   16  O   UNL     1      -9.993   9.210  69.454  1.00  0.00    -0.180 OA 
HETATM   17  N   UNL     1      -7.873   9.007  68.545  1.00  0.00    -0.101 N  
HETATM   18  H   UNL     1      -7.227   8.388  68.053  1.00  0.00     0.000 HD 
BRANCH  17  19
HETATM   19  C   UNL     1      -7.448  10.300  68.910  1.00  0.00    -0.094 A  
HETATM   20  C   UNL     1      -7.862  11.361  68.115  1.00  0.00    -0.130 A  
HETATM   21  C   UNL     1      -7.298  12.644  68.243  1.00  0.00    -0.116 A  
HETATM   22  C   UNL     1      -6.593  10.534  69.978  1.00  0.00    -0.144 A  
HETATM   23  C   UNL     1      -6.420  12.877  69.322  1.00  0.00    -0.104 A  
HETATM   24  C   UNL     1      -5.749  14.197  69.592  1.00  0.00    -0.101 C  
HETATM   25  C   UNL     1      -6.112  11.824  70.206  1.00  0.00    -0.116 A  
BRANCH  21  26
HETATM   26  N   UNL     1      -7.525  13.600  67.237  1.00  0.00    -0.352 NA 
HETATM   27  H   UNL     1      -6.706  13.871  66.693  1.00  0.00     0.000 HD 
BRANCH  26  28
HETATM   28  C   UNL     1      -8.721  14.229  66.882  1.00  0.00    -0.179 A  
HETATM   29  N   UNL     1      -9.666  13.465  66.325  1.00  0.00    -0.284 NA 
HETATM   30  C   UNL     1     -10.830  14.066  66.022  1.00  0.00    -0.295 A  
HETATM   31  C   UNL     1     -11.097  15.394  66.268  1.00  0.00    -0.226 A  
HETATM   32  C   UNL     1     -10.075  16.118  66.839  1.00  0.00    -0.272 A  
HETATM   33  N   UNL     1      -8.901  15.534  67.136  1.00  0.00    -0.199 NA 
BRANCH  32  34
HETATM   34  C   UNL     1     -10.151  17.551  67.180  1.00  0.00    -0.321 A  
HETATM   35  C   UNL     1     -10.530  18.532  66.263  1.00  0.00    -0.406 A  
HETATM   36  N   UNL     1     -10.595  19.864  66.524  1.00  0.00    -0.460 NA 
HETATM   37  C   UNL     1     -10.262  20.255  67.776  1.00  0.00    -0.324 A  
HETATM   38  C   UNL     1      -9.865  19.381  68.767  1.00  0.00    -0.530 A  
HETATM   39  C   UNL     1      -9.812  18.022  68.462  1.00  0.00    -0.383 A  
ENDBRANCH  32  34
ENDBRANCH  26  28
ENDBRANCH  21  26
ENDBRANCH  17  19
ENDBRANCH  12  15
ENDBRANCH   8   9
ENDBRANCH   5   8
TORSDOF 7
ENDMDL
MODEL       95
REMARK 921   NORMALIZED FREE ENERGY PREDICTED BY IDOCK:   -5.03 KCAL/MOL
REMARK 922        TOTAL FREE ENERGY PREDICTED BY IDOCK:   -8.24 KCAL/MOL
REMARK 923 INTER-LIGAND FREE ENERGY PREDICTED BY IDOCK:   -7.35 KCAL/MOL
REMARK 924 INTRA-LIGAND FREE ENERGY PREDICTED BY IDOCK:   -0.89 KCAL/MOL
REMARK 927      BINDING AFFINITY PREDICTED BY RF-SCORE:    0.00 PKD
ROOT
HETATM    1  C   UNL     1      -8.901   2.368  65.499  1.00  0.00    -0.127 C  
HETATM    2  N   UNL     1      -9.241   3.647  64.875  1.00  0.00    -0.139 NA 
HETATM    3  C   UNL     1     -10.095   4.459  65.763  1.00  0.00    -0.245 C  
HETATM    4  C   UNL     1      -9.347   5.134  66.935  1.00  0.00    -0.128 C  
HETATM    5  N   UNL     1      -8.174   5.942  66.528  1.00  0.00    -0.109 NA 
HETATM    6  C   UNL     1      -8.023   4.403  64.511  1.00  0.00    -0.091 C  
HETATM    7  C   UNL     1      -7.300   5.099  65.691  1.00  0.00    -0.073 C  
ENDROOT
BRANCH   5   8
HETATM    8  C   UNL     1      -8.540   7.193  65.826  1.00  0.00    -0.133 C  
BRANCH   8   9
HETATM    9  C   UNL     1      -8.236   8.414  66.671  1.00  0.00    -0.105 A  
HETATM   10  C   UNL     1      -9.022   9.564  66.529  1.00  0.00    -0.173 A  
HETATM   11  C   UNL     1      -8.566  10.781  67.025  1.00  0.00    -0.130 A  
HETATM   12  C   UNL     1      -7.325  10.859  67.672  1.00  0.00    -0.094 A  
HETATM   13  C   UNL     1      -7.064   8.467  67.439  1.00  0.00    -0.080 A  
HETATM   14  C   UNL     1      -6.602   9.688  67.933  1.00  0.00    -0.062 A  
BRANCH  12  15
HETATM   15  C   UNL     1      -6.760  12.215  67.904  1.00  0.00    -0.085 C  
HETATM   16  O   UNL     1      -5.880  12.624  67.152  1.00  0.00    -0.300 OA 
HETATM   17  N   UNL     1      -7.298  12.943  68.954  1.00  0.00    -0.257 N  
HETATM   18  H   UNL     1      -8.046  12.534  69.515  1.00  0.00     0.000 HD 
BRANCH  17  19
HETATM   19  C   UNL     1      -6.830  14.236  69.264  1.00  0.00    -0.124 A  
HETATM   20  C   UNL     1      -7.605  15.314  68.857  1.00  0.00    -0.152 A  
HETATM   21  C   UNL     1      -7.113  16.632  68.894  1.00  0.00    -0.205 A  
HETATM   22  C   UNL     1      -5.613  14.461  69.892  1.00  0.00    -0.103 A  
HETATM   23  C   UNL     1      -5.870  16.859  69.522  1.00  0.00    -0.200 A  
HETATM   24  C   UNL     1      -5.223  18.211  69.646  1.00  0.00    -0.194 C  
HETATM   25  C   UNL     1      -5.154  15.769  70.054  1.00  0.00    -0.123 A  
BRANCH  21  26
HETATM   26  N   UNL     1      -7.804  17.645  68.206  1.00  0.00    -0.246 NA 
HETATM   27  H   UNL     1      -7.449  18.592  68.341  1.00  0.00     0.000 HD 
BRANCH  26  28
HETATM   28  C   UNL     1      -8.912  17.531  67.362  1.00  0.00    -0.230 A  
HETATM   29  N   UNL     1      -9.381  18.660  66.822  1.00  0.00    -0.298 NA 
HETATM   30  C   UNL     1     -10.421  18.540  65.978  1.00  0.00    -0.400 A  
HETATM   31  C   UNL     1     -11.002  17.339  65.637  1.00  0.00     0.108 A  
HETATM   32  C   UNL     1     -10.468  16.221  66.237  1.00  0.00    -0.308 A  
HETATM   33  N   UNL     1      -9.436  16.326  67.092  1.00  0.00    -0.221 NA 
BRANCH  32  34
HETATM   34  C   UNL     1     -10.943  14.842  66.014  1.00  0.00    -0.328 A  
HETATM   35  C   UNL     1     -11.632  14.110  66.981  1.00  0.00    -0.382 A  
HETATM   36  N   UNL     1     -12.071  12.833  66.831  1.00  0.00    -0.468 NA 
HETATM   37  C   UNL     1     -11.811  12.237  65.644  1.00  0.00    -0.360 A  
HETATM   38  C   UNL     1     -11.132  12.855  64.613  1.00  0.00    -0.352 A  
HETATM   39  C   UNL     1     -10.698  14.165  64.805  1.00  0.00    -0.436 A  
ENDBRANCH  32  34
ENDBRANCH  26  28
ENDBRANCH  21  26
ENDBRANCH  17  19
ENDBRANCH  12  15
ENDBRANCH   8   9
ENDBRANCH   5   8
TORSDOF 7
ENDMDL
MODEL       96
REMARK 921   NORMALIZED FREE ENERGY PREDICTED BY IDOCK:   -5.02 KCAL/MOL
REMARK 922        TOTAL FREE ENERGY PREDICTED BY IDOCK:   -8.23 KCAL/MOL
REMARK 923 INTER-LIGAND FREE ENERGY PREDICTED BY IDOCK:   -8.59 KCAL/MOL
REMARK 924 INTRA-LIGAND FREE ENERGY PREDICTED BY IDOCK:    0.36 KCAL/MOL
REMARK 927      BINDING AFFINITY PREDICTED BY RF-SCORE:    0.00 PKD
ROOT
HETATM    1  C   UNL     1      -8.748   1.474  66.251  1.00  0.00    -0.115 C  
HETATM    2  N   UNL     1      -8.077   2.740  65.951  1.00  0.00    -0.082 NA 
HETATM    3  C   UNL     1      -8.722   3.862  66.661  1.00  0.00    -0.115 C  
HETATM    4  C   UNL     1      -8.388   3.946  68.169  1.00  0.00    -0.091 C  
HETATM    5  N   UNL     1      -6.938   3.953  68.475  1.00  0.00    -0.047 NA 
HETATM    6  C   UNL     1      -6.641   2.678  66.297  1.00  0.00    -0.032 C  
HETATM    7  C   UNL     1      -6.320   2.793  67.808  1.00  0.00    -0.032 C  
ENDROOT
BRANCH   5   8
HETATM    8  C   UNL     1      -6.265   5.214  68.088  1.00  0.00    -0.034 C  
BRANCH   8   9
HETATM    9  C   UNL     1      -7.261   6.253  67.615  1.00  0.00    -0.083 A  
HETATM   10  C   UNL     1      -7.369   6.532  66.247  1.00  0.00    -0.073 A  
HETATM   11  C   UNL     1      -8.008   7.693  65.824  1.00  0.00    -0.116 A  
HETATM   12  C   UNL     1      -8.551   8.581  66.763  1.00  0.00    -0.119 A  
HETATM   13  C   UNL     1      -7.926   7.068  68.541  1.00  0.00    -0.123 A  
HETATM   14  C   UNL     1      -8.563   8.237  68.120  1.00  0.00    -0.132 A  
BRANCH  12  15
HETATM   15  C   UNL     1      -8.943   9.931  66.277  1.00  0.00    -0.145 C  
HETATM   16  O   UNL     1      -8.144  10.856  66.396  1.00  0.00    -0.153 OA 
HETATM   17  N   UNL     1     -10.195  10.043  65.692  1.00  0.00    -0.240 N  
HETATM   18  H   UNL     1     -10.786   9.216  65.613  1.00  0.00     0.000 HD 
BRANCH  17  19
HETATM   19  C   UNL     1     -10.667  11.279  65.205  1.00  0.00    -0.246 A  
HETATM   20  C   UNL     1     -11.006  12.251  66.139  1.00  0.00    -0.328 A  
HETATM   21  C   UNL     1     -11.713  13.411  65.772  1.00  0.00    -0.349 A  
HETATM   22  C   UNL     1     -10.861  11.526  63.853  1.00  0.00    -0.469 A  
HETATM   23  C   UNL     1     -11.920  13.655  64.398  1.00  0.00    -0.476 A  
HETATM   24  C   UNL     1     -12.648  14.856  63.856  1.00  0.00     0.352 C  
HETATM   25  C   UNL     1     -11.449  12.726  63.450  1.00  0.00    -0.454 A  
BRANCH  21  26
HETATM   26  N   UNL     1     -12.290  14.211  66.774  1.00  0.00    -0.554 NA 
HETATM   27  H   UNL     1     -13.310  14.216  66.802  1.00  0.00     0.000 HD 
BRANCH  26  28
HETATM   28  C   UNL     1     -11.656  15.000  67.737  1.00  0.00    -0.319 A  
HETATM   29  N   UNL     1     -10.730  15.860  67.302  1.00  0.00    -0.315 NA 
HETATM   30  C   UNL     1     -10.151  16.646  68.228  1.00  0.00    -0.268 A  
HETATM   31  C   UNL     1     -10.471  16.621  69.567  1.00  0.00    -0.281 A  
HETATM   32  C   UNL     1     -11.431  15.708  69.940  1.00  0.00    -0.338 A  
HETATM   33  N   UNL     1     -12.009  14.906  69.028  1.00  0.00    -0.296 NA 
BRANCH  32  34
HETATM   34  C   UNL     1     -11.915  15.516  71.320  1.00  0.00    -0.443 A  
HETATM   35  C   UNL     1     -11.883  16.524  72.285  1.00  0.00    -0.315 A  
HETATM   36  N   UNL     1     -12.298  16.390  73.571  1.00  0.00    -0.505 NA 
HETATM   37  C   UNL     1     -12.778  15.177  73.931  1.00  0.00    -0.465 A  
HETATM   38  C   UNL     1     -12.854  14.100  73.070  1.00  0.00    -0.385 A  
HETATM   39  C   UNL     1     -12.420  14.277  71.758  1.00  0.00    -0.396 A  
ENDBRANCH  32  34
ENDBRANCH  26  28
ENDBRANCH  21  26
ENDBRANCH  17  19
ENDBRANCH  12  15
ENDBRANCH   8   9
ENDBRANCH   5   8
TORSDOF 7
ENDMDL
MODEL       97
REMARK 921   NORMALIZED FREE ENERGY PREDICTED BY IDOCK:   -4.98 KCAL/MOL
REMARK 922        TOTAL FREE ENERGY PREDICTED BY IDOCK:   -8.17 KCAL/MOL
REMARK 923 INTER-LIGAND FREE ENERGY PREDICTED BY IDOCK:   -7.09 KCAL/MOL
REMARK 924 INTRA-LIGAND FREE ENERGY PREDICTED BY IDOCK:   -1.08 KCAL/MOL
REMARK 927      BINDING AFFINITY PREDICTED BY RF-SCORE:    0.00 PKD
ROOT
HETATM    1  C   UNL     1     -11.253   2.046  62.696  1.00  0.00    -0.234 C  
HETATM    2  N   UNL     1      -9.882   2.542  62.831  1.00  0.00    -0.093 NA 
HETATM    3  C   UNL     1      -9.869   3.942  63.297  1.00  0.00    -0.155 C  
HETATM    4  C   UNL     1     -10.171   4.122  64.802  1.00  0.00    -0.195 C  
HETATM    5  N   UNL     1      -9.316   3.310  65.699  1.00  0.00    -0.149 NA 
HETATM    6  C   UNL     1      -9.096   1.693  63.751  1.00  0.00    -0.094 C  
HETATM    7  C   UNL     1      -9.387   1.905  65.257  1.00  0.00    -0.004 C  
ENDROOT
BRANCH   5   8
HETATM    8  C   UNL     1      -7.914   3.782  65.756  1.00  0.00    -0.093 C  
BRANCH   8   9
HETATM    9  C   UNL     1      -7.825   5.192  66.302  1.00  0.00    -0.103 A  
HETATM   10  C   UNL     1      -8.310   5.467  67.586  1.00  0.00    -0.099 A  
HETATM   11  C   UNL     1      -8.551   6.783  67.970  1.00  0.00    -0.122 A  
HETATM   12  C   UNL     1      -8.304   7.835  67.077  1.00  0.00    -0.117 A  
HETATM   13  C   UNL     1      -7.446   6.251  65.465  1.00  0.00    -0.083 A  
HETATM   14  C   UNL     1      -7.693   7.572  65.845  1.00  0.00    -0.099 A  
BRANCH  12  15
HETATM   15  C   UNL     1      -8.860   9.169  67.425  1.00  0.00    -0.118 C  
HETATM   16  O   UNL     1      -8.534   9.685  68.490  1.00  0.00    -0.116 OA 
HETATM   17  N   UNL     1      -9.700   9.756  66.492  1.00  0.00    -0.195 N  
HETATM   18  H   UNL     1      -9.900   9.266  65.619  1.00  0.00     0.000 HD 
BRANCH  17  19
HETATM   19  C   UNL     1     -10.286  11.017  66.725  1.00  0.00    -0.238 A  
HETATM   20  C   UNL     1      -9.700  12.121  66.118  1.00  0.00    -0.254 A  
HETATM   21  C   UNL     1     -10.050  13.434  66.481  1.00  0.00    -0.280 A  
HETATM   22  C   UNL     1     -11.367  11.194  67.578  1.00  0.00    -0.351 A  
HETATM   23  C   UNL     1     -11.141  13.613  67.356  1.00  0.00    -0.299 A  
HETATM   24  C   UNL     1     -11.636  14.955  67.824  1.00  0.00    -0.358 C  
HETATM   25  C   UNL     1     -11.817  12.484  67.860  1.00  0.00    -0.383 A  
BRANCH  21  26
HETATM   26  N   UNL     1      -9.235  14.503  66.065  1.00  0.00    -0.514 NA 
HETATM   27  H   UNL     1      -9.424  14.864  65.130  1.00  0.00     0.000 HD 
BRANCH  26  28
HETATM   28  C   UNL     1      -8.203  15.138  66.760  1.00  0.00    -0.137 A  
HETATM   29  N   UNL     1      -7.299  14.353  67.354  1.00  0.00    -0.182 NA 
HETATM   30  C   UNL     1      -6.285  14.969  67.986  1.00  0.00    -0.150 A  
HETATM   31  C   UNL     1      -6.124  16.336  68.036  1.00  0.00    -0.133 A  
HETATM   32  C   UNL     1      -7.096  17.079  67.405  1.00  0.00    -0.157 A  
HETATM   33  N   UNL     1      -8.124  16.477  66.779  1.00  0.00    -0.221 NA 
BRANCH  32  34
HETATM   34  C   UNL     1      -7.117  18.552  67.342  1.00  0.00    -0.208 A  
HETATM   35  C   UNL     1      -5.959  19.328  67.297  1.00  0.00    -0.178 A  
HETATM   36  N   UNL     1      -5.927  20.685  67.258  1.00  0.00    -0.197 NA 
HETATM   37  C   UNL     1      -7.122  21.321  67.267  1.00  0.00    -0.161 A  
HETATM   38  C   UNL     1      -8.335  20.665  67.317  1.00  0.00    -0.305 A  
HETATM   39  C   UNL     1      -8.327  19.272  67.354  1.00  0.00    -0.317 A  
ENDBRANCH  32  34
ENDBRANCH  26  28
ENDBRANCH  21  26
ENDBRANCH  17  19
ENDBRANCH  12  15
ENDBRANCH   8   9
ENDBRANCH   5   8
TORSDOF 7
ENDMDL
MODEL       98
REMARK 921   NORMALIZED FREE ENERGY PREDICTED BY IDOCK:   -4.96 KCAL/MOL
REMARK 922        TOTAL FREE ENERGY PREDICTED BY IDOCK:   -8.14 KCAL/MOL
REMARK 923 INTER-LIGAND FREE ENERGY PREDICTED BY IDOCK:   -7.14 KCAL/MOL
REMARK 924 INTRA-LIGAND FREE ENERGY PREDICTED BY IDOCK:   -1.00 KCAL/MOL
REMARK 927      BINDING AFFINITY PREDICTED BY RF-SCORE:    0.00 PKD
ROOT
HETATM    1  C   UNL     1      -9.383   1.929  69.058  1.00  0.00    -0.131 C  
HETATM    2  N   UNL     1      -8.107   2.633  69.186  1.00  0.00    -0.051 NA 
HETATM    3  C   UNL     1      -7.673   3.181  67.885  1.00  0.00    -0.063 C  
HETATM    4  C   UNL     1      -8.427   4.455  67.439  1.00  0.00    -0.103 C  
HETATM    5  N   UNL     1      -8.432   5.545  68.442  1.00  0.00    -0.101 NA 
HETATM    6  C   UNL     1      -8.192   3.715  70.189  1.00  0.00    -0.052 C  
HETATM    7  C   UNL     1      -8.924   4.997  69.719  1.00  0.00    -0.106 C  
ENDROOT
BRANCH   5   8
HETATM    8  C   UNL     1      -7.110   6.189  68.612  1.00  0.00    -0.082 C  
BRANCH   8   9
HETATM    9  C   UNL     1      -7.236   7.555  69.255  1.00  0.00    -0.086 A  
HETATM   10  C   UNL     1      -7.964   8.559  68.605  1.00  0.00    -0.116 A  
HETATM   11  C   UNL     1      -7.812   9.887  68.991  1.00  0.00    -0.095 A  
HETATM   12  C   UNL     1      -6.938  10.223  70.034  1.00  0.00    -0.152 A  
HETATM   13  C   UNL     1      -6.472   7.878  70.386  1.00  0.00    -0.037 A  
HETATM   14  C   UNL     1      -6.314   9.210  70.772  1.00  0.00    -0.064 A  
BRANCH  12  15
HETATM   15  C   UNL     1      -6.590  11.660  70.196  1.00  0.00     0.156 C  
HETATM   16  O   UNL     1      -5.877  11.992  71.138  1.00  0.00    -0.374 OA 
HETATM   17  N   UNL     1      -7.083  12.533  69.238  1.00  0.00    -0.307 N  
HETATM   18  H   UNL     1      -7.649  12.167  68.472  1.00  0.00     0.000 HD 
BRANCH  17  19
HETATM   19  C   UNL     1      -6.817  13.915  69.301  1.00  0.00    -0.094 A  
HETATM   20  C   UNL     1      -7.905  14.780  69.291  1.00  0.00    -0.122 A  
HETATM   21  C   UNL     1      -7.745  16.165  69.101  1.00  0.00    -0.230 A  
HETATM   22  C   UNL     1      -5.528  14.431  69.307  1.00  0.00    -0.085 A  
HETATM   23  C   UNL     1      -6.434  16.686  69.096  1.00  0.00    -0.200 A  
HETATM   24  C   UNL     1      -6.108  18.144  68.913  1.00  0.00    -0.209 C  
HETATM   25  C   UNL     1      -5.340  15.812  69.244  1.00  0.00    -0.106 A  
BRANCH  21  26
HETATM   26  N   UNL     1      -8.870  16.954  68.803  1.00  0.00    -0.266 NA 
HETATM   27  H   UNL     1      -9.208  17.545  69.563  1.00  0.00     0.000 HD 
BRANCH  26  28
HETATM   28  C   UNL     1      -9.588  17.038  67.608  1.00  0.00    -0.249 A  
HETATM   29  N   UNL     1      -9.798  18.261  67.112  1.00  0.00    -0.311 NA 
HETATM   30  C   UNL     1     -10.455  18.334  65.940  1.00  0.00    -0.307 A  
HETATM   31  C   UNL     1     -10.894  17.237  65.233  1.00  0.00    -0.001 A  
HETATM   32  C   UNL     1     -10.645  16.011  65.808  1.00  0.00    -0.353 A  
HETATM   33  N   UNL     1     -10.001  15.923  66.986  1.00  0.00    -0.242 NA 
BRANCH  32  34
HETATM   34  C   UNL     1     -11.033  14.715  65.222  1.00  0.00    -0.374 A  
HETATM   35  C   UNL     1     -12.262  14.500  64.598  1.00  0.00    -0.460 A  
HETATM   36  N   UNL     1     -12.672  13.322  64.062  1.00  0.00    -0.667 NA 
HETATM   37  C   UNL     1     -11.811  12.282  64.150  1.00  0.00    -0.419 A  
HETATM   38  C   UNL     1     -10.571  12.367  64.749  1.00  0.00    -0.331 A  
HETATM   39  C   UNL     1     -10.184  13.594  65.286  1.00  0.00    -0.341 A  
ENDBRANCH  32  34
ENDBRANCH  26  28
ENDBRANCH  21  26
ENDBRANCH  17  19
ENDBRANCH  12  15
ENDBRANCH   8   9
ENDBRANCH   5   8
TORSDOF 7
ENDMDL
MODEL       99
REMARK 921   NORMALIZED FREE ENERGY PREDICTED BY IDOCK:   -4.94 KCAL/MOL
REMARK 922        TOTAL FREE ENERGY PREDICTED BY IDOCK:   -8.12 KCAL/MOL
REMARK 923 INTER-LIGAND FREE ENERGY PREDICTED BY IDOCK:   -7.21 KCAL/MOL
REMARK 924 INTRA-LIGAND FREE ENERGY PREDICTED BY IDOCK:   -0.91 KCAL/MOL
REMARK 927      BINDING AFFINITY PREDICTED BY RF-SCORE:    0.00 PKD
ROOT
HETATM    1  C   UNL     1      -8.149  18.807  66.414  1.00  0.00    -0.280 C  
HETATM    2  N   UNL     1      -9.561  18.426  66.363  1.00  0.00    -0.366 NA 
HETATM    3  C   UNL     1      -9.712  16.994  66.041  1.00  0.00    -0.218 C  
HETATM    4  C   UNL     1      -9.410  16.035  67.215  1.00  0.00    -0.210 C  
HETATM    5  N   UNL     1     -10.164  16.330  68.456  1.00  0.00    -0.236 NA 
HETATM    6  C   UNL     1     -10.243  18.735  67.638  1.00  0.00    -0.399 C  
HETATM    7  C   UNL     1      -9.955  17.749  68.797  1.00  0.00    -0.367 C  
ENDROOT
BRANCH   5   8
HETATM    8  C   UNL     1     -11.606  16.012  68.353  1.00  0.00    -0.279 C  
BRANCH   8   9
HETATM    9  C   UNL     1     -11.855  14.521  68.452  1.00  0.00    -0.351 A  
HETATM   10  C   UNL     1     -12.005  13.929  69.712  1.00  0.00    -0.398 A  
HETATM   11  C   UNL     1     -11.892  12.549  69.848  1.00  0.00    -0.373 A  
HETATM   12  C   UNL     1     -11.636  11.748  68.726  1.00  0.00    -0.367 A  
HETATM   13  C   UNL     1     -11.740  13.709  67.316  1.00  0.00    -0.416 A  
HETATM   14  C   UNL     1     -11.621  12.324  67.450  1.00  0.00    -0.425 A  
BRANCH  12  15
HETATM   15  C   UNL     1     -11.227  10.340  68.972  1.00  0.00    -0.208 C  
HETATM   16  O   UNL     1     -11.137   9.946  70.131  1.00  0.00    -0.256 OA 
HETATM   17  N   UNL     1     -10.998   9.553  67.854  1.00  0.00    -0.503 N  
HETATM   18  H   UNL     1     -11.120   9.956  66.925  1.00  0.00     0.000 HD 
BRANCH  17  19
HETATM   19  C   UNL     1     -10.600   8.206  67.976  1.00  0.00    -0.126 A  
HETATM   20  C   UNL     1      -9.338   7.954  68.499  1.00  0.00    -0.141 A  
HETATM   21  C   UNL     1      -8.753   6.676  68.431  1.00  0.00    -0.122 A  
HETATM   22  C   UNL     1     -11.387   7.150  67.537  1.00  0.00     0.168 A  
HETATM   23  C   UNL     1      -9.550   5.605  67.974  1.00  0.00    -0.137 A  
HETATM   24  C   UNL     1      -9.066   4.185  67.857  1.00  0.00    -0.168 C  
HETATM   25  C   UNL     1     -10.877   5.852  67.573  1.00  0.00    -0.335 A  
BRANCH  21  26
HETATM   26  N   UNL     1      -7.380   6.532  68.697  1.00  0.00    -0.085 NA 
HETATM   27  H   UNL     1      -6.772   6.507  67.878  1.00  0.00     0.000 HD 
BRANCH  26  28
HETATM   28  C   UNL     1      -6.735   6.420  69.931  1.00  0.00    -0.053 A  
HETATM   29  N   UNL     1      -5.751   7.289  70.183  1.00  0.00    -0.023 NA 
HETATM   30  C   UNL     1      -5.161   7.202  71.388  1.00  0.00    -0.027 A  
HETATM   31  C   UNL     1      -5.522   6.296  72.360  1.00  0.00    -0.032 A  
HETATM   32  C   UNL     1      -6.540   5.431  72.027  1.00  0.00    -0.056 A  
HETATM   33  N   UNL     1      -7.132   5.497  70.821  1.00  0.00    -0.066 NA 
BRANCH  32  34
HETATM   34  C   UNL     1      -7.076   4.385  72.917  1.00  0.00    -0.068 A  
HETATM   35  C   UNL     1      -6.286   3.374  73.465  1.00  0.00    -0.024 A  
HETATM   36  N   UNL     1      -6.736   2.379  74.272  1.00  0.00    -0.025 NA 
HETATM   37  C   UNL     1      -8.059   2.380  74.557  1.00  0.00    -0.058 A  
HETATM   38  C   UNL     1      -8.944   3.322  74.071  1.00  0.00    -0.087 A  
HETATM   39  C   UNL     1      -8.443   4.328  73.247  1.00  0.00    -0.090 A  
ENDBRANCH  32  34
ENDBRANCH  26  28
ENDBRANCH  21  26
ENDBRANCH  17  19
ENDBRANCH  12  15
ENDBRANCH   8   9
ENDBRANCH   5   8
TORSDOF 7
ENDMDL
MODEL      100
REMARK 921   NORMALIZED FREE ENERGY PREDICTED BY IDOCK:   -4.93 KCAL/MOL
REMARK 922        TOTAL FREE ENERGY PREDICTED BY IDOCK:   -8.10 KCAL/MOL
REMARK 923 INTER-LIGAND FREE ENERGY PREDICTED BY IDOCK:   -8.79 KCAL/MOL
REMARK 924 INTRA-LIGAND FREE ENERGY PREDICTED BY IDOCK:    0.69 KCAL/MOL
REMARK 927      BINDING AFFINITY PREDICTED BY RF-SCORE:    0.00 PKD
ROOT
HETATM    1  C   UNL     1      -9.175   1.471  65.295  1.00  0.00    -0.063 C  
HETATM    2  N   UNL     1      -8.473   2.755  65.310  1.00  0.00    -0.095 NA 
HETATM    3  C   UNL     1      -9.126   3.705  66.231  1.00  0.00    -0.154 C  
HETATM    4  C   UNL     1      -8.850   3.442  67.730  1.00  0.00    -0.128 C  
HETATM    5  N   UNL     1      -7.413   3.346  68.079  1.00  0.00    -0.054 NA 
HETATM    6  C   UNL     1      -7.053   2.583  65.681  1.00  0.00    -0.057 C  
HETATM    7  C   UNL     1      -6.788   2.350  67.190  1.00  0.00    -0.040 C  
ENDROOT
BRANCH   5   8
HETATM    8  C   UNL     1      -6.705   4.644  68.008  1.00  0.00    -0.054 C  
BRANCH   8   9
HETATM    9  C   UNL     1      -7.631   5.758  67.563  1.00  0.00    -0.093 A  
HETATM   10  C   UNL     1      -7.679   6.115  66.209  1.00  0.00    -0.099 A  
HETATM   11  C   UNL     1      -8.245   7.329  65.832  1.00  0.00    -0.132 A  
HETATM   12  C   UNL     1      -8.773   8.193  66.801  1.00  0.00    -0.145 A  
HETATM   13  C   UNL     1      -8.284   6.556  68.512  1.00  0.00    -0.121 A  
HETATM   14  C   UNL     1      -8.848   7.777  68.137  1.00  0.00    -0.125 A  
BRANCH  12  15
HETATM   15  C   UNL     1      -9.080   9.585  66.379  1.00  0.00    -0.159 C  
HETATM   16  O   UNL     1      -8.189  10.428  66.433  1.00  0.00    -0.132 OA 
HETATM   17  N   UNL     1     -10.367   9.829  65.924  1.00  0.00    -0.162 N  
HETATM   18  H   UNL     1     -11.039   9.063  65.890  1.00  0.00     0.000 HD 
BRANCH  17  19
HETATM   19  C   UNL     1     -10.764  11.115  65.506  1.00  0.00    -0.185 A  
HETATM   20  C   UNL     1     -11.097  12.037  66.492  1.00  0.00    -0.362 A  
HETATM   21  C   UNL     1     -11.737  13.250  66.180  1.00  0.00    -0.374 A  
HETATM   22  C   UNL     1     -10.893  11.462  64.168  1.00  0.00    -0.431 A  
HETATM   23  C   UNL     1     -11.878  13.596  64.820  1.00  0.00    -0.414 A  
HETATM   24  C   UNL     1     -12.530  14.863  64.336  1.00  0.00    -0.227 C  
HETATM   25  C   UNL     1     -11.411  12.712  63.828  1.00  0.00    -0.539 A  
BRANCH  21  26
HETATM   26  N   UNL     1     -12.317  14.008  67.214  1.00  0.00    -0.540 NA 
HETATM   27  H   UNL     1     -13.316  13.864  67.358  1.00  0.00     0.000 HD 
BRANCH  26  28
HETATM   28  C   UNL     1     -11.710  14.930  68.070  1.00  0.00    -0.320 A  
HETATM   29  N   UNL     1     -11.724  14.645  69.375  1.00  0.00    -0.298 NA 
HETATM   30  C   UNL     1     -11.102  15.516  70.191  1.00  0.00    -0.323 A  
HETATM   31  C   UNL     1     -10.453  16.649  69.757  1.00  0.00    -0.182 A  
HETATM   32  C   UNL     1     -10.484  16.878  68.399  1.00  0.00    -0.355 A  
HETATM   33  N   UNL     1     -11.112  16.023  67.572  1.00  0.00    -0.261 NA 
BRANCH  32  34
HETATM   34  C   UNL     1      -9.856  18.032  67.728  1.00  0.00    -0.306 A  
HETATM   35  C   UNL     1      -8.507  18.354  67.873  1.00  0.00    -0.261 A  
HETATM   36  N   UNL     1      -7.889  19.415  67.292  1.00  0.00    -0.253 NA 
HETATM   37  C   UNL     1      -8.656  20.215  66.516  1.00  0.00    -0.260 A  
HETATM   38  C   UNL     1     -10.004  20.005  66.302  1.00  0.00    -0.597 A  
HETATM   39  C   UNL     1     -10.602  18.904  66.913  1.00  0.00    -0.495 A  
ENDBRANCH  32  34
ENDBRANCH  26  28
ENDBRANCH  21  26
ENDBRANCH  17  19
ENDBRANCH  12  15
ENDBRANCH   8   9
ENDBRANCH   5   8
TORSDOF 7
ENDMDL
MODEL      101
REMARK 921   NORMALIZED FREE ENERGY PREDICTED BY IDOCK:   -4.90 KCAL/MOL
REMARK 922        TOTAL FREE ENERGY PREDICTED BY IDOCK:   -8.06 KCAL/MOL
REMARK 923 INTER-LIGAND FREE ENERGY PREDICTED BY IDOCK:   -6.97 KCAL/MOL
REMARK 924 INTRA-LIGAND FREE ENERGY PREDICTED BY IDOCK:   -1.09 KCAL/MOL
REMARK 927      BINDING AFFINITY PREDICTED BY RF-SCORE:    0.00 PKD
ROOT
HETATM    1  C   UNL     1     -11.365   1.516  73.031  1.00  0.00    -0.121 C  
HETATM    2  N   UNL     1     -10.181   2.259  73.467  1.00  0.00    -0.101 NA 
HETATM    3  C   UNL     1      -9.223   2.425  72.357  1.00  0.00    -0.082 C  
HETATM    4  C   UNL     1      -9.619   3.501  71.320  1.00  0.00    -0.172 C  
HETATM    5  N   UNL     1      -9.915   4.832  71.902  1.00  0.00    -0.183 NA 
HETATM    6  C   UNL     1     -10.553   3.578  74.019  1.00  0.00    -0.205 C  
HETATM    7  C   UNL     1     -10.918   4.656  72.968  1.00  0.00    -0.251 C  
ENDROOT
BRANCH   5   8
HETATM    8  C   UNL     1      -8.712   5.529  72.410  1.00  0.00    -0.128 C  
BRANCH   8   9
HETATM    9  C   UNL     1      -8.388   6.754  71.579  1.00  0.00    -0.115 A  
HETATM   10  C   UNL     1      -7.155   6.834  70.921  1.00  0.00    -0.068 A  
HETATM   11  C   UNL     1      -6.700   8.060  70.447  1.00  0.00    -0.037 A  
HETATM   12  C   UNL     1      -7.475   9.215  70.620  1.00  0.00    -0.129 A  
HETATM   13  C   UNL     1      -9.221   7.881  71.626  1.00  0.00    -0.180 A  
HETATM   14  C   UNL     1      -8.765   9.113  71.156  1.00  0.00    -0.210 A  
BRANCH  12  15
HETATM   15  C   UNL     1      -6.813  10.524  70.373  1.00  0.00    -0.002 C  
HETATM   16  O   UNL     1      -5.922  10.888  71.135  1.00  0.00    -0.351 OA 
HETATM   17  N   UNL     1      -7.241  11.239  69.264  1.00  0.00    -0.211 N  
HETATM   18  H   UNL     1      -7.973  10.849  68.669  1.00  0.00     0.000 HD 
BRANCH  17  19
HETATM   19  C   UNL     1      -6.685  12.493  68.943  1.00  0.00    -0.098 A  
HETATM   20  C   UNL     1      -7.345  13.626  69.403  1.00  0.00     0.220 A  
HETATM   21  C   UNL     1      -7.019  14.912  68.934  1.00  0.00    -0.112 A  
HETATM   22  C   UNL     1      -5.558  12.631  68.144  1.00  0.00    -0.076 A  
HETATM   23  C   UNL     1      -5.881  15.049  68.112  1.00  0.00    -0.141 A  
HETATM   24  C   UNL     1      -5.403  16.358  67.545  1.00  0.00    -0.167 C  
HETATM   25  C   UNL     1      -5.136  13.905  67.763  1.00  0.00     0.001 A  
BRANCH  21  26
HETATM   26  N   UNL     1      -7.893  15.982  69.193  1.00  0.00    -0.225 NA 
HETATM   27  H   UNL     1      -7.453  16.844  69.514  1.00  0.00     0.000 HD 
BRANCH  26  28
HETATM   28  C   UNL     1      -9.284  16.025  69.071  1.00  0.00    -0.244 A  
HETATM   29  N   UNL     1      -9.785  16.829  68.129  1.00  0.00    -0.240 NA 
HETATM   30  C   UNL     1     -11.123  16.836  67.987  1.00  0.00    -0.220 A  
HETATM   31  C   UNL     1     -11.980  16.060  68.735  1.00  0.00    -0.088 A  
HETATM   32  C   UNL     1     -11.392  15.260  69.687  1.00  0.00    -0.290 A  
HETATM   33  N   UNL     1     -10.057  15.252  69.849  1.00  0.00    -0.232 NA 
BRANCH  32  34
HETATM   34  C   UNL     1     -12.125  14.357  70.594  1.00  0.00    -0.404 A  
HETATM   35  C   UNL     1     -12.189  12.976  70.406  1.00  0.00    -0.310 A  
HETATM   36  N   UNL     1     -12.866  12.108  71.201  1.00  0.00    -0.287 NA 
HETATM   37  C   UNL     1     -13.529  12.640  72.254  1.00  0.00    -0.438 A  
HETATM   38  C   UNL     1     -13.547  13.989  72.541  1.00  0.00    -0.670 A  
HETATM   39  C   UNL     1     -12.839  14.848  71.703  1.00  0.00    -0.402 A  
ENDBRANCH  32  34
ENDBRANCH  26  28
ENDBRANCH  21  26
ENDBRANCH  17  19
ENDBRANCH  12  15
ENDBRANCH   8   9
ENDBRANCH   5   8
TORSDOF 7
ENDMDL
MODEL      102
REMARK 921   NORMALIZED FREE ENERGY PREDICTED BY IDOCK:   -4.90 KCAL/MOL
REMARK 922        TOTAL FREE ENERGY PREDICTED BY IDOCK:   -8.06 KCAL/MOL
REMARK 923 INTER-LIGAND FREE ENERGY PREDICTED BY IDOCK:   -6.84 KCAL/MOL
REMARK 924 INTRA-LIGAND FREE ENERGY PREDICTED BY IDOCK:   -1.22 KCAL/MOL
REMARK 927      BINDING AFFINITY PREDICTED BY RF-SCORE:    0.00 PKD
ROOT
HETATM    1  C   UNL     1     -10.592   5.036  73.042  1.00  0.00    -0.225 C  
HETATM    2  N   UNL     1     -10.024   4.481  71.812  1.00  0.00    -0.188 NA 
HETATM    3  C   UNL     1     -10.485   5.236  70.630  1.00  0.00    -0.236 C  
HETATM    4  C   UNL     1      -9.795   6.605  70.431  1.00  0.00    -0.175 C  
HETATM    5  N   UNL     1      -8.314   6.547  70.417  1.00  0.00    -0.125 NA 
HETATM    6  C   UNL     1      -8.547   4.471  71.864  1.00  0.00    -0.113 C  
HETATM    7  C   UNL     1      -7.868   5.844  71.633  1.00  0.00    -0.106 C  
ENDROOT
BRANCH   5   8
HETATM    8  C   UNL     1      -7.765   5.909  69.199  1.00  0.00    -0.091 C  
BRANCH   8   9
HETATM    9  C   UNL     1      -7.953   6.787  67.979  1.00  0.00    -0.114 A  
HETATM   10  C   UNL     1      -7.199   7.960  67.850  1.00  0.00    -0.091 A  
HETATM   11  C   UNL     1      -7.587   8.937  66.938  1.00  0.00    -0.087 A  
HETATM   12  C   UNL     1      -8.725   8.749  66.143  1.00  0.00    -0.184 A  
HETATM   13  C   UNL     1      -9.006   6.541  67.086  1.00  0.00    -0.113 A  
HETATM   14  C   UNL     1      -9.399   7.522  66.174  1.00  0.00    -0.128 A  
BRANCH  12  15
HETATM   15  C   UNL     1      -9.257   9.935  65.421  1.00  0.00    -0.211 C  
HETATM   16  O   UNL     1      -8.990  10.070  64.231  1.00  0.00    -0.196 OA 
HETATM   17  N   UNL     1     -10.053  10.804  66.152  1.00  0.00    -0.234 N  
HETATM   18  H   UNL     1     -10.244  10.602  67.134  1.00  0.00     0.000 HD 
BRANCH  17  19
HETATM   19  C   UNL     1     -10.602  11.962  65.566  1.00  0.00    -0.269 A  
HETATM   20  C   UNL     1      -9.833  13.120  65.586  1.00  0.00    -0.174 A  
HETATM   21  C   UNL     1     -10.379  14.374  65.257  1.00  0.00    -0.403 A  
HETATM   22  C   UNL     1     -11.885  11.998  65.039  1.00  0.00    -0.291 A  
HETATM   23  C   UNL     1     -11.688  14.411  64.732  1.00  0.00    -0.420 A  
HETATM   24  C   UNL     1     -12.398  15.674  64.327  1.00  0.00     0.076 C  
HETATM   25  C   UNL     1     -12.411  13.210  64.589  1.00  0.00    -0.463 A  
BRANCH  21  26
HETATM   26  N   UNL     1      -9.662  15.541  65.573  1.00  0.00    -0.309 NA 
HETATM   27  H   UNL     1      -9.712  16.290  64.882  1.00  0.00     0.000 HD 
BRANCH  26  28
HETATM   28  C   UNL     1      -8.891  15.816  66.705  1.00  0.00    -0.288 A  
HETATM   29  N   UNL     1      -8.908  17.072  67.160  1.00  0.00    -0.213 NA 
HETATM   30  C   UNL     1      -8.196  17.321  68.274  1.00  0.00    -0.237 A  
HETATM   31  C   UNL     1      -7.482  16.366  68.962  1.00  0.00    -0.227 A  
HETATM   32  C   UNL     1      -7.508  15.096  68.431  1.00  0.00    -0.115 A  
HETATM   33  N   UNL     1      -8.205  14.834  67.311  1.00  0.00    -0.202 NA 
BRANCH  32  34
HETATM   34  C   UNL     1      -6.811  13.931  69.006  1.00  0.00    -0.111 A  
HETATM   35  C   UNL     1      -6.405  13.870  70.340  1.00  0.00    -0.041 A  
HETATM   36  N   UNL     1      -5.744  12.829  70.910  1.00  0.00    -0.290 NA 
HETATM   37  C   UNL     1      -5.461  11.777  70.108  1.00  0.00    -0.116 A  
HETATM   38  C   UNL     1      -5.804  11.722  68.772  1.00  0.00    -0.047 A  
HETATM   39  C   UNL     1      -6.483  12.809  68.223  1.00  0.00    -0.083 A  
ENDBRANCH  32  34
ENDBRANCH  26  28
ENDBRANCH  21  26
ENDBRANCH  17  19
ENDBRANCH  12  15
ENDBRANCH   8   9
ENDBRANCH   5   8
TORSDOF 7
ENDMDL
MODEL      103
REMARK 921   NORMALIZED FREE ENERGY PREDICTED BY IDOCK:   -4.87 KCAL/MOL
REMARK 922        TOTAL FREE ENERGY PREDICTED BY IDOCK:   -8.01 KCAL/MOL
REMARK 923 INTER-LIGAND FREE ENERGY PREDICTED BY IDOCK:   -7.15 KCAL/MOL
REMARK 924 INTRA-LIGAND FREE ENERGY PREDICTED BY IDOCK:   -0.86 KCAL/MOL
REMARK 927      BINDING AFFINITY PREDICTED BY RF-SCORE:    0.00 PKD
ROOT
HETATM    1  C   UNL     1      -8.495   4.264  74.342  1.00  0.00    -0.093 C  
HETATM    2  N   UNL     1      -7.471   4.575  73.342  1.00  0.00    -0.081 NA 
HETATM    3  C   UNL     1      -7.075   3.364  72.597  1.00  0.00    -0.044 C  
HETATM    4  C   UNL     1      -8.094   2.901  71.531  1.00  0.00    -0.056 C  
HETATM    5  N   UNL     1      -8.489   3.952  70.564  1.00  0.00    -0.068 NA 
HETATM    6  C   UNL     1      -7.941   5.617  72.404  1.00  0.00    -0.103 C  
HETATM    7  C   UNL     1      -8.940   5.132  71.324  1.00  0.00    -0.139 C  
ENDROOT
BRANCH   5   8
HETATM    8  C   UNL     1      -7.411   4.307  69.614  1.00  0.00    -0.050 C  
BRANCH   8   9
HETATM    9  C   UNL     1      -7.912   5.235  68.526  1.00  0.00    -0.087 A  
HETATM   10  C   UNL     1      -7.180   6.386  68.211  1.00  0.00    -0.085 A  
HETATM   11  C   UNL     1      -7.777   7.408  67.478  1.00  0.00    -0.111 A  
HETATM   12  C   UNL     1      -9.105   7.286  67.049  1.00  0.00    -0.152 A  
HETATM   13  C   UNL     1      -9.189   5.055  67.978  1.00  0.00    -0.139 A  
HETATM   14  C   UNL     1      -9.792   6.081  67.247  1.00  0.00    -0.155 A  
BRANCH  12  15
HETATM   15  C   UNL     1      -9.776   8.514  66.546  1.00  0.00    -0.260 C  
HETATM   16  O   UNL     1     -10.853   8.841  67.036  1.00  0.00    -0.193 OA 
HETATM   17  N   UNL     1      -9.110   9.228  65.562  1.00  0.00    -0.208 N  
HETATM   18  H   UNL     1      -8.205   8.897  65.228  1.00  0.00     0.000 HD 
BRANCH  17  19
HETATM   19  C   UNL     1      -9.661  10.403  65.011  1.00  0.00    -0.300 A  
HETATM   20  C   UNL     1      -9.861  11.481  65.866  1.00  0.00    -0.262 A  
HETATM   21  C   UNL     1     -10.625  12.597  65.478  1.00  0.00    -0.276 A  
HETATM   22  C   UNL     1     -10.062  10.492  63.685  1.00  0.00    -0.219 A  
HETATM   23  C   UNL     1     -11.042  12.681  64.133  1.00  0.00    -0.428 A  
HETATM   24  C   UNL     1     -11.854  13.817  63.572  1.00  0.00    -0.102 C  
HETATM   25  C   UNL     1     -10.715  11.642  63.240  1.00  0.00    -0.404 A  
BRANCH  21  26
HETATM   26  N   UNL     1     -11.048  13.515  66.456  1.00  0.00    -0.297 NA 
HETATM   27  H   UNL     1     -11.083  14.490  66.159  1.00  0.00     0.000 HD 
BRANCH  26  28
HETATM   28  C   UNL     1     -11.426  13.273  67.779  1.00  0.00    -0.317 A  
HETATM   29  N   UNL     1     -12.257  14.154  68.343  1.00  0.00    -0.260 NA 
HETATM   30  C   UNL     1     -12.650  13.895  69.603  1.00  0.00     0.003 A  
HETATM   31  C   UNL     1     -12.263  12.783  70.317  1.00  0.00    -0.351 A  
HETATM   32  C   UNL     1     -11.404  11.922  69.672  1.00  0.00    -0.195 A  
HETATM   33  N   UNL     1     -10.991  12.175  68.417  1.00  0.00    -0.221 NA 
BRANCH  32  34
HETATM   34  C   UNL     1     -10.866  10.679  70.256  1.00  0.00    -0.157 A  
HETATM   35  C   UNL     1      -9.670  10.096  69.835  1.00  0.00    -0.150 A  
HETATM   36  N   UNL     1      -9.146   8.945  70.328  1.00  0.00    -0.167 NA 
HETATM   37  C   UNL     1      -9.850   8.324  71.302  1.00  0.00    -0.175 A  
HETATM   38  C   UNL     1     -11.048   8.798  71.797  1.00  0.00    -0.417 A  
HETATM   39  C   UNL     1     -11.554   9.984  71.268  1.00  0.00    -0.430 A  
ENDBRANCH  32  34
ENDBRANCH  26  28
ENDBRANCH  21  26
ENDBRANCH  17  19
ENDBRANCH  12  15
ENDBRANCH   8   9
ENDBRANCH   5   8
TORSDOF 7
ENDMDL
MODEL      104
REMARK 921   NORMALIZED FREE ENERGY PREDICTED BY IDOCK:   -4.77 KCAL/MOL
REMARK 922        TOTAL FREE ENERGY PREDICTED BY IDOCK:   -7.88 KCAL/MOL
REMARK 923 INTER-LIGAND FREE ENERGY PREDICTED BY IDOCK:   -6.95 KCAL/MOL
REMARK 924 INTRA-LIGAND FREE ENERGY PREDICTED BY IDOCK:   -0.93 KCAL/MOL
REMARK 927      BINDING AFFINITY PREDICTED BY RF-SCORE:    0.00 PKD
ROOT
HETATM    1  C   UNL     1      -7.895  19.517  67.862  1.00  0.00    -0.295 C  
HETATM    2  N   UNL     1      -8.535  18.496  68.692  1.00  0.00    -0.322 NA 
HETATM    3  C   UNL     1      -9.991  18.723  68.781  1.00  0.00    -0.391 C  
HETATM    4  C   UNL     1     -10.785  18.314  67.518  1.00  0.00    -0.355 C  
HETATM    5  N   UNL     1     -10.542  16.923  67.068  1.00  0.00    -0.276 NA 
HETATM    6  C   UNL     1      -8.264  17.139  68.173  1.00  0.00    -0.224 C  
HETATM    7  C   UNL     1      -9.087  16.731  66.926  1.00  0.00    -0.229 C  
ENDROOT
BRANCH   5   8
HETATM    8  C   UNL     1     -11.131  15.906  67.967  1.00  0.00    -0.334 C  
BRANCH   8   9
HETATM    9  C   UNL     1     -11.081  14.523  67.350  1.00  0.00    -0.320 A  
HETATM   10  C   UNL     1     -10.156  13.587  67.828  1.00  0.00    -0.236 A  
HETATM   11  C   UNL     1      -9.858  12.458  67.072  1.00  0.00    -0.214 A  
HETATM   12  C   UNL     1     -10.487  12.249  65.837  1.00  0.00    -0.288 A  
HETATM   13  C   UNL     1     -11.810  14.242  66.186  1.00  0.00    -0.413 A  
HETATM   14  C   UNL     1     -11.510  13.112  65.423  1.00  0.00    -0.331 A  
BRANCH  12  15
HETATM   15  C   UNL     1      -9.915  11.204  64.948  1.00  0.00    -0.278 C  
HETATM   16  O   UNL     1     -10.587  10.800  64.003  1.00  0.00    -0.332 OA 
HETATM   17  N   UNL     1      -8.630  10.773  65.239  1.00  0.00    -0.255 N  
HETATM   18  H   UNL     1      -8.133  11.181  66.032  1.00  0.00     0.000 HD 
BRANCH  17  19
HETATM   19  C   UNL     1      -7.997   9.781  64.463  1.00  0.00    -0.144 A  
HETATM   20  C   UNL     1      -7.984   8.484  64.964  1.00  0.00    -0.131 A  
HETATM   21  C   UNL     1      -7.173   7.484  64.397  1.00  0.00    -0.081 A  
HETATM   22  C   UNL     1      -7.344  10.066  63.272  1.00  0.00    -0.136 A  
HETATM   23  C   UNL     1      -6.500   7.778  63.193  1.00  0.00    -0.067 A  
HETATM   24  C   UNL     1      -5.608   6.807  62.467  1.00  0.00    -0.032 C  
HETATM   25  C   UNL     1      -6.631   9.059  62.621  1.00  0.00    -0.094 A  
BRANCH  21  26
HETATM   26  N   UNL     1      -6.964   6.285  65.102  1.00  0.00    -0.054 NA 
HETATM   27  H   UNL     1      -6.044   5.860  64.987  1.00  0.00     0.000 HD 
BRANCH  26  28
HETATM   28  C   UNL     1      -7.846   5.598  65.940  1.00  0.00    -0.101 A  
HETATM   29  N   UNL     1      -9.105   5.462  65.515  1.00  0.00    -0.148 NA 
HETATM   30  C   UNL     1      -9.940   4.764  66.306  1.00  0.00    -0.242 A  
HETATM   31  C   UNL     1      -9.565   4.181  67.496  1.00  0.00    -0.219 A  
HETATM   32  C   UNL     1      -8.254   4.367  67.870  1.00  0.00    -0.095 A  
HETATM   33  N   UNL     1      -7.411   5.073  67.096  1.00  0.00    -0.081 NA 
BRANCH  32  34
HETATM   34  C   UNL     1      -7.651   3.833  69.106  1.00  0.00    -0.053 A  
HETATM   35  C   UNL     1      -7.995   4.287  70.379  1.00  0.00    -0.052 A  
HETATM   36  N   UNL     1      -7.455   3.841  71.542  1.00  0.00    -0.050 NA 
HETATM   37  C   UNL     1      -6.506   2.881  71.442  1.00  0.00    -0.019 A  
HETATM   38  C   UNL     1      -6.076   2.356  70.240  1.00  0.00    -0.023 A  
HETATM   39  C   UNL     1      -6.656   2.838  69.068  1.00  0.00    -0.033 A  
ENDBRANCH  32  34
ENDBRANCH  26  28
ENDBRANCH  21  26
ENDBRANCH  17  19
ENDBRANCH  12  15
ENDBRANCH   8   9
ENDBRANCH   5   8
TORSDOF 7
ENDMDL
MODEL      105
REMARK 921   NORMALIZED FREE ENERGY PREDICTED BY IDOCK:   -4.67 KCAL/MOL
REMARK 922        TOTAL FREE ENERGY PREDICTED BY IDOCK:   -7.73 KCAL/MOL
REMARK 923 INTER-LIGAND FREE ENERGY PREDICTED BY IDOCK:   -6.39 KCAL/MOL
REMARK 924 INTRA-LIGAND FREE ENERGY PREDICTED BY IDOCK:   -1.34 KCAL/MOL
REMARK 927      BINDING AFFINITY PREDICTED BY RF-SCORE:    0.00 PKD
ROOT
HETATM    1  C   UNL     1      -9.999  20.374  67.138  1.00  0.00    -0.428 C  
HETATM    2  N   UNL     1      -9.837  19.318  68.138  1.00  0.00    -0.354 NA 
HETATM    3  C   UNL     1     -10.832  18.245  67.940  1.00  0.00    -0.206 C  
HETATM    4  C   UNL     1     -10.526  17.293  66.761  1.00  0.00    -0.261 C  
HETATM    5  N   UNL     1      -9.172  16.691  66.796  1.00  0.00    -0.227 NA 
HETATM    6  C   UNL     1      -8.471  18.756  68.103  1.00  0.00    -0.306 C  
HETATM    7  C   UNL     1      -8.187  17.779  66.934  1.00  0.00    -0.232 C  
ENDROOT
BRANCH   5   8
HETATM    8  C   UNL     1      -9.008  15.683  67.868  1.00  0.00    -0.180 C  
BRANCH   8   9
HETATM    9  C   UNL     1      -8.579  14.342  67.308  1.00  0.00    -0.230 A  
HETATM   10  C   UNL     1      -9.487  13.588  66.554  1.00  0.00    -0.265 A  
HETATM   11  C   UNL     1      -9.244  12.237  66.325  1.00  0.00    -0.171 A  
HETATM   12  C   UNL     1      -8.092  11.630  66.842  1.00  0.00    -0.164 A  
HETATM   13  C   UNL     1      -7.363  13.768  67.702  1.00  0.00    -0.182 A  
HETATM   14  C   UNL     1      -7.120  12.411  67.479  1.00  0.00    -0.145 A  
BRANCH  12  15
HETATM   15  C   UNL     1      -8.040  10.144  66.828  1.00  0.00    -0.119 C  
HETATM   16  O   UNL     1      -7.184   9.577  67.502  1.00  0.00    -0.088 OA 
HETATM   17  N   UNL     1      -8.996   9.493  66.063  1.00  0.00    -0.154 N  
HETATM   18  H   UNL     1      -9.687  10.043  65.553  1.00  0.00     0.000 HD 
BRANCH  17  19
HETATM   19  C   UNL     1      -9.031   8.087  65.977  1.00  0.00    -0.163 A  
HETATM   20  C   UNL     1      -9.835   7.407  66.883  1.00  0.00    -0.284 A  
HETATM   21  C   UNL     1      -9.749   6.012  67.043  1.00  0.00    -0.138 A  
HETATM   22  C   UNL     1      -8.253   7.373  65.076  1.00  0.00    -0.101 A  
HETATM   23  C   UNL     1      -8.949   5.288  66.134  1.00  0.00    -0.139 A  
HETATM   24  C   UNL     1      -8.769   3.794  66.174  1.00  0.00    -0.117 C  
HETATM   25  C   UNL     1      -8.243   5.978  65.130  1.00  0.00    -0.142 A  
BRANCH  21  26
HETATM   26  N   UNL     1     -10.353   5.408  68.160  1.00  0.00    -0.168 NA 
HETATM   27  H   UNL     1     -11.355   5.232  68.078  1.00  0.00     0.000 HD 
BRANCH  26  28
HETATM   28  C   UNL     1      -9.769   5.017  69.367  1.00  0.00    -0.184 A  
HETATM   29  N   UNL     1      -9.875   3.728  69.702  1.00  0.00    -0.097 NA 
HETATM   30  C   UNL     1      -9.275   3.348  70.845  1.00  0.00    -0.130 A  
HETATM   31  C   UNL     1      -8.559   4.197  71.658  1.00  0.00    -0.125 A  
HETATM   32  C   UNL     1      -8.496   5.510  71.249  1.00  0.00    -0.127 A  
HETATM   33  N   UNL     1      -9.101   5.908  70.116  1.00  0.00    -0.144 NA 
BRANCH  32  34
HETATM   34  C   UNL     1      -7.785   6.581  71.973  1.00  0.00    -0.098 A  
HETATM   35  C   UNL     1      -6.680   7.250  71.448  1.00  0.00    -0.051 A  
HETATM   36  N   UNL     1      -5.982   8.227  72.083  1.00  0.00    -0.046 NA 
HETATM   37  C   UNL     1      -6.402   8.566  73.323  1.00  0.00    -0.094 A  
HETATM   38  C   UNL     1      -7.478   7.972  73.953  1.00  0.00    -0.207 A  
HETATM   39  C   UNL     1      -8.170   6.975  73.268  1.00  0.00    -0.125 A  
ENDBRANCH  32  34
ENDBRANCH  26  28
ENDBRANCH  21  26
ENDBRANCH  17  19
ENDBRANCH  12  15
ENDBRANCH   8   9
ENDBRANCH   5   8
TORSDOF 7
ENDMDL
MODEL      106
REMARK 921   NORMALIZED FREE ENERGY PREDICTED BY IDOCK:   -4.66 KCAL/MOL
REMARK 922        TOTAL FREE ENERGY PREDICTED BY IDOCK:   -7.71 KCAL/MOL
REMARK 923 INTER-LIGAND FREE ENERGY PREDICTED BY IDOCK:   -7.67 KCAL/MOL
REMARK 924 INTRA-LIGAND FREE ENERGY PREDICTED BY IDOCK:   -0.05 KCAL/MOL
REMARK 927      BINDING AFFINITY PREDICTED BY RF-SCORE:    0.00 PKD
ROOT
HETATM    1  C   UNL     1      -7.423   2.493  72.549  1.00  0.00    -0.047 C  
HETATM    2  N   UNL     1      -8.427   3.537  72.339  1.00  0.00    -0.084 NA 
HETATM    3  C   UNL     1      -7.809   4.764  71.799  1.00  0.00    -0.099 C  
HETATM    4  C   UNL     1      -7.445   4.695  70.298  1.00  0.00    -0.050 C  
HETATM    5  N   UNL     1      -8.566   4.292  69.415  1.00  0.00    -0.078 NA 
HETATM    6  C   UNL     1      -9.501   3.070  71.438  1.00  0.00    -0.146 C  
HETATM    7  C   UNL     1      -9.133   3.034  69.933  1.00  0.00    -0.126 C  
ENDROOT
BRANCH   5   8
HETATM    8  C   UNL     1      -9.609   5.334  69.283  1.00  0.00    -0.155 C  
BRANCH   8   9
HETATM    9  C   UNL     1      -9.102   6.532  68.506  1.00  0.00    -0.127 A  
HETATM   10  C   UNL     1      -8.906   7.751  69.168  1.00  0.00    -0.138 A  
HETATM   11  C   UNL     1      -8.776   8.926  68.434  1.00  0.00    -0.134 A  
HETATM   12  C   UNL     1      -8.834   8.893  67.034  1.00  0.00    -0.138 A  
HETATM   13  C   UNL     1      -9.018   6.484  67.107  1.00  0.00    -0.113 A  
HETATM   14  C   UNL     1      -8.893   7.662  66.369  1.00  0.00    -0.179 A  
BRANCH  12  15
HETATM   15  C   UNL     1      -8.995  10.192  66.328  1.00  0.00    -0.148 C  
HETATM   16  O   UNL     1      -8.076  10.598  65.622  1.00  0.00    -0.160 OA 
HETATM   17  N   UNL     1     -10.204  10.849  66.499  1.00  0.00    -0.225 N  
HETATM   18  H   UNL     1     -10.924  10.427  67.086  1.00  0.00     0.000 HD 
BRANCH  17  19
HETATM   19  C   UNL     1     -10.457  12.089  65.880  1.00  0.00    -0.255 A  
HETATM   20  C   UNL     1     -10.265  13.238  66.638  1.00  0.00    -0.265 A  
HETATM   21  C   UNL     1     -10.722  14.495  66.201  1.00  0.00    -0.310 A  
HETATM   22  C   UNL     1     -10.944  12.193  64.584  1.00  0.00    -0.359 A  
HETATM   23  C   UNL     1     -11.228  14.597  64.889  1.00  0.00    -0.400 A  
HETATM   24  C   UNL     1     -11.743  15.874  64.281  1.00  0.00    -0.132 C  
HETATM   25  C   UNL     1     -11.292  13.447  64.078  1.00  0.00    -0.356 A  
BRANCH  21  26
HETATM   26  N   UNL     1     -10.775  15.563  67.114  1.00  0.00    -0.312 NA 
HETATM   27  H   UNL     1     -11.252  15.368  67.994  1.00  0.00     0.000 HD 
BRANCH  26  28
HETATM   28  C   UNL     1     -10.262  16.856  66.979  1.00  0.00    -0.297 A  
HETATM   29  N   UNL     1     -10.966  17.712  66.232  1.00  0.00     0.112 NA 
HETATM   30  C   UNL     1     -10.489  18.966  66.139  1.00  0.00    -0.457 A  
HETATM   31  C   UNL     1      -9.350  19.407  66.774  1.00  0.00    -0.395 A  
HETATM   32  C   UNL     1      -8.677  18.467  67.522  1.00  0.00    -0.262 A  
HETATM   33  N   UNL     1      -9.134  17.206  67.615  1.00  0.00    -0.225 NA 
BRANCH  32  34
HETATM   34  C   UNL     1      -7.437  18.728  68.277  1.00  0.00    -0.300 A  
HETATM   35  C   UNL     1      -6.815  17.766  69.073  1.00  0.00    -0.244 A  
HETATM   36  N   UNL     1      -5.685  17.963  69.801  1.00  0.00    -0.230 NA 
HETATM   37  C   UNL     1      -5.132  19.197  69.741  1.00  0.00    -0.191 A  
HETATM   38  C   UNL     1      -5.657  20.233  68.995  1.00  0.00    -0.301 A  
HETATM   39  C   UNL     1      -6.816  19.991  68.260  1.00  0.00    -0.337 A  
ENDBRANCH  32  34
ENDBRANCH  26  28
ENDBRANCH  21  26
ENDBRANCH  17  19
ENDBRANCH  12  15
ENDBRANCH   8   9
ENDBRANCH   5   8
TORSDOF 7
ENDMDL
MODEL      107
REMARK 921   NORMALIZED FREE ENERGY PREDICTED BY IDOCK:   -4.63 KCAL/MOL
REMARK 922        TOTAL FREE ENERGY PREDICTED BY IDOCK:   -7.68 KCAL/MOL
REMARK 923 INTER-LIGAND FREE ENERGY PREDICTED BY IDOCK:   -6.76 KCAL/MOL
REMARK 924 INTRA-LIGAND FREE ENERGY PREDICTED BY IDOCK:   -0.92 KCAL/MOL
REMARK 927      BINDING AFFINITY PREDICTED BY RF-SCORE:    0.00 PKD
ROOT
HETATM    1  C   UNL     1     -13.181  15.508  70.961  1.00  0.00    -0.474 C  
HETATM    2  N   UNL     1     -11.795  15.102  70.723  1.00  0.00    -0.297 NA 
HETATM    3  C   UNL     1     -11.737  13.798  70.033  1.00  0.00    -0.257 C  
HETATM    4  C   UNL     1     -12.068  13.853  68.524  1.00  0.00    -0.296 C  
HETATM    5  N   UNL     1     -11.269  14.839  67.758  1.00  0.00    -0.300 NA 
HETATM    6  C   UNL     1     -11.067  16.123  69.941  1.00  0.00    -0.357 C  
HETATM    7  C   UNL     1     -11.386  16.147  68.425  1.00  0.00    -0.345 C  
ENDROOT
BRANCH   5   8
HETATM    8  C   UNL     1      -9.851  14.444  67.599  1.00  0.00    -0.224 C  
BRANCH   8   9
HETATM    9  C   UNL     1      -9.722  13.007  67.137  1.00  0.00    -0.230 A  
HETATM   10  C   UNL     1      -9.205  12.045  68.014  1.00  0.00    -0.192 A  
HETATM   11  C   UNL     1      -8.764  10.822  67.519  1.00  0.00    -0.125 A  
HETATM   12  C   UNL     1      -8.842  10.546  66.147  1.00  0.00    -0.172 A  
HETATM   13  C   UNL     1      -9.928  12.676  65.791  1.00  0.00    -0.266 A  
HETATM   14  C   UNL     1      -9.481  11.451  65.291  1.00  0.00    -0.233 A  
BRANCH  12  15
HETATM   15  C   UNL     1      -8.086   9.368  65.644  1.00  0.00    -0.112 C  
HETATM   16  O   UNL     1      -6.940   9.187  66.045  1.00  0.00    -0.083 OA 
HETATM   17  N   UNL     1      -8.753   8.530  64.764  1.00  0.00    -0.391 N  
HETATM   18  H   UNL     1      -9.716   8.743  64.501  1.00  0.00     0.000 HD 
BRANCH  17  19
HETATM   19  C   UNL     1      -8.126   7.389  64.222  1.00  0.00    -0.055 A  
HETATM   20  C   UNL     1      -8.453   6.155  64.771  1.00  0.00    -0.007 A  
HETATM   21  C   UNL     1      -7.709   4.998  64.477  1.00  0.00    -0.085 A  
HETATM   22  C   UNL     1      -7.164   7.466  63.224  1.00  0.00    -0.079 A  
HETATM   23  C   UNL     1      -6.724   5.079  63.471  1.00  0.00    -0.037 A  
HETATM   24  C   UNL     1      -5.858   3.925  63.043  1.00  0.00    -0.014 C  
HETATM   25  C   UNL     1      -6.494   6.310  62.824  1.00  0.00    -0.033 A  
BRANCH  21  26
HETATM   26  N   UNL     1      -7.882   3.849  65.269  1.00  0.00    -0.088 NA 
HETATM   27  H   UNL     1      -7.824   2.959  64.774  1.00  0.00     0.000 HD 
BRANCH  26  28
HETATM   28  C   UNL     1      -8.122   3.760  66.643  1.00  0.00    -0.096 A  
HETATM   29  N   UNL     1      -7.561   2.736  67.292  1.00  0.00    -0.068 NA 
HETATM   30  C   UNL     1      -7.761   2.679  68.621  1.00  0.00    -0.054 A  
HETATM   31  C   UNL     1      -8.485   3.610  69.331  1.00  0.00    -0.097 A  
HETATM   32  C   UNL     1      -9.036   4.634  68.594  1.00  0.00    -0.117 A  
HETATM   33  N   UNL     1      -8.855   4.698  67.263  1.00  0.00    -0.104 NA 
BRANCH  32  34
HETATM   34  C   UNL     1      -9.848   5.729  69.157  1.00  0.00    -0.211 A  
HETATM   35  C   UNL     1      -9.684   7.064  68.787  1.00  0.00    -0.143 A  
HETATM   36  N   UNL     1     -10.392   8.108  69.289  1.00  0.00    -0.216 NA 
HETATM   37  C   UNL     1     -11.325   7.815  70.224  1.00  0.00    -0.163 A  
HETATM   38  C   UNL     1     -11.576   6.536  70.677  1.00  0.00    -0.442 A  
HETATM   39  C   UNL     1     -10.830   5.490  70.136  1.00  0.00    -0.299 A  
ENDBRANCH  32  34
ENDBRANCH  26  28
ENDBRANCH  21  26
ENDBRANCH  17  19
ENDBRANCH  12  15
ENDBRANCH   8   9
ENDBRANCH   5   8
TORSDOF 7
ENDMDL
MODEL      108
REMARK 921   NORMALIZED FREE ENERGY PREDICTED BY IDOCK:   -4.58 KCAL/MOL
REMARK 922        TOTAL FREE ENERGY PREDICTED BY IDOCK:   -7.61 KCAL/MOL
REMARK 923 INTER-LIGAND FREE ENERGY PREDICTED BY IDOCK:   -8.34 KCAL/MOL
REMARK 924 INTRA-LIGAND FREE ENERGY PREDICTED BY IDOCK:    0.73 KCAL/MOL
REMARK 927      BINDING AFFINITY PREDICTED BY RF-SCORE:    0.00 PKD
ROOT
HETATM    1  C   UNL     1      -8.932  20.177  68.184  1.00  0.00    -0.125 C  
HETATM    2  N   UNL     1     -10.101  19.298  68.235  1.00  0.00    -0.402 NA 
HETATM    3  C   UNL     1     -10.857  19.348  66.967  1.00  0.00    -0.432 C  
HETATM    4  C   UNL     1     -10.212  18.564  65.802  1.00  0.00    -0.105 C  
HETATM    5  N   UNL     1      -9.896  17.150  66.116  1.00  0.00    -0.412 NA 
HETATM    6  C   UNL     1      -9.708  17.905  68.536  1.00  0.00    -0.351 C  
HETATM    7  C   UNL     1      -9.091  17.121  67.351  1.00  0.00    -0.224 C  
ENDROOT
BRANCH   5   8
HETATM    8  C   UNL     1     -11.099  16.297  66.242  1.00  0.00     0.137 C  
BRANCH   8   9
HETATM    9  C   UNL     1     -11.034  15.424  67.479  1.00  0.00    -0.315 A  
HETATM   10  C   UNL     1     -10.309  14.227  67.441  1.00  0.00    -0.259 A  
HETATM   11  C   UNL     1     -10.511  13.262  68.423  1.00  0.00    -0.261 A  
HETATM   12  C   UNL     1     -11.433  13.487  69.455  1.00  0.00    -0.340 A  
HETATM   13  C   UNL     1     -11.848  15.704  68.586  1.00  0.00    -0.306 A  
HETATM   14  C   UNL     1     -12.057  14.736  69.569  1.00  0.00    -0.328 A  
BRANCH  12  15
HETATM   15  C   UNL     1     -11.826  12.318  70.286  1.00  0.00    -0.240 C  
HETATM   16  O   UNL     1     -12.735  12.452  71.100  1.00  0.00    -0.351 OA 
HETATM   17  N   UNL     1     -11.142  11.134  70.059  1.00  0.00    -0.467 N  
HETATM   18  H   UNL     1     -10.415  11.105  69.344  1.00  0.00     0.000 HD 
BRANCH  17  19
HETATM   19  C   UNL     1     -11.431   9.969  70.797  1.00  0.00    -0.356 A  
HETATM   20  C   UNL     1     -10.386   9.087  71.043  1.00  0.00    -0.348 A  
HETATM   21  C   UNL     1     -10.615   7.793  71.545  1.00  0.00    -0.213 A  
HETATM   22  C   UNL     1     -12.715   9.650  71.219  1.00  0.00    -0.443 A  
HETATM   23  C   UNL     1     -11.922   7.466  71.964  1.00  0.00    -0.333 A  
HETATM   24  C   UNL     1     -12.315   6.128  72.530  1.00  0.00     0.025 C  
HETATM   25  C   UNL     1     -12.950   8.420  71.835  1.00  0.00    -0.381 A  
BRANCH  21  26
HETATM   26  N   UNL     1      -9.579   6.843  71.499  1.00  0.00    -0.163 NA 
HETATM   27  H   UNL     1      -8.966   6.819  72.314  1.00  0.00     0.000 HD 
BRANCH  26  28
HETATM   28  C   UNL     1      -9.276   5.927  70.489  1.00  0.00    -0.152 A  
HETATM   29  N   UNL     1      -9.662   4.663  70.681  1.00  0.00    -0.190 NA 
HETATM   30  C   UNL     1      -9.404   3.793  69.688  1.00  0.00    -0.175 A  
HETATM   31  C   UNL     1      -8.792   4.137  68.503  1.00  0.00    -0.139 A  
HETATM   32  C   UNL     1      -8.420   5.457  68.379  1.00  0.00    -0.096 A  
HETATM   33  N   UNL     1      -8.660   6.335  69.368  1.00  0.00    -0.124 NA 
BRANCH  32  34
HETATM   34  C   UNL     1      -7.751   6.032  67.197  1.00  0.00    -0.101 A  
HETATM   35  C   UNL     1      -8.448   6.545  66.103  1.00  0.00    -0.137 A  
HETATM   36  N   UNL     1      -7.877   7.066  64.986  1.00  0.00    -0.119 NA 
HETATM   37  C   UNL     1      -6.525   7.080  64.945  1.00  0.00    -0.043 A  
HETATM   38  C   UNL     1      -5.726   6.595  65.960  1.00  0.00    -0.025 A  
HETATM   39  C   UNL     1      -6.348   6.070  67.091  1.00  0.00    -0.041 A  
ENDBRANCH  32  34
ENDBRANCH  26  28
ENDBRANCH  21  26
ENDBRANCH  17  19
ENDBRANCH  12  15
ENDBRANCH   8   9
ENDBRANCH   5   8
TORSDOF 7
ENDMDL
MODEL      109
REMARK 921   NORMALIZED FREE ENERGY PREDICTED BY IDOCK:   -4.56 KCAL/MOL
REMARK 922        TOTAL FREE ENERGY PREDICTED BY IDOCK:   -7.58 KCAL/MOL
REMARK 923 INTER-LIGAND FREE ENERGY PREDICTED BY IDOCK:   -6.76 KCAL/MOL
REMARK 924 INTRA-LIGAND FREE ENERGY PREDICTED BY IDOCK:   -0.82 KCAL/MOL
REMARK 927      BINDING AFFINITY PREDICTED BY RF-SCORE:    0.00 PKD
ROOT
HETATM    1  C   UNL     1      -5.941  20.749  66.926  1.00  0.00    -0.217 C  
HETATM    2  N   UNL     1      -7.033  20.373  66.026  1.00  0.00    -0.255 NA 
HETATM    3  C   UNL     1      -6.783  19.052  65.415  1.00  0.00    -0.228 C  
HETATM    4  C   UNL     1      -7.033  17.850  66.355  1.00  0.00    -0.249 C  
HETATM    5  N   UNL     1      -8.370  17.840  66.993  1.00  0.00    -0.220 NA 
HETATM    6  C   UNL     1      -8.330  20.368  66.734  1.00  0.00    -0.205 C  
HETATM    7  C   UNL     1      -8.579  19.143  67.649  1.00  0.00    -0.296 C  
ENDROOT
BRANCH   5   8
HETATM    8  C   UNL     1      -9.467  17.537  66.046  1.00  0.00    -0.070 C  
BRANCH   8   9
HETATM    9  C   UNL     1      -9.854  16.073  66.095  1.00  0.00    -0.351 A  
HETATM   10  C   UNL     1      -9.585  15.326  67.249  1.00  0.00    -0.214 A  
HETATM   11  C   UNL     1      -9.613  13.936  67.198  1.00  0.00    -0.247 A  
HETATM   12  C   UNL     1      -9.915  13.280  65.997  1.00  0.00    -0.297 A  
HETATM   13  C   UNL     1     -10.292  15.418  64.935  1.00  0.00    -0.256 A  
HETATM   14  C   UNL     1     -10.315  14.024  64.880  1.00  0.00    -0.434 A  
BRANCH  12  15
HETATM   15  C   UNL     1      -9.633  11.821  65.927  1.00  0.00    -0.230 C  
HETATM   16  O   UNL     1      -9.425  11.313  64.829  1.00  0.00    -0.224 OA 
HETATM   17  N   UNL     1      -9.598  11.135  67.131  1.00  0.00    -0.172 N  
HETATM   18  H   UNL     1      -9.759  11.642  68.001  1.00  0.00     0.000 HD 
BRANCH  17  19
HETATM   19  C   UNL     1      -9.346   9.749  67.175  1.00  0.00    -0.142 A  
HETATM   20  C   UNL     1      -8.399   9.297  68.086  1.00  0.00    -0.120 A  
HETATM   21  C   UNL     1      -7.898   7.983  68.038  1.00  0.00    -0.126 A  
HETATM   22  C   UNL     1      -9.954   8.849  66.311  1.00  0.00    -0.337 A  
HETATM   23  C   UNL     1      -8.509   7.072  67.151  1.00  0.00    -0.121 A  
HETATM   24  C   UNL     1      -8.089   5.635  66.998  1.00  0.00    -0.102 C  
HETATM   25  C   UNL     1      -9.564   7.509  66.327  1.00  0.00    -0.134 A  
BRANCH  21  26
HETATM   26  N   UNL     1      -6.744   7.659  68.773  1.00  0.00    -0.052 NA 
HETATM   27  H   UNL     1      -5.858   7.922  68.341  1.00  0.00     0.000 HD 
BRANCH  26  28
HETATM   28  C   UNL     1      -6.645   7.025  70.014  1.00  0.00    -0.044 A  
HETATM   29  N   UNL     1      -5.440   7.006  70.591  1.00  0.00    -0.023 NA 
HETATM   30  C   UNL     1      -5.359   6.431  71.804  1.00  0.00    -0.027 A  
HETATM   31  C   UNL     1      -6.434   5.889  72.473  1.00  0.00    -0.066 A  
HETATM   32  C   UNL     1      -7.642   5.942  71.815  1.00  0.00    -0.096 A  
HETATM   33  N   UNL     1      -7.736   6.503  70.596  1.00  0.00    -0.102 NA 
BRANCH  32  34
HETATM   34  C   UNL     1      -8.912   5.418  72.349  1.00  0.00    -0.139 A  
HETATM   35  C   UNL     1      -9.111   4.072  72.656  1.00  0.00    -0.109 A  
HETATM   36  N   UNL     1     -10.267   3.540  73.130  1.00  0.00    -0.147 NA 
HETATM   37  C   UNL     1     -11.299   4.395  73.314  1.00  0.00    -0.237 A  
HETATM   38  C   UNL     1     -11.228   5.746  73.041  1.00  0.00    -0.289 A  
HETATM   39  C   UNL     1     -10.025   6.255  72.557  1.00  0.00    -0.184 A  
ENDBRANCH  32  34
ENDBRANCH  26  28
ENDBRANCH  21  26
ENDBRANCH  17  19
ENDBRANCH  12  15
ENDBRANCH   8   9
ENDBRANCH   5   8
TORSDOF 7
ENDMDL
MODEL      110
REMARK 921   NORMALIZED FREE ENERGY PREDICTED BY IDOCK:   -4.53 KCAL/MOL
REMARK 922        TOTAL FREE ENERGY PREDICTED BY IDOCK:   -7.54 KCAL/MOL
REMARK 923 INTER-LIGAND FREE ENERGY PREDICTED BY IDOCK:   -7.18 KCAL/MOL
REMARK 924 INTRA-LIGAND FREE ENERGY PREDICTED BY IDOCK:   -0.35 KCAL/MOL
REMARK 927      BINDING AFFINITY PREDICTED BY RF-SCORE:    0.00 PKD
ROOT
HETATM    1  C   UNL     1      -8.635   1.615  66.429  1.00  0.00    -0.108 C  
HETATM    2  N   UNL     1      -8.283   2.816  65.670  1.00  0.00    -0.087 NA 
HETATM    3  C   UNL     1      -8.322   4.015  66.530  1.00  0.00    -0.104 C  
HETATM    4  C   UNL     1      -7.115   4.163  67.485  1.00  0.00    -0.063 C  
HETATM    5  N   UNL     1      -5.794   4.094  66.816  1.00  0.00    -0.022 NA 
HETATM    6  C   UNL     1      -6.949   2.681  65.047  1.00  0.00    -0.049 C  
HETATM    7  C   UNL     1      -5.748   2.861  66.010  1.00  0.00    -0.018 C  
ENDROOT
BRANCH   5   8
HETATM    8  C   UNL     1      -5.495   5.285  65.989  1.00  0.00    -0.013 C  
BRANCH   8   9
HETATM    9  C   UNL     1      -6.010   6.555  66.636  1.00  0.00    -0.028 A  
HETATM   10  C   UNL     1      -5.730   6.803  67.986  1.00  0.00    -0.016 A  
HETATM   11  C   UNL     1      -6.460   7.763  68.680  1.00  0.00    -0.048 A  
HETATM   12  C   UNL     1      -7.469   8.487  68.032  1.00  0.00    -0.097 A  
HETATM   13  C   UNL     1      -6.920   7.376  65.957  1.00  0.00    -0.061 A  
HETATM   14  C   UNL     1      -7.657   8.336  66.653  1.00  0.00    -0.090 A  
BRANCH  12  15
HETATM   15  C   UNL     1      -8.406   9.265  68.886  1.00  0.00    -0.120 C  
HETATM   16  O   UNL     1      -7.946  10.113  69.645  1.00  0.00    -0.152 OA 
HETATM   17  N   UNL     1      -9.757   8.991  68.740  1.00  0.00    -0.157 N  
HETATM   18  H   UNL     1     -10.054   8.285  68.065  1.00  0.00     0.000 HD 
BRANCH  17  19
HETATM   19  C   UNL     1     -10.728   9.667  69.505  1.00  0.00    -0.232 A  
HETATM   20  C   UNL     1     -11.309  10.801  68.950  1.00  0.00    -0.349 A  
HETATM   21  C   UNL     1     -12.093  11.679  69.720  1.00  0.00    -0.289 A  
HETATM   22  C   UNL     1     -11.067   9.281  70.794  1.00  0.00    -0.349 A  
HETATM   23  C   UNL     1     -12.428  11.292  71.035  1.00  0.00    -0.503 A  
HETATM   24  C   UNL     1     -13.266  12.120  71.970  1.00  0.00    -0.496 C  
HETATM   25  C   UNL     1     -11.944  10.069  71.541  1.00  0.00    -0.438 A  
BRANCH  21  26
HETATM   26  N   UNL     1     -12.409  12.950  69.207  1.00  0.00    -0.034 NA 
HETATM   27  H   UNL     1     -13.149  12.970  68.504  1.00  0.00     0.000 HD 
BRANCH  26  28
HETATM   28  C   UNL     1     -11.849  14.188  69.529  1.00  0.00    -0.322 A  
HETATM   29  N   UNL     1     -12.288  14.782  70.642  1.00  0.00    -0.314 NA 
HETATM   30  C   UNL     1     -11.716  15.955  70.970  1.00  0.00    -0.432 A  
HETATM   31  C   UNL     1     -10.711  16.551  70.242  1.00  0.00    -0.088 A  
HETATM   32  C   UNL     1     -10.313  15.882  69.106  1.00  0.00    -0.237 A  
HETATM   33  N   UNL     1     -10.885  14.715  68.759  1.00  0.00    -0.246 NA 
BRANCH  32  34
HETATM   34  C   UNL     1      -9.259  16.347  68.185  1.00  0.00    -0.201 A  
HETATM   35  C   UNL     1      -9.403  16.341  66.798  1.00  0.00    -0.237 A  
HETATM   36  N   UNL     1      -8.456  16.739  65.910  1.00  0.00    -0.476 NA 
HETATM   37  C   UNL     1      -7.283  17.173  66.427  1.00  0.00    -0.290 A  
HETATM   38  C   UNL     1      -7.017  17.219  67.781  1.00  0.00    -0.172 A  
HETATM   39  C   UNL     1      -8.015  16.804  68.660  1.00  0.00    -0.246 A  
ENDBRANCH  32  34
ENDBRANCH  26  28
ENDBRANCH  21  26
ENDBRANCH  17  19
ENDBRANCH  12  15
ENDBRANCH   8   9
ENDBRANCH   5   8
TORSDOF 7
ENDMDL
MODEL      111
REMARK 921   NORMALIZED FREE ENERGY PREDICTED BY IDOCK:   -4.42 KCAL/MOL
REMARK 922        TOTAL FREE ENERGY PREDICTED BY IDOCK:   -7.39 KCAL/MOL
REMARK 923 INTER-LIGAND FREE ENERGY PREDICTED BY IDOCK:   -6.61 KCAL/MOL
REMARK 924 INTRA-LIGAND FREE ENERGY PREDICTED BY IDOCK:   -0.78 KCAL/MOL
REMARK 927      BINDING AFFINITY PREDICTED BY RF-SCORE:    0.00 PKD
ROOT
HETATM    1  C   UNL     1      -7.341   2.358  70.091  1.00  0.00    -0.040 C  
HETATM    2  N   UNL     1      -6.845   3.041  68.895  1.00  0.00    -0.040 NA 
HETATM    3  C   UNL     1      -7.661   2.698  67.713  1.00  0.00    -0.060 C  
HETATM    4  C   UNL     1      -9.033   3.408  67.651  1.00  0.00    -0.146 C  
HETATM    5  N   UNL     1      -8.965   4.883  67.777  1.00  0.00    -0.107 NA 
HETATM    6  C   UNL     1      -6.821   4.506  69.088  1.00  0.00    -0.050 C  
HETATM    7  C   UNL     1      -8.199   5.208  68.994  1.00  0.00    -0.088 C  
ENDROOT
BRANCH   5   8
HETATM    8  C   UNL     1      -8.385   5.546  66.587  1.00  0.00    -0.109 C  
BRANCH   8   9
HETATM    9  C   UNL     1      -8.341   7.050  66.755  1.00  0.00    -0.116 A  
HETATM   10  C   UNL     1      -7.103   7.703  66.804  1.00  0.00    -0.083 A  
HETATM   11  C   UNL     1      -7.024   9.004  67.291  1.00  0.00    -0.078 A  
HETATM   12  C   UNL     1      -8.179   9.666  67.726  1.00  0.00    -0.114 A  
HETATM   13  C   UNL     1      -9.510   7.763  67.058  1.00  0.00    -0.210 A  
HETATM   14  C   UNL     1      -9.432   9.066  67.552  1.00  0.00    -0.168 A  
BRANCH  12  15
HETATM   15  C   UNL     1      -7.995  10.918  68.509  1.00  0.00    -0.134 C  
HETATM   16  O   UNL     1      -8.890  11.276  69.268  1.00  0.00     0.056 OA 
HETATM   17  N   UNL     1      -6.792  11.586  68.340  1.00  0.00    -0.065 N  
HETATM   18  H   UNL     1      -6.091  11.204  67.704  1.00  0.00     0.000 HD 
BRANCH  17  19
HETATM   19  C   UNL     1      -6.518  12.785  69.029  1.00  0.00    -0.096 A  
HETATM   20  C   UNL     1      -7.049  13.960  68.510  1.00  0.00    -0.104 A  
HETATM   21  C   UNL     1      -6.635  15.223  68.972  1.00  0.00    -0.118 A  
HETATM   22  C   UNL     1      -5.698  12.835  70.148  1.00  0.00    -0.151 A  
HETATM   23  C   UNL     1      -5.792  15.273  70.102  1.00  0.00    -0.140 A  
HETATM   24  C   UNL     1      -5.277  16.548  70.714  1.00  0.00    -0.176 C  
HETATM   25  C   UNL     1      -5.369  14.072  70.704  1.00  0.00    -0.127 A  
BRANCH  21  26
HETATM   26  N   UNL     1      -6.967  16.370  68.230  1.00  0.00    -0.134 NA 
HETATM   27  H   UNL     1      -6.252  17.097  68.197  1.00  0.00     0.000 HD 
BRANCH  26  28
HETATM   28  C   UNL     1      -8.144  16.650  67.531  1.00  0.00    -0.168 A  
HETATM   29  N   UNL     1      -8.416  17.936  67.293  1.00  0.00    -0.233 NA 
HETATM   30  C   UNL     1      -9.529  18.198  66.584  1.00  0.00    -0.302 A  
HETATM   31  C   UNL     1     -10.373  17.230  66.089  1.00  0.00    -0.320 A  
HETATM   32  C   UNL     1     -10.030  15.928  66.378  1.00  0.00    -0.287 A  
HETATM   33  N   UNL     1      -8.927  15.651  67.096  1.00  0.00    -0.204 NA 
BRANCH  32  34
HETATM   34  C   UNL     1     -10.796  14.743  65.948  1.00  0.00    -0.331 A  
HETATM   35  C   UNL     1     -11.349  13.829  66.845  1.00  0.00    -0.328 A  
HETATM   36  N   UNL     1     -12.045  12.715  66.497  1.00  0.00    -0.552 NA 
HETATM   37  C   UNL     1     -12.203  12.486  65.173  1.00  0.00    -0.448 A  
HETATM   38  C   UNL     1     -11.697  13.312  64.190  1.00  0.00    -0.470 A  
HETATM   39  C   UNL     1     -10.991  14.447  64.586  1.00  0.00    -0.367 A  
ENDBRANCH  32  34
ENDBRANCH  26  28
ENDBRANCH  21  26
ENDBRANCH  17  19
ENDBRANCH  12  15
ENDBRANCH   8   9
ENDBRANCH   5   8
TORSDOF 7
ENDMDL
MODEL      112
REMARK 921   NORMALIZED FREE ENERGY PREDICTED BY IDOCK:   -4.35 KCAL/MOL
REMARK 922        TOTAL FREE ENERGY PREDICTED BY IDOCK:   -7.28 KCAL/MOL
REMARK 923 INTER-LIGAND FREE ENERGY PREDICTED BY IDOCK:   -7.16 KCAL/MOL
REMARK 924 INTRA-LIGAND FREE ENERGY PREDICTED BY IDOCK:   -0.12 KCAL/MOL
REMARK 927      BINDING AFFINITY PREDICTED BY RF-SCORE:    0.00 PKD
ROOT
HETATM    1  C   UNL     1     -10.559   3.771  64.587  1.00  0.00    -0.107 C  
HETATM    2  N   UNL     1      -9.351   4.446  64.111  1.00  0.00    -0.145 NA 
HETATM    3  C   UNL     1      -9.015   5.598  64.970  1.00  0.00     0.061 C  
HETATM    4  C   UNL     1      -8.374   5.225  66.326  1.00  0.00    -0.114 C  
HETATM    5  N   UNL     1      -7.187   4.344  66.220  1.00  0.00    -0.074 NA 
HETATM    6  C   UNL     1      -8.208   3.511  64.047  1.00  0.00    -0.090 C  
HETATM    7  C   UNL     1      -7.556   3.169  65.410  1.00  0.00    -0.080 C  
ENDROOT
BRANCH   5   8
HETATM    8  C   UNL     1      -5.999   5.027  65.660  1.00  0.00    -0.022 C  
BRANCH   8   9
HETATM    9  C   UNL     1      -6.056   6.523  65.896  1.00  0.00    -0.030 A  
HETATM   10  C   UNL     1      -6.469   7.009  67.143  1.00  0.00    -0.053 A  
HETATM   11  C   UNL     1      -6.853   8.340  67.275  1.00  0.00    -0.070 A  
HETATM   12  C   UNL     1      -6.822   9.197  66.167  1.00  0.00    -0.085 A  
HETATM   13  C   UNL     1      -5.893   7.414  64.826  1.00  0.00    -0.037 A  
HETATM   14  C   UNL     1      -6.282   8.748  64.956  1.00  0.00    -0.060 A  
BRANCH  12  15
HETATM   15  C   UNL     1      -7.522  10.503  66.295  1.00  0.00    -0.133 C  
HETATM   16  O   UNL     1      -8.317  10.834  65.420  1.00  0.00    -0.161 OA 
HETATM   17  N   UNL     1      -7.241  11.253  67.427  1.00  0.00    -0.103 N  
HETATM   18  H   UNL     1      -6.584  10.890  68.117  1.00  0.00     0.000 HD 
BRANCH  17  19
HETATM   19  C   UNL     1      -7.846  12.508  67.642  1.00  0.00    -0.162 A  
HETATM   20  C   UNL     1      -9.118  12.521  68.200  1.00  0.00    -0.204 A  
HETATM   21  C   UNL     1      -9.900  13.691  68.224  1.00  0.00    -0.232 A  
HETATM   22  C   UNL     1      -7.248  13.701  67.260  1.00  0.00     0.005 A  
HETATM   23  C   UNL     1      -9.296  14.901  67.825  1.00  0.00    -0.194 A  
HETATM   24  C   UNL     1     -10.003  16.230  67.807  1.00  0.00    -0.246 C  
HETATM   25  C   UNL     1      -7.957  14.897  67.388  1.00  0.00    -0.223 A  
BRANCH  21  26
HETATM   26  N   UNL     1     -11.272  13.595  68.520  1.00  0.00    -0.264 NA 
HETATM   27  H   UNL     1     -11.905  13.900  67.781  1.00  0.00     0.000 HD 
BRANCH  26  28
HETATM   28  C   UNL     1     -11.885  13.140  69.690  1.00  0.00    -0.324 A  
HETATM   29  N   UNL     1     -12.440  14.062  70.482  1.00  0.00    -0.350 NA 
HETATM   30  C   UNL     1     -13.065  13.614  71.586  1.00  0.00    -0.372 A  
HETATM   31  C   UNL     1     -13.173  12.284  71.924  1.00  0.00    -0.481 A  
HETATM   32  C   UNL     1     -12.573  11.393  71.062  1.00  0.00    -0.386 A  
HETATM   33  N   UNL     1     -11.934  11.827  69.961  1.00  0.00    -0.341 NA 
BRANCH  32  34
HETATM   34  C   UNL     1     -12.567   9.929  71.239  1.00  0.00    -0.480 A  
HETATM   35  C   UNL     1     -11.619   9.095  70.647  1.00  0.00    -0.235 A  
HETATM   36  N   UNL     1     -11.584   7.743  70.763  1.00  0.00    -0.280 NA 
HETATM   37  C   UNL     1     -12.554   7.173  71.515  1.00  0.00    -0.390 A  
HETATM   38  C   UNL     1     -13.551   7.890  72.146  1.00  0.00    -0.177 A  
HETATM   39  C   UNL     1     -13.552   9.276  72.003  1.00  0.00    -0.519 A  
ENDBRANCH  32  34
ENDBRANCH  26  28
ENDBRANCH  21  26
ENDBRANCH  17  19
ENDBRANCH  12  15
ENDBRANCH   8   9
ENDBRANCH   5   8
TORSDOF 7
ENDMDL
MODEL      113
REMARK 921   NORMALIZED FREE ENERGY PREDICTED BY IDOCK:   -4.33 KCAL/MOL
REMARK 922        TOTAL FREE ENERGY PREDICTED BY IDOCK:   -7.25 KCAL/MOL
REMARK 923 INTER-LIGAND FREE ENERGY PREDICTED BY IDOCK:   -7.22 KCAL/MOL
REMARK 924 INTRA-LIGAND FREE ENERGY PREDICTED BY IDOCK:   -0.04 KCAL/MOL
REMARK 927      BINDING AFFINITY PREDICTED BY RF-SCORE:    0.00 PKD
ROOT
HETATM    1  C   UNL     1     -11.058  18.802  67.024  1.00  0.00     0.079 C  
HETATM    2  N   UNL     1     -10.130  18.667  68.148  1.00  0.00    -0.360 NA 
HETATM    3  C   UNL     1      -9.162  17.579  67.907  1.00  0.00    -0.265 C  
HETATM    4  C   UNL     1      -8.034  17.930  66.909  1.00  0.00    -0.227 C  
HETATM    5  N   UNL     1      -7.292  19.170  67.236  1.00  0.00    -0.222 NA 
HETATM    6  C   UNL     1      -9.415  19.936  68.404  1.00  0.00    -0.272 C  
HETATM    7  C   UNL     1      -8.269  20.260  67.414  1.00  0.00    -0.338 C  
ENDROOT
BRANCH   5   8
HETATM    8  C   UNL     1      -6.421  19.034  68.425  1.00  0.00    -0.234 C  
BRANCH   8   9
HETATM    9  C   UNL     1      -6.039  17.588  68.672  1.00  0.00    -0.174 A  
HETATM   10  C   UNL     1      -5.404  16.860  67.658  1.00  0.00    -0.144 A  
HETATM   11  C   UNL     1      -5.355  15.472  67.728  1.00  0.00    -0.118 A  
HETATM   12  C   UNL     1      -5.933  14.799  68.813  1.00  0.00    -0.084 A  
HETATM   13  C   UNL     1      -6.491  16.924  69.821  1.00  0.00    -0.101 A  
HETATM   14  C   UNL     1      -6.447  15.531  69.891  1.00  0.00    -0.146 A  
BRANCH  12  15
HETATM   15  C   UNL     1      -6.118  13.329  68.685  1.00  0.00    -0.085 C  
HETATM   16  O   UNL     1      -5.212  12.586  69.054  1.00  0.00    -0.065 OA 
HETATM   17  N   UNL     1      -7.331  12.896  68.173  1.00  0.00    -0.107 N  
HETATM   18  H   UNL     1      -8.039  13.583  67.914  1.00  0.00     0.000 HD 
BRANCH  17  19
HETATM   19  C   UNL     1      -7.606  11.524  68.004  1.00  0.00    -0.112 A  
HETATM   20  C   UNL     1      -7.603  10.723  69.140  1.00  0.00    -0.133 A  
HETATM   21  C   UNL     1      -7.617   9.318  69.051  1.00  0.00    -0.074 A  
HETATM   22  C   UNL     1      -7.810  10.949  66.757  1.00  0.00    -0.141 A  
HETATM   23  C   UNL     1      -7.813   8.735  67.782  1.00  0.00    -0.102 A  
HETATM   24  C   UNL     1      -7.861   7.252  67.535  1.00  0.00    -0.112 C  
HETATM   25  C   UNL     1      -7.952   9.565  66.652  1.00  0.00    -0.108 A  
BRANCH  21  26
HETATM   26  N   UNL     1      -7.316   8.554  70.193  1.00  0.00    -0.050 NA 
HETATM   27  H   UNL     1      -6.390   8.126  70.205  1.00  0.00     0.000 HD 
BRANCH  26  28
HETATM   28  C   UNL     1      -8.113   8.301  71.312  1.00  0.00    -0.120 A  
HETATM   29  N   UNL     1      -7.481   8.086  72.470  1.00  0.00    -0.104 NA 
HETATM   30  C   UNL     1      -8.253   7.884  73.552  1.00  0.00    -0.198 A  
HETATM   31  C   UNL     1      -9.629   7.905  73.531  1.00  0.00    -0.281 A  
HETATM   32  C   UNL     1     -10.209   8.129  72.303  1.00  0.00    -0.278 A  
HETATM   33  N   UNL     1      -9.450   8.320  71.209  1.00  0.00    -0.161 NA 
BRANCH  32  34
HETATM   34  C   UNL     1     -11.663   8.187  72.059  1.00  0.00    -0.389 A  
HETATM   35  C   UNL     1     -12.410   9.358  72.191  1.00  0.00    -0.298 A  
HETATM   36  N   UNL     1     -13.750   9.457  71.997  1.00  0.00    -0.408 NA 
HETATM   37  C   UNL     1     -14.399   8.321  71.650  1.00  0.00    -0.467 A  
HETATM   38  C   UNL     1     -13.773   7.101  71.496  1.00  0.00    -0.413 A  
HETATM   39  C   UNL     1     -12.396   7.040  71.702  1.00  0.00    -0.407 A  
ENDBRANCH  32  34
ENDBRANCH  26  28
ENDBRANCH  21  26
ENDBRANCH  17  19
ENDBRANCH  12  15
ENDBRANCH   8   9
ENDBRANCH   5   8
TORSDOF 7
ENDMDL
MODEL      114
REMARK 921   NORMALIZED FREE ENERGY PREDICTED BY IDOCK:   -4.32 KCAL/MOL
REMARK 922        TOTAL FREE ENERGY PREDICTED BY IDOCK:   -7.24 KCAL/MOL
REMARK 923 INTER-LIGAND FREE ENERGY PREDICTED BY IDOCK:   -6.55 KCAL/MOL
REMARK 924 INTRA-LIGAND FREE ENERGY PREDICTED BY IDOCK:   -0.69 KCAL/MOL
REMARK 927      BINDING AFFINITY PREDICTED BY RF-SCORE:    0.00 PKD
ROOT
HETATM    1  C   UNL     1      -8.380   1.605  65.895  1.00  0.00    -0.090 C  
HETATM    2  N   UNL     1      -8.971   2.596  66.796  1.00  0.00    -0.143 NA 
HETATM    3  C   UNL     1      -7.932   3.253  67.613  1.00  0.00    -0.076 C  
HETATM    4  C   UNL     1      -7.096   4.313  66.860  1.00  0.00    -0.067 C  
HETATM    5  N   UNL     1      -7.899   5.354  66.176  1.00  0.00    -0.102 NA 
HETATM    6  C   UNL     1      -9.741   3.608  66.043  1.00  0.00    -0.080 C  
HETATM    7  C   UNL     1      -8.891   4.681  65.318  1.00  0.00    -0.145 C  
ENDROOT
BRANCH   5   8
HETATM    8  C   UNL     1      -8.553   6.297  67.111  1.00  0.00    -0.107 C  
BRANCH   8   9
HETATM    9  C   UNL     1      -9.136   7.489  66.381  1.00  0.00    -0.210 A  
HETATM   10  C   UNL     1      -8.463   8.013  65.270  1.00  0.00    -0.133 A  
HETATM   11  C   UNL     1      -8.782   9.285  64.803  1.00  0.00    -0.220 A  
HETATM   12  C   UNL     1      -9.779  10.040  65.435  1.00  0.00    -0.368 A  
HETATM   13  C   UNL     1     -10.225   8.187  66.922  1.00  0.00    -0.387 A  
HETATM   14  C   UNL     1     -10.543   9.464  66.458  1.00  0.00    -0.125 A  
BRANCH  12  15
HETATM   15  C   UNL     1      -9.863  11.484  65.091  1.00  0.00    -0.257 C  
HETATM   16  O   UNL     1      -9.569  11.837  63.953  1.00  0.00    -0.208 OA 
HETATM   17  N   UNL     1     -10.299  12.339  66.092  1.00  0.00    -0.237 N  
HETATM   18  H   UNL     1     -10.546  11.955  67.005  1.00  0.00     0.000 HD 
BRANCH  17  19
HETATM   19  C   UNL     1     -10.408  13.727  65.873  1.00  0.00    -0.309 A  
HETATM   20  C   UNL     1      -9.231  14.464  65.822  1.00  0.00     0.163 A  
HETATM   21  C   UNL     1      -9.240  15.870  65.858  1.00  0.00    -0.297 A  
HETATM   22  C   UNL     1     -11.632  14.375  65.775  1.00  0.00    -0.353 A  
HETATM   23  C   UNL     1     -10.484  16.529  65.770  1.00  0.00    -0.343 A  
HETATM   24  C   UNL     1     -10.650  18.024  65.786  1.00  0.00    -0.174 C  
HETATM   25  C   UNL     1     -11.667  15.767  65.684  1.00  0.00     0.477 A  
BRANCH  21  26
HETATM   26  N   UNL     1      -8.039  16.560  66.103  1.00  0.00    -0.306 NA 
HETATM   27  H   UNL     1      -7.788  17.266  65.411  1.00  0.00     0.000 HD 
BRANCH  26  28
HETATM   28  C   UNL     1      -7.144  16.410  67.165  1.00  0.00    -0.200 A  
HETATM   29  N   UNL     1      -6.508  15.239  67.261  1.00  0.00    -0.307 NA 
HETATM   30  C   UNL     1      -5.617  15.113  68.261  1.00  0.00    -0.120 A  
HETATM   31  C   UNL     1      -5.322  16.114  69.159  1.00  0.00    -0.111 A  
HETATM   32  C   UNL     1      -6.020  17.290  69.000  1.00  0.00    -0.191 A  
HETATM   33  N   UNL     1      -6.923  17.426  68.013  1.00  0.00    -0.182 NA 
BRANCH  32  34
HETATM   34  C   UNL     1      -5.860  18.483  69.853  1.00  0.00    -0.242 A  
HETATM   35  C   UNL     1      -6.206  19.768  69.437  1.00  0.00    -0.320 A  
HETATM   36  N   UNL     1      -6.060  20.897  70.177  1.00  0.00    -0.223 NA 
HETATM   37  C   UNL     1      -5.532  20.748  71.414  1.00  0.00    -0.042 A  
HETATM   38  C   UNL     1      -5.144  19.530  71.936  1.00  0.00    -0.288 A  
HETATM   39  C   UNL     1      -5.312  18.394  71.147  1.00  0.00    -0.224 A  
ENDBRANCH  32  34
ENDBRANCH  26  28
ENDBRANCH  21  26
ENDBRANCH  17  19
ENDBRANCH  12  15
ENDBRANCH   8   9
ENDBRANCH   5   8
TORSDOF 7
ENDMDL
MODEL      115
REMARK 921   NORMALIZED FREE ENERGY PREDICTED BY IDOCK:   -4.20 KCAL/MOL
REMARK 922        TOTAL FREE ENERGY PREDICTED BY IDOCK:   -7.07 KCAL/MOL
REMARK 923 INTER-LIGAND FREE ENERGY PREDICTED BY IDOCK:   -6.21 KCAL/MOL
REMARK 924 INTRA-LIGAND FREE ENERGY PREDICTED BY IDOCK:   -0.86 KCAL/MOL
REMARK 927      BINDING AFFINITY PREDICTED BY RF-SCORE:    0.00 PKD
ROOT
HETATM    1  C   UNL     1      -8.975   3.888  64.665  1.00  0.00    -0.131 C  
HETATM    2  N   UNL     1      -7.669   4.202  65.247  1.00  0.00    -0.085 NA 
HETATM    3  C   UNL     1      -7.471   5.661  65.347  1.00  0.00    -0.074 C  
HETATM    4  C   UNL     1      -8.242   6.338  66.503  1.00  0.00    -0.112 C  
HETATM    5  N   UNL     1      -8.008   5.729  67.834  1.00  0.00    -0.097 NA 
HETATM    6  C   UNL     1      -7.514   3.576  66.578  1.00  0.00    -0.076 C  
HETATM    7  C   UNL     1      -8.269   4.282  67.732  1.00  0.00    -0.095 C  
ENDROOT
BRANCH   5   8
HETATM    8  C   UNL     1      -6.652   5.992  68.367  1.00  0.00    -0.055 C  
BRANCH   8   9
HETATM    9  C   UNL     1      -6.318   7.469  68.331  1.00  0.00    -0.044 A  
HETATM   10  C   UNL     1      -7.041   8.360  69.134  1.00  0.00    -0.064 A  
HETATM   11  C   UNL     1      -6.992   9.726  68.872  1.00  0.00    -0.062 A  
HETATM   12  C   UNL     1      -6.216  10.214  67.813  1.00  0.00    -0.057 A  
HETATM   13  C   UNL     1      -5.435   7.971  67.364  1.00  0.00    -0.037 A  
HETATM   14  C   UNL     1      -5.388   9.340  67.097  1.00  0.00    -0.036 A  
BRANCH  12  15
HETATM   15  C   UNL     1      -6.440  11.624  67.396  1.00  0.00    -0.103 C  
HETATM   16  O   UNL     1      -6.943  11.841  66.297  1.00  0.00     0.118 OA 
HETATM   17  N   UNL     1      -6.082  12.607  68.305  1.00  0.00    -0.062 N  
HETATM   18  H   UNL     1      -5.691  12.335  69.208  1.00  0.00     0.000 HD 
BRANCH  17  19
HETATM   19  C   UNL     1      -6.246  13.975  68.007  1.00  0.00    -0.142 A  
HETATM   20  C   UNL     1      -7.478  14.380  67.508  1.00  0.00    -0.206 A  
HETATM   21  C   UNL     1      -7.662  15.659  66.950  1.00  0.00    -0.203 A  
HETATM   22  C   UNL     1      -5.216  14.897  68.132  1.00  0.00    -0.119 A  
HETATM   23  C   UNL     1      -6.611  16.592  67.067  1.00  0.00    -0.239 A  
HETATM   24  C   UNL     1      -6.668  17.997  66.530  1.00  0.00    -0.243 C  
HETATM   25  C   UNL     1      -5.412  16.209  67.699  1.00  0.00    -0.163 A  
BRANCH  21  26
HETATM   26  N   UNL     1      -8.821  15.921  66.197  1.00  0.00    -0.341 NA 
HETATM   27  H   UNL     1      -8.897  16.865  65.818  1.00  0.00     0.000 HD 
BRANCH  26  28
HETATM   28  C   UNL     1      -9.883  15.064  65.898  1.00  0.00    -0.338 A  
HETATM   29  N   UNL     1     -10.734  15.461  64.948  1.00  0.00    -0.425 NA 
HETATM   30  C   UNL     1     -11.731  14.614  64.635  1.00  0.00    -0.426 A  
HETATM   31  C   UNL     1     -11.903  13.379  65.218  1.00  0.00    -0.373 A  
HETATM   32  C   UNL     1     -10.990  13.040  66.191  1.00  0.00    -0.280 A  
HETATM   33  N   UNL     1      -9.996  13.882  66.524  1.00  0.00    -0.277 NA 
BRANCH  32  34
HETATM   34  C   UNL     1     -10.997  11.771  66.942  1.00  0.00    -0.333 A  
HETATM   35  C   UNL     1     -11.789  11.558  68.070  1.00  0.00    -0.217 A  
HETATM   36  N   UNL     1     -11.815  10.415  68.804  1.00  0.00    -0.206 NA 
HETATM   37  C   UNL     1     -11.000   9.414  68.398  1.00  0.00    -0.030 A  
HETATM   38  C   UNL     1     -10.166   9.506  67.302  1.00  0.00    -0.295 A  
HETATM   39  C   UNL     1     -10.169  10.694  66.573  1.00  0.00    -0.288 A  
ENDBRANCH  32  34
ENDBRANCH  26  28
ENDBRANCH  21  26
ENDBRANCH  17  19
ENDBRANCH  12  15
ENDBRANCH   8   9
ENDBRANCH   5   8
TORSDOF 7
ENDMDL
MODEL      116
REMARK 921   NORMALIZED FREE ENERGY PREDICTED BY IDOCK:   -4.08 KCAL/MOL
REMARK 922        TOTAL FREE ENERGY PREDICTED BY IDOCK:   -6.91 KCAL/MOL
REMARK 923 INTER-LIGAND FREE ENERGY PREDICTED BY IDOCK:   -7.31 KCAL/MOL
REMARK 924 INTRA-LIGAND FREE ENERGY PREDICTED BY IDOCK:    0.41 KCAL/MOL
REMARK 927      BINDING AFFINITY PREDICTED BY RF-SCORE:    0.00 PKD
ROOT
HETATM    1  C   UNL     1     -13.369  15.637  71.658  1.00  0.00    -0.458 C  
HETATM    2  N   UNL     1     -11.990  15.219  71.401  1.00  0.00    -0.333 NA 
HETATM    3  C   UNL     1     -11.931  13.792  71.029  1.00  0.00    -0.121 C  
HETATM    4  C   UNL     1     -12.382  13.484  69.582  1.00  0.00    -0.165 C  
HETATM    5  N   UNL     1     -11.689  14.282  68.543  1.00  0.00    -0.322 NA 
HETATM    6  C   UNL     1     -11.371  16.046  70.344  1.00  0.00    -0.391 C  
HETATM    7  C   UNL     1     -11.809  15.707  68.898  1.00  0.00    -0.352 C  
ENDROOT
BRANCH   5   8
HETATM    8  C   UNL     1     -10.272  13.895  68.357  1.00  0.00    -0.243 C  
BRANCH   8   9
HETATM    9  C   UNL     1     -10.116  12.392  68.248  1.00  0.00    -0.227 A  
HETATM   10  C   UNL     1     -11.246  11.596  68.023  1.00  0.00    -0.327 A  
HETATM   11  C   UNL     1     -11.187  10.226  68.257  1.00  0.00    -0.295 A  
HETATM   12  C   UNL     1      -9.999   9.638  68.710  1.00  0.00    -0.184 A  
HETATM   13  C   UNL     1      -8.894  11.783  68.565  1.00  0.00    -0.122 A  
HETATM   14  C   UNL     1      -8.834  10.409  68.805  1.00  0.00    -0.157 A  
BRANCH  12  15
HETATM   15  C   UNL     1     -10.080   8.246  69.228  1.00  0.00    -0.199 C  
HETATM   16  O   UNL     1     -10.416   7.349  68.459  1.00  0.00    -0.195 OA 
HETATM   17  N   UNL     1      -9.740   8.055  70.558  1.00  0.00    -0.177 N  
HETATM   18  H   UNL     1      -9.448   8.855  71.120  1.00  0.00     0.000 HD 
BRANCH  17  19
HETATM   19  C   UNL     1      -9.789   6.777  71.150  1.00  0.00    -0.177 A  
HETATM   20  C   UNL     1      -9.458   5.687  70.354  1.00  0.00    -0.206 A  
HETATM   21  C   UNL     1      -9.713   4.367  70.769  1.00  0.00    -0.201 A  
HETATM   22  C   UNL     1     -10.213   6.572  72.456  1.00  0.00    -0.202 A  
HETATM   23  C   UNL     1     -10.155   4.160  72.093  1.00  0.00    -0.248 A  
HETATM   24  C   UNL     1     -10.458   2.808  72.679  1.00  0.00    -0.184 C  
HETATM   25  C   UNL     1     -10.358   5.270  72.936  1.00  0.00    -0.235 A  
BRANCH  21  26
HETATM   26  N   UNL     1      -9.641   3.323  69.829  1.00  0.00    -0.141 NA 
HETATM   27  H   UNL     1     -10.264   2.533  69.998  1.00  0.00     0.000 HD 
BRANCH  26  28
HETATM   28  C   UNL     1      -8.832   3.223  68.694  1.00  0.00    -0.116 A  
HETATM   29  N   UNL     1      -7.511   3.204  68.891  1.00  0.00    -0.049 NA 
HETATM   30  C   UNL     1      -6.738   3.066  67.799  1.00  0.00    -0.044 A  
HETATM   31  C   UNL     1      -7.229   2.928  66.520  1.00  0.00    -0.065 A  
HETATM   32  C   UNL     1      -8.600   2.959  66.395  1.00  0.00    -0.116 A  
HETATM   33  N   UNL     1      -9.386   3.110  67.477  1.00  0.00    -0.205 NA 
BRANCH  32  34
HETATM   34  C   UNL     1      -9.330   2.833  65.120  1.00  0.00    -0.111 A  
HETATM   35  C   UNL     1     -10.318   3.731  64.717  1.00  0.00    -0.124 A  
HETATM   36  N   UNL     1     -11.030   3.645  63.563  1.00  0.00    -0.224 NA 
HETATM   37  C   UNL     1     -10.748   2.601  62.751  1.00  0.00    -0.184 A  
HETATM   38  C   UNL     1      -9.797   1.643  63.042  1.00  0.00    -0.099 A  
HETATM   39  C   UNL     1      -9.086   1.766  64.235  1.00  0.00    -0.113 A  
ENDBRANCH  32  34
ENDBRANCH  26  28
ENDBRANCH  21  26
ENDBRANCH  17  19
ENDBRANCH  12  15
ENDBRANCH   8   9
ENDBRANCH   5   8
TORSDOF 7
ENDMDL
MODEL      117
REMARK 921   NORMALIZED FREE ENERGY PREDICTED BY IDOCK:   -4.05 KCAL/MOL
REMARK 922        TOTAL FREE ENERGY PREDICTED BY IDOCK:   -6.87 KCAL/MOL
REMARK 923 INTER-LIGAND FREE ENERGY PREDICTED BY IDOCK:   -6.39 KCAL/MOL
REMARK 924 INTRA-LIGAND FREE ENERGY PREDICTED BY IDOCK:   -0.48 KCAL/MOL
REMARK 927      BINDING AFFINITY PREDICTED BY RF-SCORE:    0.00 PKD
ROOT
HETATM    1  C   UNL     1      -8.329   3.642  63.964  1.00  0.00    -0.090 C  
HETATM    2  N   UNL     1      -7.654   4.732  63.258  1.00  0.00    -0.058 NA 
HETATM    3  C   UNL     1      -8.014   6.041  63.837  1.00  0.00    -0.114 C  
HETATM    4  C   UNL     1      -7.317   6.366  65.179  1.00  0.00    -0.077 C  
HETATM    5  N   UNL     1      -5.840   6.246  65.145  1.00  0.00    -0.025 NA 
HETATM    6  C   UNL     1      -6.187   4.554  63.280  1.00  0.00    -0.022 C  
HETATM    7  C   UNL     1      -5.497   4.911  64.621  1.00  0.00    -0.013 C  
ENDROOT
BRANCH   5   8
HETATM    8  C   UNL     1      -5.185   7.314  64.357  1.00  0.00    -0.029 C  
BRANCH   8   9
HETATM    9  C   UNL     1      -5.751   8.679  64.692  1.00  0.00    -0.063 A  
HETATM   10  C   UNL     1      -5.517   9.231  65.958  1.00  0.00    -0.040 A  
HETATM   11  C   UNL     1      -6.292  10.297  66.403  1.00  0.00    -0.085 A  
HETATM   12  C   UNL     1      -7.302  10.825  65.587  1.00  0.00    -0.026 A  
HETATM   13  C   UNL     1      -6.664   9.298  63.826  1.00  0.00    -0.092 A  
HETATM   14  C   UNL     1      -7.446  10.364  64.273  1.00  0.00    -0.002 A  
BRANCH  12  15
HETATM   15  C   UNL     1      -8.283  11.744  66.224  1.00  0.00     0.070 C  
HETATM   16  O   UNL     1      -9.481  11.505  66.101  1.00  0.00    -0.208 OA 
HETATM   17  N   UNL     1      -7.763  12.807  66.946  1.00  0.00    -0.395 N  
HETATM   18  H   UNL     1      -6.751  12.917  67.017  1.00  0.00     0.000 HD 
BRANCH  17  19
HETATM   19  C   UNL     1      -8.606  13.741  67.583  1.00  0.00    -0.187 A  
HETATM   20  C   UNL     1      -9.726  13.250  68.243  1.00  0.00    -0.225 A  
HETATM   21  C   UNL     1     -10.751  14.104  68.691  1.00  0.00    -0.254 A  
HETATM   22  C   UNL     1      -8.391  15.111  67.516  1.00  0.00    -0.188 A  
HETATM   23  C   UNL     1     -10.537  15.496  68.612  1.00  0.00    -0.243 A  
HETATM   24  C   UNL     1     -11.536  16.528  69.060  1.00  0.00    -0.109 C  
HETATM   25  C   UNL     1      -9.334  15.982  68.063  1.00  0.00    -0.202 A  
BRANCH  21  26
HETATM   26  N   UNL     1     -11.985  13.552  69.080  1.00  0.00    -0.341 NA 
HETATM   27  H   UNL     1     -12.805  13.926  68.602  1.00  0.00     0.000 HD 
BRANCH  26  28
HETATM   28  C   UNL     1     -12.240  12.562  70.032  1.00  0.00    -0.192 A  
HETATM   29  N   UNL     1     -12.954  12.921  71.103  1.00  0.00    -0.234 NA 
HETATM   30  C   UNL     1     -13.231  11.954  71.996  1.00  0.00    -0.356 A  
HETATM   31  C   UNL     1     -12.841  10.641  71.857  1.00  0.00    -0.487 A  
HETATM   32  C   UNL     1     -12.106  10.348  70.730  1.00  0.00    -0.364 A  
HETATM   33  N   UNL     1     -11.810  11.307  69.834  1.00  0.00    -0.328 NA 
BRANCH  32  34
HETATM   34  C   UNL     1     -11.588   9.010  70.391  1.00  0.00    -0.145 A  
HETATM   35  C   UNL     1     -12.062   7.839  70.982  1.00  0.00    -0.244 A  
HETATM   36  N   UNL     1     -11.604   6.588  70.718  1.00  0.00    -0.364 NA 
HETATM   37  C   UNL     1     -10.607   6.485  69.808  1.00  0.00    -0.235 A  
HETATM   38  C   UNL     1     -10.051   7.570  69.161  1.00  0.00    -0.192 A  
HETATM   39  C   UNL     1     -10.549   8.837  69.457  1.00  0.00    -0.224 A  
ENDBRANCH  32  34
ENDBRANCH  26  28
ENDBRANCH  21  26
ENDBRANCH  17  19
ENDBRANCH  12  15
ENDBRANCH   8   9
ENDBRANCH   5   8
TORSDOF 7
ENDMDL
MODEL      118
REMARK 921   NORMALIZED FREE ENERGY PREDICTED BY IDOCK:   -4.05 KCAL/MOL
REMARK 922        TOTAL FREE ENERGY PREDICTED BY IDOCK:   -6.86 KCAL/MOL
REMARK 923 INTER-LIGAND FREE ENERGY PREDICTED BY IDOCK:   -7.04 KCAL/MOL
REMARK 924 INTRA-LIGAND FREE ENERGY PREDICTED BY IDOCK:    0.18 KCAL/MOL
REMARK 927      BINDING AFFINITY PREDICTED BY RF-SCORE:    0.00 PKD
ROOT
HETATM    1  C   UNL     1      -5.930   3.429  73.189  1.00  0.00    -0.008 C  
HETATM    2  N   UNL     1      -7.392   3.464  73.120  1.00  0.00    -0.053 NA 
HETATM    3  C   UNL     1      -7.868   4.777  72.643  1.00  0.00    -0.093 C  
HETATM    4  C   UNL     1      -7.707   5.006  71.122  1.00  0.00    -0.091 C  
HETATM    5  N   UNL     1      -8.302   3.943  70.278  1.00  0.00    -0.060 NA 
HETATM    6  C   UNL     1      -7.910   2.388  72.250  1.00  0.00    -0.053 C  
HETATM    7  C   UNL     1      -7.771   2.644  70.728  1.00  0.00    -0.042 C  
ENDROOT
BRANCH   5   8
HETATM    8  C   UNL     1      -9.783   3.947  70.288  1.00  0.00    -0.175 C  
BRANCH   8   9
HETATM    9  C   UNL     1     -10.335   5.351  70.157  1.00  0.00    -0.361 A  
HETATM   10  C   UNL     1     -10.120   6.069  68.973  1.00  0.00    -0.223 A  
HETATM   11  C   UNL     1     -10.310   7.447  68.953  1.00  0.00    -0.214 A  
HETATM   12  C   UNL     1     -10.722   8.119  70.112  1.00  0.00    -0.243 A  
HETATM   13  C   UNL     1     -10.881   6.004  71.271  1.00  0.00    -0.331 A  
HETATM   14  C   UNL     1     -11.067   7.387  71.255  1.00  0.00    -0.269 A  
BRANCH  12  15
HETATM   15  C   UNL     1     -10.614   9.602  70.115  1.00  0.00    -0.272 C  
HETATM   16  O   UNL     1      -9.500  10.112  70.199  1.00  0.00    -0.147 OA 
HETATM   17  N   UNL     1     -11.797  10.314  69.993  1.00  0.00    -0.384 N  
HETATM   18  H   UNL     1     -12.679   9.808  69.904  1.00  0.00     0.000 HD 
BRANCH  17  19
HETATM   19  C   UNL     1     -11.807  11.724  69.992  1.00  0.00    -0.342 A  
HETATM   20  C   UNL     1     -10.998  12.371  69.066  1.00  0.00    -0.247 A  
HETATM   21  C   UNL     1     -10.746  13.753  69.146  1.00  0.00    -0.123 A  
HETATM   22  C   UNL     1     -12.533  12.468  70.912  1.00  0.00    -0.361 A  
HETATM   23  C   UNL     1     -11.476  14.507  70.089  1.00  0.00    -0.297 A  
HETATM   24  C   UNL     1     -11.322  15.992  70.281  1.00  0.00    -0.391 C  
HETATM   25  C   UNL     1     -12.397  13.857  70.933  1.00  0.00    -0.451 A  
BRANCH  21  26
HETATM   26  N   UNL     1      -9.703  14.308  68.384  1.00  0.00    -0.221 NA 
HETATM   27  H   UNL     1      -8.896  13.702  68.234  1.00  0.00     0.000 HD 
BRANCH  26  28
HETATM   28  C   UNL     1      -9.622  15.576  67.803  1.00  0.00    -0.209 A  
HETATM   29  N   UNL     1     -10.364  15.793  66.713  1.00  0.00    -0.287 NA 
HETATM   30  C   UNL     1     -10.314  17.027  66.182  1.00  0.00    -0.319 A  
HETATM   31  C   UNL     1      -9.568  18.060  66.703  1.00  0.00    -0.315 A  
HETATM   32  C   UNL     1      -8.827  17.761  67.824  1.00  0.00    -0.249 A  
HETATM   33  N   UNL     1      -8.856  16.528  68.360  1.00  0.00    -0.210 NA 
BRANCH  32  34
HETATM   34  C   UNL     1      -7.959  18.718  68.536  1.00  0.00    -0.377 A  
HETATM   35  C   UNL     1      -7.227  18.380  69.675  1.00  0.00     0.256 A  
HETATM   36  N   UNL     1      -6.431  19.229  70.375  1.00  0.00     0.024 NA 
HETATM   37  C   UNL     1      -6.353  20.501  69.921  1.00  0.00    -0.084 A  
HETATM   38  C   UNL     1      -7.033  20.958  68.810  1.00  0.00     0.445 A  
HETATM   39  C   UNL     1      -7.839  20.056  68.117  1.00  0.00    -0.262 A  
ENDBRANCH  32  34
ENDBRANCH  26  28
ENDBRANCH  21  26
ENDBRANCH  17  19
ENDBRANCH  12  15
ENDBRANCH   8   9
ENDBRANCH   5   8
TORSDOF 7
ENDMDL
MODEL      119
REMARK 921   NORMALIZED FREE ENERGY PREDICTED BY IDOCK:   -3.99 KCAL/MOL
REMARK 922        TOTAL FREE ENERGY PREDICTED BY IDOCK:   -6.78 KCAL/MOL
REMARK 923 INTER-LIGAND FREE ENERGY PREDICTED BY IDOCK:   -6.06 KCAL/MOL
REMARK 924 INTRA-LIGAND FREE ENERGY PREDICTED BY IDOCK:   -0.72 KCAL/MOL
REMARK 927      BINDING AFFINITY PREDICTED BY RF-SCORE:    0.00 PKD
ROOT
HETATM    1  C   UNL     1     -10.420   3.702  64.337  1.00  0.00    -0.179 C  
HETATM    2  N   UNL     1      -8.998   3.698  64.683  1.00  0.00    -0.118 NA 
HETATM    3  C   UNL     1      -8.213   2.944  63.687  1.00  0.00    -0.085 C  
HETATM    4  C   UNL     1      -7.973   3.692  62.355  1.00  0.00    -0.063 C  
HETATM    5  N   UNL     1      -7.381   5.042  62.510  1.00  0.00    -0.041 NA 
HETATM    6  C   UNL     1      -8.475   5.076  64.804  1.00  0.00    -0.148 C  
HETATM    7  C   UNL     1      -8.210   5.803  63.462  1.00  0.00    -0.072 C  
ENDROOT
BRANCH   5   8
HETATM    8  C   UNL     1      -5.964   5.014  62.939  1.00  0.00    -0.017 C  
BRANCH   8   9
HETATM    9  C   UNL     1      -5.529   6.350  63.505  1.00  0.00    -0.019 A  
HETATM   10  C   UNL     1      -5.195   6.449  64.861  1.00  0.00    -0.021 A  
HETATM   11  C   UNL     1      -5.126   7.698  65.469  1.00  0.00    -0.025 A  
HETATM   12  C   UNL     1      -5.384   8.859  64.727  1.00  0.00    -0.042 A  
HETATM   13  C   UNL     1      -5.647   7.516  62.735  1.00  0.00    -0.046 A  
HETATM   14  C   UNL     1      -5.584   8.770  63.344  1.00  0.00    -0.072 A  
BRANCH  12  15
HETATM   15  C   UNL     1      -5.595  10.121  65.486  1.00  0.00    -0.077 C  
HETATM   16  O   UNL     1      -5.386  11.191  64.921  1.00  0.00    -0.194 OA 
HETATM   17  N   UNL     1      -6.047   9.995  66.791  1.00  0.00    -0.059 N  
HETATM   18  H   UNL     1      -6.218   9.065  67.174  1.00  0.00     0.000 HD 
BRANCH  17  19
HETATM   19  C   UNL     1      -6.272  11.128  67.599  1.00  0.00    -0.053 A  
HETATM   20  C   UNL     1      -7.577  11.595  67.701  1.00  0.00    -0.128 A  
HETATM   21  C   UNL     1      -7.869  12.848  68.271  1.00  0.00    -0.142 A  
HETATM   22  C   UNL     1      -5.244  11.815  68.229  1.00  0.00    -0.043 A  
HETATM   23  C   UNL     1      -6.822  13.550  68.901  1.00  0.00    -0.111 A  
HETATM   24  C   UNL     1      -6.985  14.893  69.562  1.00  0.00    -0.180 C  
HETATM   25  C   UNL     1      -5.525  13.000  68.910  1.00  0.00    -0.071 A  
BRANCH  21  26
HETATM   26  N   UNL     1      -9.147  13.406  68.088  1.00  0.00    -0.203 NA 
HETATM   27  H   UNL     1      -9.845  13.148  68.786  1.00  0.00     0.000 HD 
BRANCH  26  28
HETATM   28  C   UNL     1      -9.590  14.266  67.081  1.00  0.00    -0.245 A  
HETATM   29  N   UNL     1     -10.161  13.705  66.012  1.00  0.00    -0.300 NA 
HETATM   30  C   UNL     1     -10.623  14.539  65.063  1.00  0.00    -0.437 A  
HETATM   31  C   UNL     1     -10.555  15.912  65.146  1.00  0.00    -0.421 A  
HETATM   32  C   UNL     1      -9.950  16.417  66.275  1.00  0.00    -0.323 A  
HETATM   33  N   UNL     1      -9.472  15.595  67.226  1.00  0.00    -0.214 NA 
BRANCH  32  34
HETATM   34  C   UNL     1      -9.770  17.854  66.559  1.00  0.00    -0.331 A  
HETATM   35  C   UNL     1     -10.772  18.801  66.350  1.00  0.00    -0.257 A  
HETATM   36  N   UNL     1     -10.648  20.135  66.578  1.00  0.00    -0.333 NA 
HETATM   37  C   UNL     1      -9.451  20.563  67.041  1.00  0.00    -0.375 A  
HETATM   38  C   UNL     1      -8.381  19.724  67.280  1.00  0.00    -0.351 A  
HETATM   39  C   UNL     1      -8.548  18.362  67.036  1.00  0.00    -0.264 A  
ENDBRANCH  32  34
ENDBRANCH  26  28
ENDBRANCH  21  26
ENDBRANCH  17  19
ENDBRANCH  12  15
ENDBRANCH   8   9
ENDBRANCH   5   8
TORSDOF 7
ENDMDL
MODEL      120
REMARK 921   NORMALIZED FREE ENERGY PREDICTED BY IDOCK:   -3.93 KCAL/MOL
REMARK 922        TOTAL FREE ENERGY PREDICTED BY IDOCK:   -6.69 KCAL/MOL
REMARK 923 INTER-LIGAND FREE ENERGY PREDICTED BY IDOCK:   -6.92 KCAL/MOL
REMARK 924 INTRA-LIGAND FREE ENERGY PREDICTED BY IDOCK:    0.23 KCAL/MOL
REMARK 927      BINDING AFFINITY PREDICTED BY RF-SCORE:    0.00 PKD
ROOT
HETATM    1  C   UNL     1     -13.268  15.739  71.528  1.00  0.00    -0.360 C  
HETATM    2  N   UNL     1     -11.916  15.219  71.318  1.00  0.00    -0.318 NA 
HETATM    3  C   UNL     1     -11.951  13.799  70.917  1.00  0.00    -0.192 C  
HETATM    4  C   UNL     1     -12.363  13.556  69.446  1.00  0.00    -0.114 C  
HETATM    5  N   UNL     1     -11.567  14.316  68.454  1.00  0.00    -0.302 NA 
HETATM    6  C   UNL     1     -11.190  16.015  70.306  1.00  0.00    -0.389 C  
HETATM    7  C   UNL     1     -11.592  15.740  68.836  1.00  0.00    -0.394 C  
ENDROOT
BRANCH   5   8
HETATM    8  C   UNL     1     -10.178  13.823  68.318  1.00  0.00    -0.245 C  
BRANCH   8   9
HETATM    9  C   UNL     1     -10.131  12.312  68.227  1.00  0.00    -0.218 A  
HETATM   10  C   UNL     1     -11.325  11.592  68.091  1.00  0.00    -0.358 A  
HETATM   11  C   UNL     1     -11.342  10.224  68.345  1.00  0.00    -0.244 A  
HETATM   12  C   UNL     1     -10.168   9.563  68.731  1.00  0.00    -0.215 A  
HETATM   13  C   UNL     1      -8.934  11.625  68.474  1.00  0.00    -0.138 A  
HETATM   14  C   UNL     1      -8.950  10.254  68.735  1.00  0.00    -0.155 A  
BRANCH  12  15
HETATM   15  C   UNL     1     -10.308   8.187  69.278  1.00  0.00    -0.217 C  
HETATM   16  O   UNL     1     -10.762   7.307  68.553  1.00  0.00    -0.194 OA 
HETATM   17  N   UNL     1      -9.883   7.989  70.583  1.00  0.00    -0.184 N  
HETATM   18  H   UNL     1      -9.495   8.774  71.107  1.00  0.00     0.000 HD 
BRANCH  17  19
HETATM   19  C   UNL     1      -9.978   6.726  71.200  1.00  0.00    -0.181 A  
HETATM   20  C   UNL     1      -9.482   5.631  70.502  1.00  0.00    -0.203 A  
HETATM   21  C   UNL     1      -9.750   4.312  70.913  1.00  0.00    -0.196 A  
HETATM   22  C   UNL     1     -10.596   6.537  72.428  1.00  0.00    -0.242 A  
HETATM   23  C   UNL     1     -10.389   4.121  72.155  1.00  0.00    -0.172 A  
HETATM   24  C   UNL     1     -10.730   2.772  72.729  1.00  0.00    -0.128 C  
HETATM   25  C   UNL     1     -10.766   5.242  72.920  1.00  0.00    -0.301 A  
BRANCH  21  26
HETATM   26  N   UNL     1      -9.489   3.250  70.029  1.00  0.00    -0.177 NA 
HETATM   27  H   UNL     1      -9.973   2.375  70.236  1.00  0.00     0.000 HD 
BRANCH  26  28
HETATM   28  C   UNL     1      -8.657   3.229  68.907  1.00  0.00    -0.080 A  
HETATM   29  N   UNL     1      -7.986   2.098  68.671  1.00  0.00    -0.052 NA 
HETATM   30  C   UNL     1      -7.218   2.069  67.567  1.00  0.00    -0.054 A  
HETATM   31  C   UNL     1      -7.106   3.115  66.679  1.00  0.00    -0.054 A  
HETATM   32  C   UNL     1      -7.824   4.247  66.990  1.00  0.00    -0.097 A  
HETATM   33  N   UNL     1      -8.586   4.296  68.097  1.00  0.00    -0.094 NA 
BRANCH  32  34
HETATM   34  C   UNL     1      -7.842   5.479  66.178  1.00  0.00    -0.100 A  
HETATM   35  C   UNL     1      -7.868   5.470  64.783  1.00  0.00    -0.106 A  
HETATM   36  N   UNL     1      -7.865   6.575  63.993  1.00  0.00    -0.111 NA 
HETATM   37  C   UNL     1      -7.833   7.772  64.624  1.00  0.00    -0.130 A  
HETATM   38  C   UNL     1      -7.799   7.910  65.996  1.00  0.00    -0.095 A  
HETATM   39  C   UNL     1      -7.804   6.754  66.773  1.00  0.00    -0.107 A  
ENDBRANCH  32  34
ENDBRANCH  26  28
ENDBRANCH  21  26
ENDBRANCH  17  19
ENDBRANCH  12  15
ENDBRANCH   8   9
ENDBRANCH   5   8
TORSDOF 7
ENDMDL
MODEL      121
REMARK 921   NORMALIZED FREE ENERGY PREDICTED BY IDOCK:   -3.89 KCAL/MOL
REMARK 922        TOTAL FREE ENERGY PREDICTED BY IDOCK:   -6.64 KCAL/MOL
REMARK 923 INTER-LIGAND FREE ENERGY PREDICTED BY IDOCK:   -5.61 KCAL/MOL
REMARK 924 INTRA-LIGAND FREE ENERGY PREDICTED BY IDOCK:   -1.03 KCAL/MOL
REMARK 927      BINDING AFFINITY PREDICTED BY RF-SCORE:    0.00 PKD
ROOT
HETATM    1  C   UNL     1     -12.429  16.954  73.725  1.00  0.00     0.090 C  
HETATM    2  N   UNL     1     -12.831  15.556  73.566  1.00  0.00    -0.513 NA 
HETATM    3  C   UNL     1     -13.963  15.434  72.627  1.00  0.00    -0.496 C  
HETATM    4  C   UNL     1     -13.583  15.582  71.136  1.00  0.00    -0.382 C  
HETATM    5  N   UNL     1     -12.491  14.683  70.691  1.00  0.00    -0.323 NA 
HETATM    6  C   UNL     1     -11.698  14.725  73.106  1.00  0.00     0.038 C  
HETATM    7  C   UNL     1     -11.346  14.861  71.603  1.00  0.00    -0.135 C  
ENDROOT
BRANCH   5   8
HETATM    8  C   UNL     1     -12.898  13.262  70.616  1.00  0.00    -0.057 C  
BRANCH   8   9
HETATM    9  C   UNL     1     -11.810  12.404  70.004  1.00  0.00    -0.363 A  
HETATM   10  C   UNL     1     -11.153  12.844  68.848  1.00  0.00    -0.301 A  
HETATM   11  C   UNL     1     -10.411  11.945  68.088  1.00  0.00    -0.225 A  
HETATM   12  C   UNL     1     -10.314  10.603  68.478  1.00  0.00    -0.202 A  
HETATM   13  C   UNL     1     -11.596  11.098  70.466  1.00  0.00    -0.287 A  
HETATM   14  C   UNL     1     -10.857  10.193  69.702  1.00  0.00    -0.299 A  
BRANCH  12  15
HETATM   15  C   UNL     1      -9.775   9.640  67.481  1.00  0.00    -0.158 C  
HETATM   16  O   UNL     1     -10.563   9.028  66.766  1.00  0.00    -0.228 OA 
HETATM   17  N   UNL     1      -8.395   9.521  67.412  1.00  0.00    -0.124 N  
HETATM   18  H   UNL     1      -7.813  10.088  68.029  1.00  0.00     0.000 HD 
BRANCH  17  19
HETATM   19  C   UNL     1      -7.781   8.632  66.507  1.00  0.00    -0.095 A  
HETATM   20  C   UNL     1      -7.847   7.274  66.794  1.00  0.00    -0.113 A  
HETATM   21  C   UNL     1      -7.064   6.335  66.099  1.00  0.00    -0.067 A  
HETATM   22  C   UNL     1      -7.072   9.067  65.395  1.00  0.00    -0.081 A  
HETATM   23  C   UNL     1      -6.334   6.779  64.977  1.00  0.00    -0.039 A  
HETATM   24  C   UNL     1      -5.463   5.890  64.132  1.00  0.00    -0.017 C  
HETATM   25  C   UNL     1      -6.384   8.139  64.613  1.00  0.00    -0.056 A  
BRANCH  21  26
HETATM   26  N   UNL     1      -6.937   5.031  66.611  1.00  0.00    -0.066 NA 
HETATM   27  H   UNL     1      -6.164   4.482  66.233  1.00  0.00     0.000 HD 
BRANCH  26  28
HETATM   28  C   UNL     1      -7.725   4.385  67.567  1.00  0.00    -0.085 A  
HETATM   29  N   UNL     1      -8.683   3.571  67.113  1.00  0.00    -0.111 NA 
HETATM   30  C   UNL     1      -9.412   2.921  68.037  1.00  0.00    -0.157 A  
HETATM   31  C   UNL     1      -9.215   3.035  69.395  1.00  0.00    -0.214 A  
HETATM   32  C   UNL     1      -8.213   3.895  69.787  1.00  0.00    -0.053 A  
HETATM   33  N   UNL     1      -7.484   4.562  68.875  1.00  0.00    -0.056 NA 
BRANCH  32  34
HETATM   34  C   UNL     1      -7.840   4.166  71.188  1.00  0.00    -0.071 A  
HETATM   35  C   UNL     1      -8.479   3.567  72.274  1.00  0.00    -0.084 A  
HETATM   36  N   UNL     1      -8.185   3.799  73.580  1.00  0.00    -0.087 NA 
HETATM   37  C   UNL     1      -7.193   4.684  73.831  1.00  0.00    -0.077 A  
HETATM   38  C   UNL     1      -6.492   5.345  72.843  1.00  0.00    -0.064 A  
HETATM   39  C   UNL     1      -6.822   5.080  71.515  1.00  0.00    -0.048 A  
ENDBRANCH  32  34
ENDBRANCH  26  28
ENDBRANCH  21  26
ENDBRANCH  17  19
ENDBRANCH  12  15
ENDBRANCH   8   9
ENDBRANCH   5   8
TORSDOF 7
ENDMDL
MODEL      122
REMARK 921   NORMALIZED FREE ENERGY PREDICTED BY IDOCK:   -3.86 KCAL/MOL
REMARK 922        TOTAL FREE ENERGY PREDICTED BY IDOCK:   -6.59 KCAL/MOL
REMARK 923 INTER-LIGAND FREE ENERGY PREDICTED BY IDOCK:   -5.74 KCAL/MOL
REMARK 924 INTRA-LIGAND FREE ENERGY PREDICTED BY IDOCK:   -0.85 KCAL/MOL
REMARK 927      BINDING AFFINITY PREDICTED BY RF-SCORE:    0.00 PKD
ROOT
HETATM    1  C   UNL     1     -10.971  18.979  65.703  1.00  0.00     0.081 C  
HETATM    2  N   UNL     1     -10.155  19.080  66.914  1.00  0.00    -0.346 NA 
HETATM    3  C   UNL     1      -9.533  17.782  67.242  1.00  0.00    -0.255 C  
HETATM    4  C   UNL     1      -8.322  17.406  66.357  1.00  0.00    -0.267 C  
HETATM    5  N   UNL     1      -7.265  18.443  66.294  1.00  0.00    -0.239 NA 
HETATM    6  C   UNL     1      -9.114  20.120  66.772  1.00  0.00    -0.340 C  
HETATM    7  C   UNL     1      -7.893  19.719  65.907  1.00  0.00    -0.301 C  
ENDROOT
BRANCH   5   8
HETATM    8  C   UNL     1      -6.506  18.582  67.557  1.00  0.00    -0.196 C  
BRANCH   8   9
HETATM    9  C   UNL     1      -6.125  17.231  68.128  1.00  0.00    -0.139 A  
HETATM   10  C   UNL     1      -5.238  16.410  67.421  1.00  0.00    -0.148 A  
HETATM   11  C   UNL     1      -5.142  15.059  67.740  1.00  0.00    -0.035 A  
HETATM   12  C   UNL     1      -5.923  14.519  68.770  1.00  0.00    -0.084 A  
HETATM   13  C   UNL     1      -6.799  16.721  69.246  1.00  0.00    -0.225 A  
HETATM   14  C   UNL     1      -6.708  15.364  69.564  1.00  0.00    -0.174 A  
BRANCH  12  15
HETATM   15  C   UNL     1      -6.004  13.036  68.860  1.00  0.00    -0.079 C  
HETATM   16  O   UNL     1      -5.768  12.371  67.856  1.00  0.00    -0.065 OA 
HETATM   17  N   UNL     1      -6.319  12.504  70.101  1.00  0.00    -0.359 N  
HETATM   18  H   UNL     1      -6.476  13.131  70.889  1.00  0.00     0.000 HD 
BRANCH  17  19
HETATM   19  C   UNL     1      -6.427  11.112  70.293  1.00  0.00    -0.035 A  
HETATM   20  C   UNL     1      -7.631  10.507  69.954  1.00  0.00    -0.053 A  
HETATM   21  C   UNL     1      -7.926   9.186  70.335  1.00  0.00    -0.145 A  
HETATM   22  C   UNL     1      -5.412  10.353  70.861  1.00  0.00    -0.088 A  
HETATM   23  C   UNL     1      -6.898   8.419  70.923  1.00  0.00    -0.047 A  
HETATM   24  C   UNL     1      -7.062   6.992  71.371  1.00  0.00    -0.070 C  
HETATM   25  C   UNL     1      -5.635   9.004  71.138  1.00  0.00    -0.043 A  
BRANCH  21  26
HETATM   26  N   UNL     1      -9.249   8.719  70.235  1.00  0.00    -0.164 NA 
HETATM   27  H   UNL     1      -9.919   9.151  70.872  1.00  0.00     0.000 HD 
BRANCH  26  28
HETATM   28  C   UNL     1      -9.771   7.745  69.381  1.00  0.00    -0.169 A  
HETATM   29  N   UNL     1     -10.845   7.075  69.809  1.00  0.00    -0.240 NA 
HETATM   30  C   UNL     1     -11.368   6.167  68.966  1.00  0.00    -0.183 A  
HETATM   31  C   UNL     1     -10.875   5.911  67.707  1.00  0.00    -0.326 A  
HETATM   32  C   UNL     1      -9.765   6.637  67.336  1.00  0.00    -0.128 A  
HETATM   33  N   UNL     1      -9.223   7.539  68.173  1.00  0.00    -0.138 NA 
BRANCH  32  34
HETATM   34  C   UNL     1      -9.079   6.515  66.037  1.00  0.00    -0.111 A  
HETATM   35  C   UNL     1      -8.525   7.604  65.364  1.00  0.00    -0.098 A  
HETATM   36  N   UNL     1      -7.902   7.546  64.159  1.00  0.00    -0.134 NA 
HETATM   37  C   UNL     1      -7.820   6.327  63.576  1.00  0.00    -0.113 A  
HETATM   38  C   UNL     1      -8.335   5.177  64.138  1.00  0.00    -0.137 A  
HETATM   39  C   UNL     1      -8.966   5.277  65.376  1.00  0.00    -0.147 A  
ENDBRANCH  32  34
ENDBRANCH  26  28
ENDBRANCH  21  26
ENDBRANCH  17  19
ENDBRANCH  12  15
ENDBRANCH   8   9
ENDBRANCH   5   8
TORSDOF 7
ENDMDL
MODEL      123
REMARK 921   NORMALIZED FREE ENERGY PREDICTED BY IDOCK:   -3.86 KCAL/MOL
REMARK 922        TOTAL FREE ENERGY PREDICTED BY IDOCK:   -6.59 KCAL/MOL
REMARK 923 INTER-LIGAND FREE ENERGY PREDICTED BY IDOCK:   -6.29 KCAL/MOL
REMARK 924 INTRA-LIGAND FREE ENERGY PREDICTED BY IDOCK:   -0.29 KCAL/MOL
REMARK 927      BINDING AFFINITY PREDICTED BY RF-SCORE:    0.00 PKD
ROOT
HETATM    1  C   UNL     1     -12.032  17.356  73.585  1.00  0.00     0.569 C  
HETATM    2  N   UNL     1     -12.196  15.902  73.615  1.00  0.00    -0.499 NA 
HETATM    3  C   UNL     1     -13.604  15.523  73.383  1.00  0.00    -0.137 C  
HETATM    4  C   UNL     1     -14.066  15.630  71.912  1.00  0.00    -0.372 C  
HETATM    5  N   UNL     1     -13.208  14.902  70.947  1.00  0.00    -0.379 NA 
HETATM    6  C   UNL     1     -11.324  15.247  72.617  1.00  0.00    -0.134 C  
HETATM    7  C   UNL     1     -11.814  15.335  71.150  1.00  0.00    -0.348 C  
ENDROOT
BRANCH   5   8
HETATM    8  C   UNL     1     -13.331  13.430  71.050  1.00  0.00     0.061 C  
BRANCH   8   9
HETATM    9  C   UNL     1     -12.276  12.725  70.222  1.00  0.00    -0.351 A  
HETATM   10  C   UNL     1     -12.014  13.167  68.919  1.00  0.00    -0.317 A  
HETATM   11  C   UNL     1     -11.318  12.347  68.036  1.00  0.00    -0.340 A  
HETATM   12  C   UNL     1     -10.872  11.084  68.448  1.00  0.00    -0.264 A  
HETATM   13  C   UNL     1     -11.709  11.525  70.672  1.00  0.00    -0.133 A  
HETATM   14  C   UNL     1     -11.015  10.699  69.787  1.00  0.00    -0.340 A  
BRANCH  12  15
HETATM   15  C   UNL     1     -10.413  10.145  67.390  1.00  0.00    -0.256 C  
HETATM   16  O   UNL     1     -10.803   8.981  67.425  1.00  0.00    -0.230 OA 
HETATM   17  N   UNL     1      -9.584  10.667  66.410  1.00  0.00    -0.184 N  
HETATM   18  H   UNL     1      -9.328  11.655  66.444  1.00  0.00     0.000 HD 
BRANCH  17  19
HETATM   19  C   UNL     1      -9.087   9.861  65.366  1.00  0.00    -0.196 A  
HETATM   20  C   UNL     1      -8.681   8.572  65.687  1.00  0.00    -0.213 A  
HETATM   21  C   UNL     1      -7.947   7.783  64.782  1.00  0.00    -0.142 A  
HETATM   22  C   UNL     1      -8.932  10.328  64.068  1.00  0.00    -0.261 A  
HETATM   23  C   UNL     1      -7.780   8.263  63.467  1.00  0.00    -0.142 A  
HETATM   24  C   UNL     1      -7.030   7.527  62.389  1.00  0.00    -0.075 C  
HETATM   25  C   UNL     1      -8.316   9.517  63.114  1.00  0.00    -0.180 A  
BRANCH  21  26
HETATM   26  N   UNL     1      -7.308   6.619  65.245  1.00  0.00    -0.077 NA 
HETATM   27  H   UNL     1      -6.291   6.669  65.308  1.00  0.00     0.000 HD 
BRANCH  26  28
HETATM   28  C   UNL     1      -7.877   5.402  65.631  1.00  0.00    -0.100 A  
HETATM   29  N   UNL     1      -8.419   4.654  64.666  1.00  0.00    -0.128 NA 
HETATM   30  C   UNL     1      -8.929   3.465  65.036  1.00  0.00    -0.135 A  
HETATM   31  C   UNL     1      -8.904   2.985  66.326  1.00  0.00    -0.144 A  
HETATM   32  C   UNL     1      -8.333   3.813  67.266  1.00  0.00    -0.098 A  
HETATM   33  N   UNL     1      -7.831   5.010  66.913  1.00  0.00    -0.096 NA 
BRANCH  32  34
HETATM   34  C   UNL     1      -8.209   3.495  68.700  1.00  0.00    -0.081 A  
HETATM   35  C   UNL     1      -7.015   3.072  69.285  1.00  0.00    -0.041 A  
HETATM   36  N   UNL     1      -6.856   2.748  70.595  1.00  0.00    -0.032 NA 
HETATM   37  C   UNL     1      -7.952   2.847  71.382  1.00  0.00    -0.051 A  
HETATM   38  C   UNL     1      -9.190   3.247  70.920  1.00  0.00    -0.202 A  
HETATM   39  C   UNL     1      -9.313   3.572  69.570  1.00  0.00    -0.243 A  
ENDBRANCH  32  34
ENDBRANCH  26  28
ENDBRANCH  21  26
ENDBRANCH  17  19
ENDBRANCH  12  15
ENDBRANCH   8   9
ENDBRANCH   5   8
TORSDOF 7
ENDMDL
MODEL      124
REMARK 921   NORMALIZED FREE ENERGY PREDICTED BY IDOCK:   -3.80 KCAL/MOL
REMARK 922        TOTAL FREE ENERGY PREDICTED BY IDOCK:   -6.51 KCAL/MOL
REMARK 923 INTER-LIGAND FREE ENERGY PREDICTED BY IDOCK:   -6.65 KCAL/MOL
REMARK 924 INTRA-LIGAND FREE ENERGY PREDICTED BY IDOCK:    0.14 KCAL/MOL
REMARK 927      BINDING AFFINITY PREDICTED BY RF-SCORE:    0.00 PKD
ROOT
HETATM    1  C   UNL     1     -11.528   5.700  72.335  1.00  0.00    -0.251 C  
HETATM    2  N   UNL     1     -10.567   6.795  72.472  1.00  0.00    -0.213 NA 
HETATM    3  C   UNL     1      -9.278   6.305  72.996  1.00  0.00    -0.132 C  
HETATM    4  C   UNL     1      -8.405   5.557  71.961  1.00  0.00    -0.122 C  
HETATM    5  N   UNL     1      -8.160   6.311  70.709  1.00  0.00    -0.118 NA 
HETATM    6  C   UNL     1     -10.362   7.488  71.183  1.00  0.00    -0.200 C  
HETATM    7  C   UNL     1      -9.461   6.742  70.167  1.00  0.00    -0.158 C  
ENDROOT
BRANCH   5   8
HETATM    8  C   UNL     1      -7.248   7.464  70.889  1.00  0.00    -0.068 C  
BRANCH   8   9
HETATM    9  C   UNL     1      -7.546   8.568  69.896  1.00  0.00    -0.071 A  
HETATM   10  C   UNL     1      -8.060   9.787  70.354  1.00  0.00    -0.134 A  
HETATM   11  C   UNL     1      -8.652  10.671  69.457  1.00  0.00     0.023 A  
HETATM   12  C   UNL     1      -8.729  10.349  68.096  1.00  0.00    -0.125 A  
HETATM   13  C   UNL     1      -7.498   8.312  68.519  1.00  0.00    -0.095 A  
HETATM   14  C   UNL     1      -8.095   9.195  67.618  1.00  0.00    -0.104 A  
BRANCH  12  15
HETATM   15  C   UNL     1      -9.629  11.176  67.248  1.00  0.00    -0.165 C  
HETATM   16  O   UNL     1     -10.841  10.996  67.326  1.00  0.00    -0.248 OA 
HETATM   17  N   UNL     1      -9.024  12.124  66.438  1.00  0.00    -0.327 N  
HETATM   18  H   UNL     1      -8.009  12.222  66.454  1.00  0.00     0.000 HD 
BRANCH  17  19
HETATM   19  C   UNL     1      -9.785  12.955  65.591  1.00  0.00    -0.105 A  
HETATM   20  C   UNL     1      -9.678  14.328  65.773  1.00  0.00    -0.264 A  
HETATM   21  C   UNL     1     -10.571  15.225  65.158  1.00  0.00    -0.430 A  
HETATM   22  C   UNL     1     -10.669  12.452  64.646  1.00  0.00    -0.339 A  
HETATM   23  C   UNL     1     -11.477  14.712  64.206  1.00  0.00    -0.174 A  
HETATM   24  C   UNL     1     -12.481  15.550  63.461  1.00  0.00     1.205 C  
HETATM   25  C   UNL     1     -11.482  13.331  63.929  1.00  0.00    -0.409 A  
BRANCH  21  26
HETATM   26  N   UNL     1     -10.616  16.561  65.595  1.00  0.00    -0.418 NA 
HETATM   27  H   UNL     1     -11.176  17.194  65.025  1.00  0.00     0.000 HD 
BRANCH  26  28
HETATM   28  C   UNL     1      -9.997  17.139  66.706  1.00  0.00    -0.291 A  
HETATM   29  N   UNL     1     -10.387  16.709  67.910  1.00  0.00    -0.298 NA 
HETATM   30  C   UNL     1      -9.759  17.239  68.975  1.00  0.00    -0.201 A  
HETATM   31  C   UNL     1      -8.746  18.168  68.888  1.00  0.00    -0.129 A  
HETATM   32  C   UNL     1      -8.401  18.565  67.616  1.00  0.00    -0.255 A  
HETATM   33  N   UNL     1      -9.028  18.053  66.542  1.00  0.00    -0.297 NA 
BRANCH  32  34
HETATM   34  C   UNL     1      -7.348  19.549  67.301  1.00  0.00    -0.249 A  
HETATM   35  C   UNL     1      -7.011  19.910  65.997  1.00  0.00    -0.272 A  
HETATM   36  N   UNL     1      -6.038  20.795  65.656  1.00  0.00    -0.228 NA 
HETATM   37  C   UNL     1      -5.349  21.361  66.674  1.00  0.00    -0.280 A  
HETATM   38  C   UNL     1      -5.585  21.079  68.005  1.00  0.00    -0.373 A  
HETATM   39  C   UNL     1      -6.592  20.168  68.314  1.00  0.00    -0.329 A  
ENDBRANCH  32  34
ENDBRANCH  26  28
ENDBRANCH  21  26
ENDBRANCH  17  19
ENDBRANCH  12  15
ENDBRANCH   8   9
ENDBRANCH   5   8
TORSDOF 7
ENDMDL
MODEL      125
REMARK 921   NORMALIZED FREE ENERGY PREDICTED BY IDOCK:   -3.58 KCAL/MOL
REMARK 922        TOTAL FREE ENERGY PREDICTED BY IDOCK:   -6.20 KCAL/MOL
REMARK 923 INTER-LIGAND FREE ENERGY PREDICTED BY IDOCK:   -5.47 KCAL/MOL
REMARK 924 INTRA-LIGAND FREE ENERGY PREDICTED BY IDOCK:   -0.73 KCAL/MOL
REMARK 927      BINDING AFFINITY PREDICTED BY RF-SCORE:    0.00 PKD
ROOT
HETATM    1  C   UNL     1      -9.686  20.948  67.814  1.00  0.00    -0.062 C  
HETATM    2  N   UNL     1      -8.809  19.972  67.166  1.00  0.00    -0.331 NA 
HETATM    3  C   UNL     1      -8.553  18.820  68.053  1.00  0.00    -0.297 C  
HETATM    4  C   UNL     1      -9.726  17.819  68.162  1.00  0.00    -0.313 C  
HETATM    5  N   UNL     1     -10.228  17.321  66.860  1.00  0.00    -0.314 NA 
HETATM    6  C   UNL     1      -9.381  19.509  65.884  1.00  0.00    -0.095 C  
HETATM    7  C   UNL     1     -10.536  18.483  66.008  1.00  0.00    -0.400 C  
ENDROOT
BRANCH   5   8
HETATM    8  C   UNL     1      -9.288  16.397  66.186  1.00  0.00    -0.325 C  
BRANCH   8   9
HETATM    9  C   UNL     1      -8.919  15.230  67.078  1.00  0.00    -0.254 A  
HETATM   10  C   UNL     1      -7.583  15.046  67.455  1.00  0.00    -0.216 A  
HETATM   11  C   UNL     1      -7.172  13.822  67.974  1.00  0.00    -0.137 A  
HETATM   12  C   UNL     1      -8.091  12.776  68.129  1.00  0.00    -0.158 A  
HETATM   13  C   UNL     1      -9.862  14.233  67.364  1.00  0.00    -0.235 A  
HETATM   14  C   UNL     1      -9.450  13.003  67.880  1.00  0.00    -0.219 A  
BRANCH  12  15
HETATM   15  C   UNL     1      -7.543  11.419  68.394  1.00  0.00    -0.123 C  
HETATM   16  O   UNL     1      -6.327  11.285  68.505  1.00  0.00    -0.046 OA 
HETATM   17  N   UNL     1      -8.462  10.390  68.527  1.00  0.00    -0.122 N  
HETATM   18  H   UNL     1      -9.458  10.596  68.443  1.00  0.00     0.000 HD 
BRANCH  17  19
HETATM   19  C   UNL     1      -8.048   9.066  68.773  1.00  0.00    -0.105 A  
HETATM   20  C   UNL     1      -7.730   8.724  70.082  1.00  0.00    -0.084 A  
HETATM   21  C   UNL     1      -7.076   7.518  70.391  1.00  0.00    -0.059 A  
HETATM   22  C   UNL     1      -7.889   8.131  67.759  1.00  0.00    -0.118 A  
HETATM   23  C   UNL     1      -6.904   6.573  69.358  1.00  0.00    -0.065 A  
HETATM   24  C   UNL     1      -6.233   5.238  69.540  1.00  0.00    -0.026 C  
HETATM   25  C   UNL     1      -7.355   6.876  68.058  1.00  0.00    -0.097 A  
BRANCH  21  26
HETATM   26  N   UNL     1      -6.513   7.347  71.668  1.00  0.00    -0.040 NA 
HETATM   27  H   UNL     1      -5.990   8.146  72.030  1.00  0.00     0.000 HD 
BRANCH  26  28
HETATM   28  C   UNL     1      -6.572   6.234  72.509  1.00  0.00    -0.064 A  
HETATM   29  N   UNL     1      -5.477   5.954  73.223  1.00  0.00    -0.034 NA 
HETATM   30  C   UNL     1      -5.553   4.905  74.062  1.00  0.00    -0.018 A  
HETATM   31  C   UNL     1      -6.681   4.134  74.231  1.00  0.00    -0.054 A  
HETATM   32  C   UNL     1      -7.768   4.480  73.459  1.00  0.00    -0.087 A  
HETATM   33  N   UNL     1      -7.703   5.518  72.607  1.00  0.00    -0.098 NA 
BRANCH  32  34
HETATM   34  C   UNL     1      -9.068   3.785  73.482  1.00  0.00    -0.099 A  
HETATM   35  C   UNL     1     -10.290   4.457  73.442  1.00  0.00    -0.175 A  
HETATM   36  N   UNL     1     -11.511   3.864  73.481  1.00  0.00    -0.184 NA 
HETATM   37  C   UNL     1     -11.528   2.513  73.567  1.00  0.00    -0.155 A  
HETATM   38  C   UNL     1     -10.387   1.738  73.621  1.00  0.00    -0.170 A  
HETATM   39  C   UNL     1      -9.153   2.384  73.577  1.00  0.00    -0.087 A  
ENDBRANCH  32  34
ENDBRANCH  26  28
ENDBRANCH  21  26
ENDBRANCH  17  19
ENDBRANCH  12  15
ENDBRANCH   8   9
ENDBRANCH   5   8
TORSDOF 7
ENDMDL
MODEL      126
REMARK 921   NORMALIZED FREE ENERGY PREDICTED BY IDOCK:   -3.54 KCAL/MOL
REMARK 922        TOTAL FREE ENERGY PREDICTED BY IDOCK:   -6.15 KCAL/MOL
REMARK 923 INTER-LIGAND FREE ENERGY PREDICTED BY IDOCK:   -6.16 KCAL/MOL
REMARK 924 INTRA-LIGAND FREE ENERGY PREDICTED BY IDOCK:    0.01 KCAL/MOL
REMARK 927      BINDING AFFINITY PREDICTED BY RF-SCORE:    0.00 PKD
ROOT
HETATM    1  C   UNL     1     -10.308   2.764  64.402  1.00  0.00     0.147 C  
HETATM    2  N   UNL     1      -8.882   2.865  64.718  1.00  0.00    -0.110 NA 
HETATM    3  C   UNL     1      -8.068   2.132  63.728  1.00  0.00    -0.080 C  
HETATM    4  C   UNL     1      -7.904   2.851  62.370  1.00  0.00    -0.062 C  
HETATM    5  N   UNL     1      -7.400   4.241  62.470  1.00  0.00    -0.043 NA 
HETATM    6  C   UNL     1      -8.449   4.277  64.785  1.00  0.00    -0.119 C  
HETATM    7  C   UNL     1      -8.260   4.976  63.416  1.00  0.00    -0.109 C  
ENDROOT
BRANCH   5   8
HETATM    8  C   UNL     1      -5.977   4.320  62.870  1.00  0.00    -0.017 C  
BRANCH   8   9
HETATM    9  C   UNL     1      -5.593   5.726  63.283  1.00  0.00    -0.017 A  
HETATM   10  C   UNL     1      -5.220   5.977  64.610  1.00  0.00    -0.017 A  
HETATM   11  C   UNL     1      -5.197   7.283  65.088  1.00  0.00    -0.028 A  
HETATM   12  C   UNL     1      -5.539   8.350  64.245  1.00  0.00    -0.059 A  
HETATM   13  C   UNL     1      -5.797   6.801  62.407  1.00  0.00    -0.039 A  
HETATM   14  C   UNL     1      -5.780   8.112  62.886  1.00  0.00    -0.072 A  
BRANCH  12  15
HETATM   15  C   UNL     1      -5.791   9.670  64.883  1.00  0.00    -0.075 C  
HETATM   16  O   UNL     1      -5.533  10.689  64.249  1.00  0.00    -0.151 OA 
HETATM   17  N   UNL     1      -6.333   9.652  66.159  1.00  0.00    -0.068 N  
HETATM   18  H   UNL     1      -6.539   8.757  66.603  1.00  0.00     0.000 HD 
BRANCH  17  19
HETATM   19  C   UNL     1      -6.604  10.847  66.855  1.00  0.00    -0.101 A  
HETATM   20  C   UNL     1      -7.892  11.361  66.772  1.00  0.00    -0.157 A  
HETATM   21  C   UNL     1      -8.197  12.661  67.217  1.00  0.00    -0.184 A  
HETATM   22  C   UNL     1      -5.627  11.546  67.551  1.00  0.00    -0.062 A  
HETATM   23  C   UNL     1      -7.200  13.375  67.914  1.00  0.00    -0.133 A  
HETATM   24  C   UNL     1      -7.384  14.767  68.456  1.00  0.00    -0.118 C  
HETATM   25  C   UNL     1      -5.936  12.786  68.111  1.00  0.00    -0.086 A  
BRANCH  21  26
HETATM   26  N   UNL     1      -9.423  13.245  66.849  1.00  0.00    -0.242 NA 
HETATM   27  H   UNL     1      -9.885  12.827  66.041  1.00  0.00     0.000 HD 
BRANCH  26  28
HETATM   28  C   UNL     1     -10.094  14.318  67.440  1.00  0.00    -0.247 A  
HETATM   29  N   UNL     1      -9.994  15.504  66.833  1.00  0.00    -0.242 NA 
HETATM   30  C   UNL     1     -10.675  16.525  67.383  1.00  0.00    -0.260 A  
HETATM   31  C   UNL     1     -11.465  16.408  68.504  1.00  0.00    -0.209 A  
HETATM   32  C   UNL     1     -11.516  15.157  69.077  1.00  0.00    -0.309 A  
HETATM   33  N   UNL     1     -10.831  14.129  68.545  1.00  0.00    -0.244 NA 
BRANCH  32  34
HETATM   34  C   UNL     1     -12.297  14.817  70.281  1.00  0.00    -0.400 A  
HETATM   35  C   UNL     1     -12.724  15.770  71.205  1.00  0.00    -0.438 A  
HETATM   36  N   UNL     1     -13.427  15.504  72.337  1.00  0.00    -0.465 NA 
HETATM   37  C   UNL     1     -13.728  14.206  72.573  1.00  0.00    -0.522 A  
HETATM   38  C   UNL     1     -13.356  13.172  71.738  1.00  0.00    -0.477 A  
HETATM   39  C   UNL     1     -12.637  13.486  70.586  1.00  0.00    -0.345 A  
ENDBRANCH  32  34
ENDBRANCH  26  28
ENDBRANCH  21  26
ENDBRANCH  17  19
ENDBRANCH  12  15
ENDBRANCH   8   9
ENDBRANCH   5   8
TORSDOF 7
ENDMDL
MODEL      127
REMARK 921   NORMALIZED FREE ENERGY PREDICTED BY IDOCK:   -3.50 KCAL/MOL
REMARK 922        TOTAL FREE ENERGY PREDICTED BY IDOCK:   -6.08 KCAL/MOL
REMARK 923 INTER-LIGAND FREE ENERGY PREDICTED BY IDOCK:   -5.40 KCAL/MOL
REMARK 924 INTRA-LIGAND FREE ENERGY PREDICTED BY IDOCK:   -0.68 KCAL/MOL
REMARK 927      BINDING AFFINITY PREDICTED BY RF-SCORE:    0.00 PKD
ROOT
HETATM    1  C   UNL     1      -9.380   1.842  65.348  1.00  0.00     0.030 C  
HETATM    2  N   UNL     1      -9.071   2.982  66.213  1.00  0.00    -0.150 NA 
HETATM    3  C   UNL     1      -7.616   3.221  66.274  1.00  0.00    -0.077 C  
HETATM    4  C   UNL     1      -7.023   3.905  65.020  1.00  0.00    -0.054 C  
HETATM    5  N   UNL     1      -7.702   5.165  64.633  1.00  0.00    -0.082 NA 
HETATM    6  C   UNL     1      -9.768   4.202  65.756  1.00  0.00    -0.204 C  
HETATM    7  C   UNL     1      -9.146   4.894  64.517  1.00  0.00    -0.053 C  
ENDROOT
BRANCH   5   8
HETATM    8  C   UNL     1      -7.440   6.282  65.568  1.00  0.00    -0.083 C  
BRANCH   8   9
HETATM    9  C   UNL     1      -8.455   7.395  65.402  1.00  0.00    -0.101 A  
HETATM   10  C   UNL     1      -8.315   8.304  64.346  1.00  0.00    -0.082 A  
HETATM   11  C   UNL     1      -9.013   9.507  64.370  1.00  0.00    -0.255 A  
HETATM   12  C   UNL     1      -9.861   9.810  65.444  1.00  0.00    -0.365 A  
HETATM   13  C   UNL     1      -9.408   7.637  66.401  1.00  0.00    -0.228 A  
HETATM   14  C   UNL     1     -10.105   8.846  66.430  1.00  0.00    -0.333 A  
BRANCH  12  15
HETATM   15  C   UNL     1     -10.334  11.215  65.565  1.00  0.00    -0.268 C  
HETATM   16  O   UNL     1     -10.765  11.780  64.565  1.00  0.00    -0.283 OA 
HETATM   17  N   UNL     1     -10.277  11.784  66.828  1.00  0.00    -0.208 N  
HETATM   18  H   UNL     1      -9.925  11.232  67.610  1.00  0.00     0.000 HD 
BRANCH  17  19
HETATM   19  C   UNL     1     -10.694  13.112  67.051  1.00  0.00    -0.262 A  
HETATM   20  C   UNL     1     -10.004  14.122  66.392  1.00  0.00    -0.302 A  
HETATM   21  C   UNL     1     -10.174  15.476  66.734  1.00  0.00    -0.280 A  
HETATM   22  C   UNL     1     -11.708  13.439  67.940  1.00  0.00    -0.396 A  
HETATM   23  C   UNL     1     -11.198  15.806  67.646  1.00  0.00    -0.246 A  
HETATM   24  C   UNL     1     -11.504  17.209  68.098  1.00  0.00     0.396 C  
HETATM   25  C   UNL     1     -11.984  14.780  68.206  1.00  0.00    -0.258 A  
BRANCH  21  26
HETATM   26  N   UNL     1      -9.254  16.428  66.258  1.00  0.00    -0.292 NA 
HETATM   27  H   UNL     1      -9.583  17.014  65.491  1.00  0.00     0.000 HD 
BRANCH  26  28
HETATM   28  C   UNL     1      -7.951  16.679  66.695  1.00  0.00    -0.280 A  
HETATM   29  N   UNL     1      -7.181  17.431  65.903  1.00  0.00    -0.374 NA 
HETATM   30  C   UNL     1      -5.941  17.704  66.346  1.00  0.00    -0.209 A  
HETATM   31  C   UNL     1      -5.443  17.273  67.555  1.00  0.00    -0.144 A  
HETATM   32  C   UNL     1      -6.293  16.500  68.315  1.00  0.00    -0.127 A  
HETATM   33  N   UNL     1      -7.531  16.208  67.879  1.00  0.00    -0.124 NA 
BRANCH  32  34
HETATM   34  C   UNL     1      -5.958  15.935  69.635  1.00  0.00    -0.154 A  
HETATM   35  C   UNL     1      -5.831  14.565  69.866  1.00  0.00    -0.122 A  
HETATM   36  N   UNL     1      -5.544  13.997  71.066  1.00  0.00    -0.179 NA 
HETATM   37  C   UNL     1      -5.372  14.839  72.111  1.00  0.00    -0.022 A  
HETATM   38  C   UNL     1      -5.479  16.212  72.011  1.00  0.00     0.622 A  
HETATM   39  C   UNL     1      -5.773  16.757  70.763  1.00  0.00     0.153 A  
ENDBRANCH  32  34
ENDBRANCH  26  28
ENDBRANCH  21  26
ENDBRANCH  17  19
ENDBRANCH  12  15
ENDBRANCH   8   9
ENDBRANCH   5   8
TORSDOF 7
ENDMDL
MODEL      128
REMARK 921   NORMALIZED FREE ENERGY PREDICTED BY IDOCK:   -3.45 KCAL/MOL
REMARK 922        TOTAL FREE ENERGY PREDICTED BY IDOCK:   -6.01 KCAL/MOL
REMARK 923 INTER-LIGAND FREE ENERGY PREDICTED BY IDOCK:   -6.14 KCAL/MOL
REMARK 924 INTRA-LIGAND FREE ENERGY PREDICTED BY IDOCK:    0.14 KCAL/MOL
REMARK 927      BINDING AFFINITY PREDICTED BY RF-SCORE:    0.00 PKD
ROOT
HETATM    1  C   UNL     1      -9.963  19.214  66.203  1.00  0.00    -0.381 C  
HETATM    2  N   UNL     1      -9.296  18.860  67.457  1.00  0.00    -0.292 NA 
HETATM    3  C   UNL     1      -8.829  17.461  67.432  1.00  0.00    -0.227 C  
HETATM    4  C   UNL     1      -7.554  17.222  66.589  1.00  0.00    -0.258 C  
HETATM    5  N   UNL     1      -6.415  18.103  66.941  1.00  0.00    -0.174 NA 
HETATM    6  C   UNL     1      -8.163  19.769  67.733  1.00  0.00    -0.305 C  
HETATM    7  C   UNL     1      -6.883  19.500  66.903  1.00  0.00    -0.196 C  
ENDROOT
BRANCH   5   8
HETATM    8  C   UNL     1      -5.808  17.778  68.251  1.00  0.00    -0.162 C  
BRANCH   8   9
HETATM    9  C   UNL     1      -5.898  16.296  68.553  1.00  0.00    -0.109 A  
HETATM   10  C   UNL     1      -5.640  15.368  67.537  1.00  0.00    -0.003 A  
HETATM   11  C   UNL     1      -6.041  14.044  67.688  1.00  0.00    -0.078 A  
HETATM   12  C   UNL     1      -6.697  13.635  68.857  1.00  0.00    -0.108 A  
HETATM   13  C   UNL     1      -6.425  15.855  69.775  1.00  0.00    -0.163 A  
HETATM   14  C   UNL     1      -6.834  14.528  69.927  1.00  0.00    -0.097 A  
BRANCH  12  15
HETATM   15  C   UNL     1      -7.364  12.306  68.835  1.00  0.00    -0.041 C  
HETATM   16  O   UNL     1      -7.086  11.492  69.711  1.00  0.00    -0.012 OA 
HETATM   17  N   UNL     1      -8.289  12.090  67.825  1.00  0.00    -0.146 N  
HETATM   18  H   UNL     1      -8.477  12.833  67.152  1.00  0.00     0.000 HD 
BRANCH  17  19
HETATM   19  C   UNL     1      -8.973  10.863  67.710  1.00  0.00    -0.139 A  
HETATM   20  C   UNL     1      -8.254   9.700  67.958  1.00  0.00    -0.110 A  
HETATM   21  C   UNL     1      -8.767   8.431  67.631  1.00  0.00    -0.137 A  
HETATM   22  C   UNL     1     -10.297  10.779  67.301  1.00  0.00    -0.262 A  
HETATM   23  C   UNL     1     -10.109   8.349  67.204  1.00  0.00    -0.335 A  
HETATM   24  C   UNL     1     -10.797   7.063  66.831  1.00  0.00    -0.350 C  
HETATM   25  C   UNL     1     -10.873   9.526  67.087  1.00  0.00    -0.156 A  
BRANCH  21  26
HETATM   26  N   UNL     1      -7.904   7.321  67.620  1.00  0.00    -0.111 NA 
HETATM   27  H   UNL     1      -7.324   7.221  66.787  1.00  0.00     0.000 HD 
BRANCH  26  28
HETATM   28  C   UNL     1      -7.733   6.337  68.596  1.00  0.00    -0.101 A  
HETATM   29  N   UNL     1      -6.835   5.381  68.342  1.00  0.00    -0.054 NA 
HETATM   30  C   UNL     1      -6.644   4.458  69.302  1.00  0.00    -0.040 A  
HETATM   31  C   UNL     1      -7.300   4.460  70.513  1.00  0.00    -0.049 A  
HETATM   32  C   UNL     1      -8.213   5.473  70.701  1.00  0.00    -0.116 A  
HETATM   33  N   UNL     1      -8.423   6.395  69.746  1.00  0.00    -0.126 NA 
BRANCH  32  34
HETATM   34  C   UNL     1      -9.023   5.656  71.920  1.00  0.00    -0.144 A  
HETATM   35  C   UNL     1      -8.700   6.577  72.917  1.00  0.00    -0.123 A  
HETATM   36  N   UNL     1      -9.402   6.769  74.063  1.00  0.00    -0.190 NA 
HETATM   37  C   UNL     1     -10.499   5.995  74.240  1.00  0.00    -0.199 A  
HETATM   38  C   UNL     1     -10.916   5.045  73.330  1.00  0.00    -0.393 A  
HETATM   39  C   UNL     1     -10.171   4.879  72.165  1.00  0.00    -0.257 A  
ENDBRANCH  32  34
ENDBRANCH  26  28
ENDBRANCH  21  26
ENDBRANCH  17  19
ENDBRANCH  12  15
ENDBRANCH   8   9
ENDBRANCH   5   8
TORSDOF 7
ENDMDL
MODEL      129
REMARK 921   NORMALIZED FREE ENERGY PREDICTED BY IDOCK:   -3.44 KCAL/MOL
REMARK 922        TOTAL FREE ENERGY PREDICTED BY IDOCK:   -6.00 KCAL/MOL
REMARK 923 INTER-LIGAND FREE ENERGY PREDICTED BY IDOCK:   -5.34 KCAL/MOL
REMARK 924 INTRA-LIGAND FREE ENERGY PREDICTED BY IDOCK:   -0.66 KCAL/MOL
REMARK 927      BINDING AFFINITY PREDICTED BY RF-SCORE:    0.00 PKD
ROOT
HETATM    1  C   UNL     1      -8.080   1.792  66.585  1.00  0.00    -0.075 C  
HETATM    2  N   UNL     1      -8.973   2.670  67.342  1.00  0.00    -0.145 NA 
HETATM    3  C   UNL     1      -8.260   3.306  68.467  1.00  0.00    -0.068 C  
HETATM    4  C   UNL     1      -7.323   4.468  68.062  1.00  0.00    -0.065 C  
HETATM    5  N   UNL     1      -7.973   5.522  67.248  1.00  0.00    -0.101 NA 
HETATM    6  C   UNL     1      -9.569   3.704  66.470  1.00  0.00    -0.138 C  
HETATM    7  C   UNL     1      -8.629   4.877  66.096  1.00  0.00    -0.116 C  
ENDROOT
BRANCH   5   8
HETATM    8  C   UNL     1      -8.933   6.346  68.017  1.00  0.00    -0.115 C  
BRANCH   8   9
HETATM    9  C   UNL     1      -9.449   7.509  67.195  1.00  0.00    -0.194 A  
HETATM   10  C   UNL     1      -8.806   7.847  65.998  1.00  0.00    -0.191 A  
HETATM   11  C   UNL     1      -9.037   9.088  65.413  1.00  0.00    -0.250 A  
HETATM   12  C   UNL     1      -9.915  10.000  66.015  1.00  0.00    -0.334 A  
HETATM   13  C   UNL     1     -10.431   8.363  67.718  1.00  0.00    -0.284 A  
HETATM   14  C   UNL     1     -10.659   9.612  67.136  1.00  0.00    -0.298 A  
BRANCH  12  15
HETATM   15  C   UNL     1      -9.887  11.402  65.521  1.00  0.00    -0.231 C  
HETATM   16  O   UNL     1      -9.220  11.663  64.524  1.00  0.00    -0.025 OA 
HETATM   17  N   UNL     1     -10.651  12.324  66.219  1.00  0.00    -0.245 N  
HETATM   18  H   UNL     1     -11.195  12.015  67.025  1.00  0.00     0.000 HD 
BRANCH  17  19
HETATM   19  C   UNL     1     -10.689  13.681  65.839  1.00  0.00    -0.281 A  
HETATM   20  C   UNL     1      -9.648  14.497  66.262  1.00  0.00    -0.328 A  
HETATM   21  C   UNL     1      -9.717  15.898  66.151  1.00  0.00    -0.321 A  
HETATM   22  C   UNL     1     -11.746  14.229  65.125  1.00  0.00    -0.368 A  
HETATM   23  C   UNL     1     -10.797  16.455  65.436  1.00  0.00    -0.249 A  
HETATM   24  C   UNL     1     -10.998  17.931  65.226  1.00  0.00     0.460 C  
HETATM   25  C   UNL     1     -11.779  15.604  64.891  1.00  0.00    -0.055 A  
BRANCH  21  26
HETATM   26  N   UNL     1      -8.790  16.691  66.851  1.00  0.00    -0.199 NA 
HETATM   27  H   UNL     1      -8.872  17.697  66.707  1.00  0.00     0.000 HD 
BRANCH  26  28
HETATM   28  C   UNL     1      -7.772  16.287  67.718  1.00  0.00    -0.142 A  
HETATM   29  N   UNL     1      -7.057  17.252  68.305  1.00  0.00    -0.189 NA 
HETATM   30  C   UNL     1      -6.105  16.859  69.170  1.00  0.00    -0.184 A  
HETATM   31  C   UNL     1      -5.848  15.544  69.488  1.00  0.00    -0.121 A  
HETATM   32  C   UNL     1      -6.622  14.606  68.841  1.00  0.00    -0.093 A  
HETATM   33  N   UNL     1      -7.569  14.983  67.964  1.00  0.00    -0.110 NA 
BRANCH  32  34
HETATM   34  C   UNL     1      -6.508  13.148  69.032  1.00  0.00    -0.103 A  
HETATM   35  C   UNL     1      -5.283  12.490  69.149  1.00  0.00    -0.068 A  
HETATM   36  N   UNL     1      -5.127  11.150  69.306  1.00  0.00    -0.044 NA 
HETATM   37  C   UNL     1      -6.258  10.408  69.349  1.00  0.00    -0.049 A  
HETATM   38  C   UNL     1      -7.525  10.941  69.237  1.00  0.00    -0.124 A  
HETATM   39  C   UNL     1      -7.645  12.321  69.079  1.00  0.00     0.103 A  
ENDBRANCH  32  34
ENDBRANCH  26  28
ENDBRANCH  21  26
ENDBRANCH  17  19
ENDBRANCH  12  15
ENDBRANCH   8   9
ENDBRANCH   5   8
TORSDOF 7
ENDMDL
MODEL      130
REMARK 921   NORMALIZED FREE ENERGY PREDICTED BY IDOCK:   -3.42 KCAL/MOL
REMARK 922        TOTAL FREE ENERGY PREDICTED BY IDOCK:   -5.97 KCAL/MOL
REMARK 923 INTER-LIGAND FREE ENERGY PREDICTED BY IDOCK:   -5.07 KCAL/MOL
REMARK 924 INTRA-LIGAND FREE ENERGY PREDICTED BY IDOCK:   -0.90 KCAL/MOL
REMARK 927      BINDING AFFINITY PREDICTED BY RF-SCORE:    0.00 PKD
ROOT
HETATM    1  C   UNL     1     -10.891  20.201  65.390  1.00  0.00     0.080 C  
HETATM    2  N   UNL     1     -10.540  19.823  66.760  1.00  0.00    -0.478 NA 
HETATM    3  C   UNL     1     -10.330  18.367  66.869  1.00  0.00    -0.390 C  
HETATM    4  C   UNL     1      -8.983  17.866  66.298  1.00  0.00    -0.168 C  
HETATM    5  N   UNL     1      -7.793  18.565  66.836  1.00  0.00    -0.227 NA 
HETATM    6  C   UNL     1      -9.337  20.547  67.222  1.00  0.00    -0.389 C  
HETATM    7  C   UNL     1      -7.992  20.015  66.665  1.00  0.00    -0.314 C  
ENDROOT
BRANCH   5   8
HETATM    8  C   UNL     1      -7.506  18.228  68.249  1.00  0.00    -0.279 C  
BRANCH   8   9
HETATM    9  C   UNL     1      -7.123  16.771  68.406  1.00  0.00    -0.173 A  
HETATM   10  C   UNL     1      -5.911  16.315  67.873  1.00  0.00    -0.143 A  
HETATM   11  C   UNL     1      -5.697  14.951  67.703  1.00  0.00    -0.026 A  
HETATM   12  C   UNL     1      -6.689  14.030  68.069  1.00  0.00    -0.148 A  
HETATM   13  C   UNL     1      -8.053  15.845  68.900  1.00  0.00    -0.214 A  
HETATM   14  C   UNL     1      -7.843  14.476  68.725  1.00  0.00    -0.145 A  
BRANCH  12  15
HETATM   15  C   UNL     1      -6.533  12.632  67.588  1.00  0.00    -0.146 C  
HETATM   16  O   UNL     1      -5.429  12.261  67.200  1.00  0.00    -0.192 OA 
HETATM   17  N   UNL     1      -7.660  11.826  67.639  1.00  0.00    -0.123 N  
HETATM   18  H   UNL     1      -8.534  12.210  67.999  1.00  0.00     0.000 HD 
BRANCH  17  19
HETATM   19  C   UNL     1      -7.622  10.487  67.201  1.00  0.00    -0.097 A  
HETATM   20  C   UNL     1      -7.505   9.497  68.170  1.00  0.00    -0.079 A  
HETATM   21  C   UNL     1      -7.210   8.164  67.829  1.00  0.00    -0.091 A  
HETATM   22  C   UNL     1      -7.631  10.137  65.858  1.00  0.00    -0.128 A  
HETATM   23  C   UNL     1      -7.209   7.812  66.463  1.00  0.00    -0.086 A  
HETATM   24  C   UNL     1      -6.922   6.427  65.950  1.00  0.00    -0.061 C  
HETATM   25  C   UNL     1      -7.465   8.801  65.493  1.00  0.00    -0.086 A  
BRANCH  21  26
HETATM   26  N   UNL     1      -6.811   7.268  68.838  1.00  0.00    -0.069 NA 
HETATM   27  H   UNL     1      -5.817   7.041  68.857  1.00  0.00     0.000 HD 
BRANCH  26  28
HETATM   28  C   UNL     1      -7.591   6.647  69.816  1.00  0.00    -0.104 A  
HETATM   29  N   UNL     1      -8.865   7.039  69.914  1.00  0.00    -0.142 NA 
HETATM   30  C   UNL     1      -9.623   6.410  70.830  1.00  0.00    -0.175 A  
HETATM   31  C   UNL     1      -9.167   5.394  71.640  1.00  0.00    -0.166 A  
HETATM   32  C   UNL     1      -7.844   5.048  71.485  1.00  0.00    -0.110 A  
HETATM   33  N   UNL     1      -7.070   5.677  70.582  1.00  0.00    -0.064 NA 
BRANCH  32  34
HETATM   34  C   UNL     1      -7.157   3.992  72.252  1.00  0.00    -0.051 A  
HETATM   35  C   UNL     1      -7.623   2.680  72.326  1.00  0.00    -0.052 A  
HETATM   36  N   UNL     1      -7.037   1.680  73.034  1.00  0.00    -0.023 NA 
HETATM   37  C   UNL     1      -5.914   1.997  73.719  1.00  0.00     0.000 A  
HETATM   38  C   UNL     1      -5.360   3.261  73.731  1.00  0.00     0.000 A  
HETATM   39  C   UNL     1      -5.989   4.261  72.990  1.00  0.00    -0.012 A  
ENDBRANCH  32  34
ENDBRANCH  26  28
ENDBRANCH  21  26
ENDBRANCH  17  19
ENDBRANCH  12  15
ENDBRANCH   8   9
ENDBRANCH   5   8
TORSDOF 7
ENDMDL
MODEL      131
REMARK 921   NORMALIZED FREE ENERGY PREDICTED BY IDOCK:   -3.37 KCAL/MOL
REMARK 922        TOTAL FREE ENERGY PREDICTED BY IDOCK:   -5.90 KCAL/MOL
REMARK 923 INTER-LIGAND FREE ENERGY PREDICTED BY IDOCK:   -5.18 KCAL/MOL
REMARK 924 INTRA-LIGAND FREE ENERGY PREDICTED BY IDOCK:   -0.73 KCAL/MOL
REMARK 927      BINDING AFFINITY PREDICTED BY RF-SCORE:    0.00 PKD
ROOT
HETATM    1  C   UNL     1     -13.223  16.545  73.946  1.00  0.00     0.273 C  
HETATM    2  N   UNL     1     -13.512  16.341  72.526  1.00  0.00    -0.011 NA 
HETATM    3  C   UNL     1     -12.268  16.300  71.733  1.00  0.00    -0.270 C  
HETATM    4  C   UNL     1     -11.474  14.978  71.848  1.00  0.00    -0.289 C  
HETATM    5  N   UNL     1     -12.269  13.760  71.559  1.00  0.00    -0.192 NA 
HETATM    6  C   UNL     1     -14.291  15.102  72.313  1.00  0.00    -0.466 C  
HETATM    7  C   UNL     1     -13.477  13.786  72.402  1.00  0.00    -0.571 C  
ENDROOT
BRANCH   5   8
HETATM    8  C   UNL     1     -12.618  13.617  70.127  1.00  0.00    -0.151 C  
BRANCH   8   9
HETATM    9  C   UNL     1     -11.640  12.714  69.404  1.00  0.00    -0.369 A  
HETATM   10  C   UNL     1     -11.203  13.059  68.119  1.00  0.00    -0.305 A  
HETATM   11  C   UNL     1     -10.592  12.103  67.314  1.00  0.00    -0.255 A  
HETATM   12  C   UNL     1     -10.406  10.797  67.787  1.00  0.00    -0.226 A  
HETATM   13  C   UNL     1     -11.326  11.451  69.925  1.00  0.00    -0.300 A  
HETATM   14  C   UNL     1     -10.718  10.488  69.117  1.00  0.00    -0.266 A  
BRANCH  12  15
HETATM   15  C   UNL     1     -10.034   9.757  66.791  1.00  0.00    -0.218 C  
HETATM   16  O   UNL     1     -10.874   8.922  66.469  1.00  0.00     0.003 OA 
HETATM   17  N   UNL     1      -8.751   9.823  66.271  1.00  0.00    -0.137 N  
HETATM   18  H   UNL     1      -8.124  10.567  66.578  1.00  0.00     0.000 HD 
BRANCH  17  19
HETATM   19  C   UNL     1      -8.295   8.882  65.326  1.00  0.00    -0.160 A  
HETATM   20  C   UNL     1      -8.299   7.543  65.698  1.00  0.00    -0.144 A  
HETATM   21  C   UNL     1      -7.640   6.563  64.933  1.00  0.00    -0.097 A  
HETATM   22  C   UNL     1      -7.792   9.250  64.085  1.00  0.00    -0.125 A  
HETATM   23  C   UNL     1      -7.118   6.941  63.678  1.00  0.00    -0.061 A  
HETATM   24  C   UNL     1      -6.399   6.002  62.748  1.00  0.00    -0.025 C  
HETATM   25  C   UNL     1      -7.242   8.277  63.250  1.00  0.00    -0.093 A  
BRANCH  21  26
HETATM   26  N   UNL     1      -7.416   5.292  65.490  1.00  0.00    -0.076 NA 
HETATM   27  H   UNL     1      -7.391   4.518  64.826  1.00  0.00     0.000 HD 
BRANCH  26  28
HETATM   28  C   UNL     1      -7.222   4.944  66.829  1.00  0.00    -0.080 A  
HETATM   29  N   UNL     1      -7.246   3.641  67.127  1.00  0.00    -0.063 NA 
HETATM   30  C   UNL     1      -7.019   3.309  68.410  1.00  0.00    -0.049 A  
HETATM   31  C   UNL     1      -6.750   4.222  69.406  1.00  0.00    -0.045 A  
HETATM   32  C   UNL     1      -6.746   5.545  69.024  1.00  0.00    -0.053 A  
HETATM   33  N   UNL     1      -6.984   5.893  67.747  1.00  0.00    -0.067 NA 
BRANCH  32  34
HETATM   34  C   UNL     1      -6.485   6.678  69.931  1.00  0.00    -0.044 A  
HETATM   35  C   UNL     1      -6.807   6.656  71.288  1.00  0.00    -0.062 A  
HETATM   36  N   UNL     1      -6.605   7.680  72.157  1.00  0.00    -0.053 NA 
HETATM   37  C   UNL     1      -6.049   8.805  71.652  1.00  0.00    -0.062 A  
HETATM   38  C   UNL     1      -5.694   8.952  70.326  1.00  0.00    -0.033 A  
HETATM   39  C   UNL     1      -5.915   7.878  69.465  1.00  0.00    -0.033 A  
ENDBRANCH  32  34
ENDBRANCH  26  28
ENDBRANCH  21  26
ENDBRANCH  17  19
ENDBRANCH  12  15
ENDBRANCH   8   9
ENDBRANCH   5   8
TORSDOF 7
ENDMDL
MODEL      132
REMARK 921   NORMALIZED FREE ENERGY PREDICTED BY IDOCK:   -3.35 KCAL/MOL
REMARK 922        TOTAL FREE ENERGY PREDICTED BY IDOCK:   -5.87 KCAL/MOL
REMARK 923 INTER-LIGAND FREE ENERGY PREDICTED BY IDOCK:   -5.97 KCAL/MOL
REMARK 924 INTRA-LIGAND FREE ENERGY PREDICTED BY IDOCK:    0.10 KCAL/MOL
REMARK 927      BINDING AFFINITY PREDICTED BY RF-SCORE:    0.00 PKD
ROOT
HETATM    1  C   UNL     1      -7.217   2.134  69.343  1.00  0.00    -0.043 C  
HETATM    2  N   UNL     1      -8.189   2.991  68.663  1.00  0.00    -0.063 NA 
HETATM    3  C   UNL     1      -7.510   4.026  67.859  1.00  0.00    -0.067 C  
HETATM    4  C   UNL     1      -6.906   3.515  66.530  1.00  0.00    -0.053 C  
HETATM    5  N   UNL     1      -7.861   2.784  65.665  1.00  0.00    -0.081 NA 
HETATM    6  C   UNL     1      -9.095   2.196  67.808  1.00  0.00    -0.175 C  
HETATM    7  C   UNL     1      -8.486   1.716  66.466  1.00  0.00    -0.101 C  
ENDROOT
BRANCH   5   8
HETATM    8  C   UNL     1      -8.884   3.661  65.052  1.00  0.00    -0.123 C  
BRANCH   8   9
HETATM    9  C   UNL     1      -8.515   5.124  65.187  1.00  0.00    -0.147 A  
HETATM   10  C   UNL     1      -9.174   5.917  66.134  1.00  0.00    -0.164 A  
HETATM   11  C   UNL     1      -9.104   7.304  66.047  1.00  0.00    -0.117 A  
HETATM   12  C   UNL     1      -8.370   7.910  65.018  1.00  0.00    -0.111 A  
HETATM   13  C   UNL     1      -7.670   5.729  64.246  1.00  0.00    -0.097 A  
HETATM   14  C   UNL     1      -7.602   7.120  64.154  1.00  0.00    -0.109 A  
BRANCH  12  15
HETATM   15  C   UNL     1      -8.579   9.366  64.797  1.00  0.00    -0.180 C  
HETATM   16  O   UNL     1      -7.612  10.063  64.505  1.00  0.00    -0.136 OA 
HETATM   17  N   UNL     1      -9.879   9.833  64.913  1.00  0.00    -0.421 N  
HETATM   18  H   UNL     1     -10.629   9.178  65.137  1.00  0.00     0.000 HD 
BRANCH  17  19
HETATM   19  C   UNL     1     -10.186  11.196  64.730  1.00  0.00    -0.306 A  
HETATM   20  C   UNL     1      -9.549  12.115  65.555  1.00  0.00    -0.141 A  
HETATM   21  C   UNL     1      -9.965  13.458  65.623  1.00  0.00    -0.235 A  
HETATM   22  C   UNL     1     -11.133  11.634  63.815  1.00  0.00    -0.499 A  
HETATM   23  C   UNL     1     -10.936  13.899  64.701  1.00  0.00    -0.406 A  
HETATM   24  C   UNL     1     -11.469  15.305  64.646  1.00  0.00    -0.356 C  
HETATM   25  C   UNL     1     -11.477  12.986  63.775  1.00  0.00    -0.486 A  
BRANCH  21  26
HETATM   26  N   UNL     1      -9.499  14.270  66.672  1.00  0.00    -0.276 NA 
HETATM   27  H   UNL     1      -9.979  15.163  66.785  1.00  0.00     0.000 HD 
BRANCH  26  28
HETATM   28  C   UNL     1      -8.467  14.021  67.581  1.00  0.00    -0.191 A  
HETATM   29  N   UNL     1      -7.851  15.084  68.105  1.00  0.00    -0.115 NA 
HETATM   30  C   UNL     1      -6.886  14.839  69.010  1.00  0.00    -0.113 A  
HETATM   31  C   UNL     1      -6.523  13.578  69.427  1.00  0.00    -0.103 A  
HETATM   32  C   UNL     1      -7.199  12.533  68.839  1.00  0.00    -0.050 A  
HETATM   33  N   UNL     1      -8.157  12.761  67.924  1.00  0.00    -0.146 NA 
BRANCH  32  34
HETATM   34  C   UNL     1      -6.963  11.108  69.138  1.00  0.00    -0.108 A  
HETATM   35  C   UNL     1      -6.695  10.634  70.423  1.00  0.00    -0.008 A  
HETATM   36  N   UNL     1      -6.452   9.337  70.744  1.00  0.00    -0.070 NA 
HETATM   37  C   UNL     1      -6.474   8.445  69.727  1.00  0.00    -0.036 A  
HETATM   38  C   UNL     1      -6.721   8.792  68.414  1.00  0.00    -0.064 A  
HETATM   39  C   UNL     1      -6.967  10.132  68.124  1.00  0.00    -0.075 A  
ENDBRANCH  32  34
ENDBRANCH  26  28
ENDBRANCH  21  26
ENDBRANCH  17  19
ENDBRANCH  12  15
ENDBRANCH   8   9
ENDBRANCH   5   8
TORSDOF 7
ENDMDL
MODEL      133
REMARK 921   NORMALIZED FREE ENERGY PREDICTED BY IDOCK:   -3.33 KCAL/MOL
REMARK 922        TOTAL FREE ENERGY PREDICTED BY IDOCK:   -5.84 KCAL/MOL
REMARK 923 INTER-LIGAND FREE ENERGY PREDICTED BY IDOCK:   -5.83 KCAL/MOL
REMARK 924 INTRA-LIGAND FREE ENERGY PREDICTED BY IDOCK:   -0.01 KCAL/MOL
REMARK 927      BINDING AFFINITY PREDICTED BY RF-SCORE:    0.00 PKD
ROOT
HETATM    1  C   UNL     1      -5.691   1.784  64.928  1.00  0.00    -0.012 C  
HETATM    2  N   UNL     1      -5.534   2.510  66.190  1.00  0.00    -0.016 NA 
HETATM    3  C   UNL     1      -5.378   3.958  65.951  1.00  0.00    -0.009 C  
HETATM    4  C   UNL     1      -6.688   4.697  65.592  1.00  0.00    -0.056 C  
HETATM    5  N   UNL     1      -7.794   4.485  66.556  1.00  0.00    -0.098 NA 
HETATM    6  C   UNL     1      -6.679   2.264  67.091  1.00  0.00    -0.039 C  
HETATM    7  C   UNL     1      -7.977   3.034  66.737  1.00  0.00    -0.080 C  
ENDROOT
BRANCH   5   8
HETATM    8  C   UNL     1      -7.575   5.162  67.854  1.00  0.00    -0.084 C  
BRANCH   8   9
HETATM    9  C   UNL     1      -8.456   6.386  67.998  1.00  0.00    -0.118 A  
HETATM   10  C   UNL     1      -9.643   6.472  67.260  1.00  0.00    -0.148 A  
HETATM   11  C   UNL     1     -10.281   7.700  67.111  1.00  0.00    -0.360 A  
HETATM   12  C   UNL     1      -9.742   8.850  67.703  1.00  0.00    -0.202 A  
HETATM   13  C   UNL     1      -7.998   7.508  68.703  1.00  0.00    -0.123 A  
HETATM   14  C   UNL     1      -8.633   8.742  68.551  1.00  0.00    -0.134 A  
BRANCH  12  15
HETATM   15  C   UNL     1     -10.287  10.162  67.263  1.00  0.00    -0.237 C  
HETATM   16  O   UNL     1     -10.994  10.798  68.039  1.00  0.00    -0.237 OA 
HETATM   17  N   UNL     1      -9.927  10.592  65.994  1.00  0.00    -0.229 N  
HETATM   18  H   UNL     1      -9.314  10.010  65.424  1.00  0.00     0.000 HD 
BRANCH  17  19
HETATM   19  C   UNL     1     -10.394  11.818  65.477  1.00  0.00    -0.262 A  
HETATM   20  C   UNL     1      -9.588  12.936  65.650  1.00  0.00    -0.036 A  
HETATM   21  C   UNL     1     -10.066  14.235  65.397  1.00  0.00    -0.351 A  
HETATM   22  C   UNL     1     -11.636  11.951  64.873  1.00  0.00    -0.290 A  
HETATM   23  C   UNL     1     -11.334  14.370  64.794  1.00  0.00    -0.388 A  
HETATM   24  C   UNL     1     -11.970  15.692  64.456  1.00  0.00    -0.120 C  
HETATM   25  C   UNL     1     -12.087  13.217  64.498  1.00  0.00    -0.461 A  
BRANCH  21  26
HETATM   26  N   UNL     1      -9.331  15.341  65.861  1.00  0.00    -0.409 NA 
HETATM   27  H   UNL     1      -8.390  15.437  65.479  1.00  0.00     0.000 HD 
BRANCH  26  28
HETATM   28  C   UNL     1      -9.715  16.327  66.773  1.00  0.00    -0.241 A  
HETATM   29  N   UNL     1     -11.012  16.388  67.089  1.00  0.00    -0.161 NA 
HETATM   30  C   UNL     1     -11.370  17.313  67.998  1.00  0.00     0.276 A  
HETATM   31  C   UNL     1     -10.486  18.167  68.618  1.00  0.00    -0.212 A  
HETATM   32  C   UNL     1      -9.168  18.048  68.238  1.00  0.00    -0.293 A  
HETATM   33  N   UNL     1      -8.796  17.137  67.321  1.00  0.00    -0.214 NA 
BRANCH  32  34
HETATM   34  C   UNL     1      -8.064  18.865  68.774  1.00  0.00    -0.354 A  
HETATM   35  C   UNL     1      -7.753  20.136  68.289  1.00  0.00    -0.151 A  
HETATM   36  N   UNL     1      -6.736  20.917  68.736  1.00  0.00     0.070 NA 
HETATM   37  C   UNL     1      -5.971  20.408  69.729  1.00  0.00    -0.349 A  
HETATM   38  C   UNL     1      -6.173  19.162  70.286  1.00  0.00    -0.107 A  
HETATM   39  C   UNL     1      -7.228  18.391  69.802  1.00  0.00     0.403 A  
ENDBRANCH  32  34
ENDBRANCH  26  28
ENDBRANCH  21  26
ENDBRANCH  17  19
ENDBRANCH  12  15
ENDBRANCH   8   9
ENDBRANCH   5   8
TORSDOF 7
ENDMDL
MODEL      134
REMARK 921   NORMALIZED FREE ENERGY PREDICTED BY IDOCK:   -3.24 KCAL/MOL
REMARK 922        TOTAL FREE ENERGY PREDICTED BY IDOCK:   -5.71 KCAL/MOL
REMARK 923 INTER-LIGAND FREE ENERGY PREDICTED BY IDOCK:   -6.52 KCAL/MOL
REMARK 924 INTRA-LIGAND FREE ENERGY PREDICTED BY IDOCK:    0.81 KCAL/MOL
REMARK 927      BINDING AFFINITY PREDICTED BY RF-SCORE:    0.00 PKD
ROOT
HETATM    1  C   UNL     1      -7.667  17.751  65.930  1.00  0.00    -0.098 C  
HETATM    2  N   UNL     1      -7.825  17.121  67.242  1.00  0.00    -0.173 NA 
HETATM    3  C   UNL     1      -7.866  18.134  68.314  1.00  0.00    -0.293 C  
HETATM    4  C   UNL     1      -9.205  18.898  68.428  1.00  0.00    -0.347 C  
HETATM    5  N   UNL     1     -10.398  18.027  68.544  1.00  0.00    -0.372 NA 
HETATM    6  C   UNL     1      -9.041  16.283  67.288  1.00  0.00    -0.203 C  
HETATM    7  C   UNL     1     -10.374  17.060  67.431  1.00  0.00    -0.319 C  
ENDROOT
BRANCH   5   8
HETATM    8  C   UNL     1     -10.493  17.337  69.850  1.00  0.00     0.293 C  
BRANCH   8   9
HETATM    9  C   UNL     1     -10.816  15.866  69.679  1.00  0.00    -0.314 A  
HETATM   10  C   UNL     1      -9.883  14.904  70.085  1.00  0.00     0.304 A  
HETATM   11  C   UNL     1     -10.000  13.592  69.636  1.00  0.00     0.911 A  
HETATM   12  C   UNL     1     -11.052  13.228  68.785  1.00  0.00    -0.303 A  
HETATM   13  C   UNL     1     -11.943  15.470  68.945  1.00  0.00    -0.306 A  
HETATM   14  C   UNL     1     -12.059  14.156  68.490  1.00  0.00    -0.312 A  
BRANCH  12  15
HETATM   15  C   UNL     1     -10.954  11.910  68.103  1.00  0.00    -0.227 C  
HETATM   16  O   UNL     1     -11.989  11.344  67.763  1.00  0.00    -0.637 OA 
HETATM   17  N   UNL     1      -9.678  11.421  67.873  1.00  0.00    -0.175 N  
HETATM   18  H   UNL     1      -8.870  11.971  68.168  1.00  0.00     0.000 HD 
BRANCH  17  19
HETATM   19  C   UNL     1      -9.473  10.179  67.240  1.00  0.00    -0.154 A  
HETATM   20  C   UNL     1      -9.425   9.047  68.045  1.00  0.00    -0.157 A  
HETATM   21  C   UNL     1      -8.982   7.808  67.548  1.00  0.00    -0.123 A  
HETATM   22  C   UNL     1      -9.257  10.061  65.874  1.00  0.00    -0.211 A  
HETATM   23  C   UNL     1      -8.752   7.692  66.162  1.00  0.00    -0.176 A  
HETATM   24  C   UNL     1      -8.287   6.430  65.487  1.00  0.00    -0.147 C  
HETATM   25  C   UNL     1      -8.936   8.816  65.333  1.00  0.00    -0.211 A  
BRANCH  21  26
HETATM   26  N   UNL     1      -8.669   6.777  68.452  1.00  0.00    -0.124 NA 
HETATM   27  H   UNL     1      -7.788   6.291  68.279  1.00  0.00     0.000 HD 
BRANCH  26  28
HETATM   28  C   UNL     1      -9.399   6.327  69.555  1.00  0.00    -0.142 A  
HETATM   29  N   UNL     1      -9.026   5.164  70.096  1.00  0.00    -0.117 NA 
HETATM   30  C   UNL     1      -9.705   4.756  71.183  1.00  0.00    -0.181 A  
HETATM   31  C   UNL     1     -10.730   5.469  71.762  1.00  0.00    -0.289 A  
HETATM   32  C   UNL     1     -11.061   6.656  71.148  1.00  0.00    -0.279 A  
HETATM   33  N   UNL     1     -10.399   7.071  70.053  1.00  0.00    -0.198 NA 
BRANCH  32  34
HETATM   34  C   UNL     1     -12.127   7.568  71.602  1.00  0.00    -0.341 A  
HETATM   35  C   UNL     1     -11.995   8.957  71.594  1.00  0.00    -0.345 A  
HETATM   36  N   UNL     1     -12.939   9.835  72.020  1.00  0.00    -0.418 NA 
HETATM   37  C   UNL     1     -14.093   9.307  72.488  1.00  0.00    -0.242 A  
HETATM   38  C   UNL     1     -14.340   7.950  72.553  1.00  0.00    -0.070 A  
HETATM   39  C   UNL     1     -13.348   7.080  72.105  1.00  0.00    -0.026 A  
ENDBRANCH  32  34
ENDBRANCH  26  28
ENDBRANCH  21  26
ENDBRANCH  17  19
ENDBRANCH  12  15
ENDBRANCH   8   9
ENDBRANCH   5   8
TORSDOF 7
ENDMDL
MODEL      135
REMARK 921   NORMALIZED FREE ENERGY PREDICTED BY IDOCK:   -3.21 KCAL/MOL
REMARK 922        TOTAL FREE ENERGY PREDICTED BY IDOCK:   -5.68 KCAL/MOL
REMARK 923 INTER-LIGAND FREE ENERGY PREDICTED BY IDOCK:   -6.16 KCAL/MOL
REMARK 924 INTRA-LIGAND FREE ENERGY PREDICTED BY IDOCK:    0.49 KCAL/MOL
REMARK 927      BINDING AFFINITY PREDICTED BY RF-SCORE:    0.00 PKD
ROOT
HETATM    1  C   UNL     1     -10.828   3.918  64.398  1.00  0.00    -0.127 C  
HETATM    2  N   UNL     1      -9.478   4.286  63.967  1.00  0.00    -0.150 NA 
HETATM    3  C   UNL     1      -8.806   5.117  64.986  1.00  0.00    -0.134 C  
HETATM    4  C   UNL     1      -8.291   4.336  66.217  1.00  0.00    -0.108 C  
HETATM    5  N   UNL     1      -7.421   3.182  65.888  1.00  0.00    -0.072 NA 
HETATM    6  C   UNL     1      -8.666   3.087  63.674  1.00  0.00    -0.089 C  
HETATM    7  C   UNL     1      -8.131   2.331  64.916  1.00  0.00    -0.079 C  
ENDROOT
BRANCH   5   8
HETATM    8  C   UNL     1      -6.090   3.580  65.378  1.00  0.00    -0.023 C  
BRANCH   8   9
HETATM    9  C   UNL     1      -5.725   4.984  65.813  1.00  0.00    -0.018 A  
HETATM   10  C   UNL     1      -5.982   5.387  67.129  1.00  0.00    -0.026 A  
HETATM   11  C   UNL     1      -5.978   6.741  67.453  1.00  0.00    -0.021 A  
HETATM   12  C   UNL     1      -5.711   7.701  66.469  1.00  0.00    -0.036 A  
HETATM   13  C   UNL     1      -5.321   5.935  64.865  1.00  0.00    -0.016 A  
HETATM   14  C   UNL     1      -5.321   7.294  65.187  1.00  0.00    -0.029 A  
BRANCH  12  15
HETATM   15  C   UNL     1      -6.017   9.119  66.798  1.00  0.00    -0.056 C  
HETATM   16  O   UNL     1      -6.326   9.882  65.887  1.00  0.00    -0.075 OA 
HETATM   17  N   UNL     1      -5.956   9.475  68.136  1.00  0.00    -0.047 N  
HETATM   18  H   UNL     1      -5.713   8.769  68.832  1.00  0.00     0.000 HD 
BRANCH  17  19
HETATM   19  C   UNL     1      -6.222  10.795  68.555  1.00  0.00    -0.046 A  
HETATM   20  C   UNL     1      -7.542  11.226  68.523  1.00  0.00    -0.123 A  
HETATM   21  C   UNL     1      -7.879  12.583  68.679  1.00  0.00    -0.048 A  
HETATM   22  C   UNL     1      -5.218  11.678  68.928  1.00  0.00    -0.046 A  
HETATM   23  C   UNL     1      -6.857  13.482  69.046  1.00  0.00    -0.107 A  
HETATM   24  C   UNL     1      -7.067  14.957  69.258  1.00  0.00    -0.160 C  
HETATM   25  C   UNL     1      -5.541  13.006  69.210  1.00  0.00    -0.080 A  
BRANCH  21  26
HETATM   26  N   UNL     1      -9.176  13.013  68.347  1.00  0.00    -0.320 NA 
HETATM   27  H   UNL     1      -9.921  12.682  68.961  1.00  0.00     0.000 HD 
BRANCH  26  28
HETATM   28  C   UNL     1      -9.584  13.832  67.291  1.00  0.00    -0.237 A  
HETATM   29  N   UNL     1      -9.934  13.225  66.153  1.00  0.00    -0.289 NA 
HETATM   30  C   UNL     1     -10.364  14.016  65.154  1.00  0.00    -0.400 A  
HETATM   31  C   UNL     1     -10.476  15.385  65.248  1.00  0.00    -0.440 A  
HETATM   32  C   UNL     1     -10.093  15.939  66.449  1.00  0.00    -0.292 A  
HETATM   33  N   UNL     1      -9.649  15.163  67.453  1.00  0.00    -0.207 NA 
BRANCH  32  34
HETATM   34  C   UNL     1     -10.130  17.380  66.757  1.00  0.00    -0.313 A  
HETATM   35  C   UNL     1     -10.452  18.353  65.810  1.00  0.00    -0.227 A  
HETATM   36  N   UNL     1     -10.480  19.691  66.041  1.00  0.00    -0.520 NA 
HETATM   37  C   UNL     1     -10.167  20.098  67.293  1.00  0.00    -0.400 A  
HETATM   38  C   UNL     1      -9.826  19.234  68.313  1.00  0.00    -0.482 A  
HETATM   39  C   UNL     1      -9.810  17.868  68.038  1.00  0.00    -0.320 A  
ENDBRANCH  32  34
ENDBRANCH  26  28
ENDBRANCH  21  26
ENDBRANCH  17  19
ENDBRANCH  12  15
ENDBRANCH   8   9
ENDBRANCH   5   8
TORSDOF 7
ENDMDL
MODEL      136
REMARK 921   NORMALIZED FREE ENERGY PREDICTED BY IDOCK:   -3.11 KCAL/MOL
REMARK 922        TOTAL FREE ENERGY PREDICTED BY IDOCK:   -5.54 KCAL/MOL
REMARK 923 INTER-LIGAND FREE ENERGY PREDICTED BY IDOCK:   -4.63 KCAL/MOL
REMARK 924 INTRA-LIGAND FREE ENERGY PREDICTED BY IDOCK:   -0.91 KCAL/MOL
REMARK 927      BINDING AFFINITY PREDICTED BY RF-SCORE:    0.00 PKD
ROOT
HETATM    1  C   UNL     1     -10.189  19.904  69.685  1.00  0.00     0.157 C  
HETATM    2  N   UNL     1      -9.410  19.463  68.527  1.00  0.00    -0.372 NA 
HETATM    3  C   UNL     1      -8.706  18.198  68.814  1.00  0.00    -0.211 C  
HETATM    4  C   UNL     1      -9.605  16.941  68.792  1.00  0.00    -0.268 C  
HETATM    5  N   UNL     1     -10.400  16.778  67.552  1.00  0.00    -0.294 NA 
HETATM    6  C   UNL     1     -10.270  19.307  67.335  1.00  0.00    -0.414 C  
HETATM    7  C   UNL     1     -11.144  18.028  67.312  1.00  0.00     0.156 C  
ENDROOT
BRANCH   5   8
HETATM    8  C   UNL     1      -9.579  16.411  66.376  1.00  0.00    -0.288 C  
BRANCH   8   9
HETATM    9  C   UNL     1      -8.912  15.064  66.562  1.00  0.00    -0.310 A  
HETATM   10  C   UNL     1      -9.686  13.898  66.511  1.00  0.00    -0.303 A  
HETATM   11  C   UNL     1      -9.175  12.704  67.009  1.00  0.00    -0.212 A  
HETATM   12  C   UNL     1      -7.885  12.661  67.555  1.00  0.00    -0.175 A  
HETATM   13  C   UNL     1      -7.575  14.988  66.979  1.00  0.00    -0.077 A  
HETATM   14  C   UNL     1      -7.062  13.792  67.483  1.00  0.00    -0.172 A  
BRANCH  12  15
HETATM   15  C   UNL     1      -7.515  11.451  68.337  1.00  0.00    -0.111 C  
HETATM   16  O   UNL     1      -7.566  11.502  69.562  1.00  0.00     0.068 OA 
HETATM   17  N   UNL     1      -7.158  10.325  67.611  1.00  0.00    -0.085 N  
HETATM   18  H   UNL     1      -7.166  10.364  66.591  1.00  0.00     0.000 HD 
BRANCH  17  19
HETATM   19  C   UNL     1      -6.783   9.129  68.254  1.00  0.00    -0.060 A  
HETATM   20  C   UNL     1      -7.650   8.047  68.156  1.00  0.00    -0.109 A  
HETATM   21  C   UNL     1      -7.494   6.901  68.958  1.00  0.00    -0.095 A  
HETATM   22  C   UNL     1      -5.632   9.020  69.021  1.00  0.00    -0.036 A  
HETATM   23  C   UNL     1      -6.329   6.797  69.746  1.00  0.00    -0.042 A  
HETATM   24  C   UNL     1      -6.021   5.629  70.643  1.00  0.00    -0.025 C  
HETATM   25  C   UNL     1      -5.387   7.844  69.732  1.00  0.00    -0.023 A  
BRANCH  21  26
HETATM   26  N   UNL     1      -8.546   5.971  69.041  1.00  0.00    -0.119 NA 
HETATM   27  H   UNL     1      -9.315   6.230  69.659  1.00  0.00     0.000 HD 
BRANCH  26  28
HETATM   28  C   UNL     1      -8.680   4.741  68.393  1.00  0.00    -0.101 A  
HETATM   29  N   UNL     1      -9.245   3.749  69.086  1.00  0.00    -0.146 NA 
HETATM   30  C   UNL     1      -9.409   2.578  68.444  1.00  0.00    -0.200 A  
HETATM   31  C   UNL     1      -9.049   2.362  67.133  1.00  0.00    -0.164 A  
HETATM   32  C   UNL     1      -8.469   3.429  66.485  1.00  0.00    -0.109 A  
HETATM   33  N   UNL     1      -8.287   4.602  67.117  1.00  0.00    -0.105 NA 
BRANCH  32  34
HETATM   34  C   UNL     1      -8.007   3.410  65.084  1.00  0.00    -0.086 A  
HETATM   35  C   UNL     1      -7.266   2.360  64.542  1.00  0.00    -0.054 A  
HETATM   36  N   UNL     1      -6.803   2.305  63.266  1.00  0.00    -0.030 NA 
HETATM   37  C   UNL     1      -7.089   3.361  62.471  1.00  0.00    -0.036 A  
HETATM   38  C   UNL     1      -7.808   4.462  62.892  1.00  0.00    -0.067 A  
HETATM   39  C   UNL     1      -8.268   4.480  64.208  1.00  0.00    -0.109 A  
ENDBRANCH  32  34
ENDBRANCH  26  28
ENDBRANCH  21  26
ENDBRANCH  17  19
ENDBRANCH  12  15
ENDBRANCH   8   9
ENDBRANCH   5   8
TORSDOF 7
ENDMDL
MODEL      137
REMARK 921   NORMALIZED FREE ENERGY PREDICTED BY IDOCK:   -3.08 KCAL/MOL
REMARK 922        TOTAL FREE ENERGY PREDICTED BY IDOCK:   -5.50 KCAL/MOL
REMARK 923 INTER-LIGAND FREE ENERGY PREDICTED BY IDOCK:   -5.29 KCAL/MOL
REMARK 924 INTRA-LIGAND FREE ENERGY PREDICTED BY IDOCK:   -0.21 KCAL/MOL
REMARK 927      BINDING AFFINITY PREDICTED BY RF-SCORE:    0.00 PKD
ROOT
HETATM    1  C   UNL     1     -10.581   2.484  63.150  1.00  0.00    -0.199 C  
HETATM    2  N   UNL     1      -9.390   3.212  63.591  1.00  0.00    -0.096 NA 
HETATM    3  C   UNL     1      -9.760   4.450  64.304  1.00  0.00    -0.041 C  
HETATM    4  C   UNL     1     -10.267   4.235  65.748  1.00  0.00    -0.186 C  
HETATM    5  N   UNL     1      -9.353   3.442  66.605  1.00  0.00    -0.176 NA 
HETATM    6  C   UNL     1      -8.537   2.366  64.452  1.00  0.00    -0.090 C  
HETATM    7  C   UNL     1      -9.041   2.183  65.906  1.00  0.00    -0.058 C  
ENDROOT
BRANCH   5   8
HETATM    8  C   UNL     1      -8.117   4.170  66.972  1.00  0.00    -0.100 C  
BRANCH   8   9
HETATM    9  C   UNL     1      -8.340   5.669  66.992  1.00  0.00    -0.107 A  
HETATM   10  C   UNL     1      -8.060   6.423  65.846  1.00  0.00    -0.124 A  
HETATM   11  C   UNL     1      -7.929   7.805  65.940  1.00  0.00    -0.107 A  
HETATM   12  C   UNL     1      -8.083   8.446  67.177  1.00  0.00    -0.104 A  
HETATM   13  C   UNL     1      -8.632   6.324  68.196  1.00  0.00    -0.116 A  
HETATM   14  C   UNL     1      -8.496   7.710  68.295  1.00  0.00    -0.125 A  
BRANCH  12  15
HETATM   15  C   UNL     1      -7.637   9.861  67.273  1.00  0.00    -0.088 C  
HETATM   16  O   UNL     1      -7.711  10.572  66.275  1.00  0.00    -0.123 OA 
HETATM   17  N   UNL     1      -7.185  10.290  68.512  1.00  0.00    -0.078 N  
HETATM   18  H   UNL     1      -7.179   9.636  69.295  1.00  0.00     0.000 HD 
BRANCH  17  19
HETATM   19  C   UNL     1      -6.733  11.610  68.709  1.00  0.00    -0.077 A  
HETATM   20  C   UNL     1      -7.584  12.490  69.366  1.00  0.00     0.513 A  
HETATM   21  C   UNL     1      -7.337  13.875  69.391  1.00  0.00     0.127 A  
HETATM   22  C   UNL     1      -5.516  12.065  68.220  1.00  0.00    -0.048 A  
HETATM   23  C   UNL     1      -6.105  14.338  68.884  1.00  0.00    -0.087 A  
HETATM   24  C   UNL     1      -5.697  15.786  68.854  1.00  0.00    -0.104 C  
HETATM   25  C   UNL     1      -5.188  13.416  68.342  1.00  0.00    -0.093 A  
BRANCH  21  26
HETATM   26  N   UNL     1      -8.359  14.749  69.801  1.00  0.00    -0.411 NA 
HETATM   27  H   UNL     1      -8.300  15.075  70.766  1.00  0.00     0.000 HD 
BRANCH  26  28
HETATM   28  C   UNL     1      -9.444  15.233  69.065  1.00  0.00    -0.232 A  
HETATM   29  N   UNL     1      -9.829  16.489  69.308  1.00  0.00    -0.247 NA 
HETATM   30  C   UNL     1     -10.847  16.964  68.569  1.00  0.00    -0.335 A  
HETATM   31  C   UNL     1     -11.486  16.242  67.585  1.00  0.00     0.095 A  
HETATM   32  C   UNL     1     -11.037  14.955  67.395  1.00  0.00    -0.325 A  
HETATM   33  N   UNL     1     -10.028  14.462  68.135  1.00  0.00    -0.218 NA 
BRANCH  32  34
HETATM   34  C   UNL     1     -11.584  14.014  66.399  1.00  0.00    -0.381 A  
HETATM   35  C   UNL     1     -11.572  12.630  66.574  1.00  0.00    -0.381 A  
HETATM   36  N   UNL     1     -12.045  11.724  65.679  1.00  0.00    -0.239 NA 
HETATM   37  C   UNL     1     -12.564  12.218  64.531  1.00  0.00    -0.327 A  
HETATM   38  C   UNL     1     -12.625  13.566  64.240  1.00  0.00    -0.206 A  
HETATM   39  C   UNL     1     -12.132  14.465  65.184  1.00  0.00    -0.395 A  
ENDBRANCH  32  34
ENDBRANCH  26  28
ENDBRANCH  21  26
ENDBRANCH  17  19
ENDBRANCH  12  15
ENDBRANCH   8   9
ENDBRANCH   5   8
TORSDOF 7
ENDMDL
MODEL      138
REMARK 921   NORMALIZED FREE ENERGY PREDICTED BY IDOCK:   -2.89 KCAL/MOL
REMARK 922        TOTAL FREE ENERGY PREDICTED BY IDOCK:   -5.22 KCAL/MOL
REMARK 923 INTER-LIGAND FREE ENERGY PREDICTED BY IDOCK:   -5.85 KCAL/MOL
REMARK 924 INTRA-LIGAND FREE ENERGY PREDICTED BY IDOCK:    0.63 KCAL/MOL
REMARK 927      BINDING AFFINITY PREDICTED BY RF-SCORE:    0.00 PKD
ROOT
HETATM    1  C   UNL     1      -8.126   3.517  74.173  1.00  0.00    -0.074 C  
HETATM    2  N   UNL     1      -8.503   4.876  73.783  1.00  0.00    -0.105 NA 
HETATM    3  C   UNL     1      -7.793   5.290  72.557  1.00  0.00    -0.102 C  
HETATM    4  C   UNL     1      -8.346   4.672  71.252  1.00  0.00    -0.105 C  
HETATM    5  N   UNL     1      -9.802   4.866  71.053  1.00  0.00    -0.184 NA 
HETATM    6  C   UNL     1      -9.964   4.989  73.586  1.00  0.00    -0.162 C  
HETATM    7  C   UNL     1     -10.501   4.392  72.261  1.00  0.00    -0.122 C  
ENDROOT
BRANCH   5   8
HETATM    8  C   UNL     1     -10.168   6.265  70.738  1.00  0.00    -0.193 C  
BRANCH   8   9
HETATM    9  C   UNL     1      -8.941   7.117  70.487  1.00  0.00    -0.155 A  
HETATM   10  C   UNL     1      -8.390   7.860  71.539  1.00  0.00    -0.130 A  
HETATM   11  C   UNL     1      -7.497   8.892  71.266  1.00  0.00    -0.127 A  
HETATM   12  C   UNL     1      -7.141   9.186  69.943  1.00  0.00    -0.056 A  
HETATM   13  C   UNL     1      -8.477   7.321  69.180  1.00  0.00    -0.133 A  
HETATM   14  C   UNL     1      -7.585   8.359  68.903  1.00  0.00    -0.096 A  
BRANCH  12  15
HETATM   15  C   UNL     1      -6.437  10.472  69.696  1.00  0.00    -0.084 C  
HETATM   16  O   UNL     1      -5.240  10.549  69.957  1.00  0.00    -0.037 OA 
HETATM   17  N   UNL     1      -7.191  11.502  69.154  1.00  0.00    -0.214 N  
HETATM   18  H   UNL     1      -8.177  11.343  68.945  1.00  0.00     0.000 HD 
BRANCH  17  19
HETATM   19  C   UNL     1      -6.622  12.763  68.887  1.00  0.00    -0.095 A  
HETATM   20  C   UNL     1      -7.203  13.871  69.491  1.00  0.00     0.147 A  
HETATM   21  C   UNL     1      -6.874  15.182  69.099  1.00  0.00    -0.136 A  
HETATM   22  C   UNL     1      -5.563  12.936  68.006  1.00  0.00    -0.101 A  
HETATM   23  C   UNL     1      -5.806  15.356  68.195  1.00  0.00    -0.138 A  
HETATM   24  C   UNL     1      -5.334  16.695  67.695  1.00  0.00    -0.156 C  
HETATM   25  C   UNL     1      -5.132  14.226  67.692  1.00  0.00     0.111 A  
BRANCH  21  26
HETATM   26  N   UNL     1      -7.688  16.250  69.518  1.00  0.00    -0.095 NA 
HETATM   27  H   UNL     1      -7.433  16.676  70.409  1.00  0.00     0.000 HD 
BRANCH  26  28
HETATM   28  C   UNL     1      -8.797  16.808  68.878  1.00  0.00    -0.228 A  
HETATM   29  N   UNL     1      -9.117  18.064  69.205  1.00  0.00    -0.003 NA 
HETATM   30  C   UNL     1     -10.162  18.610  68.557  1.00  0.00    -0.353 A  
HETATM   31  C   UNL     1     -10.889  17.962  67.584  1.00  0.00    -0.243 A  
HETATM   32  C   UNL     1     -10.503  16.671  67.304  1.00  0.00    -0.313 A  
HETATM   33  N   UNL     1      -9.469  16.106  67.953  1.00  0.00    -0.213 NA 
BRANCH  32  34
HETATM   34  C   UNL     1     -11.147  15.801  66.302  1.00  0.00    -0.073 A  
HETATM   35  C   UNL     1     -11.155  16.089  64.937  1.00  0.00    -0.370 A  
HETATM   36  N   UNL     1     -11.751  15.330  63.981  1.00  0.00    -0.280 NA 
HETATM   37  C   UNL     1     -12.385  14.211  64.401  1.00  0.00    -0.381 A  
HETATM   38  C   UNL     1     -12.452  13.823  65.724  1.00  0.00    -0.527 A  
HETATM   39  C   UNL     1     -11.827  14.627  66.676  1.00  0.00    -0.325 A  
ENDBRANCH  32  34
ENDBRANCH  26  28
ENDBRANCH  21  26
ENDBRANCH  17  19
ENDBRANCH  12  15
ENDBRANCH   8   9
ENDBRANCH   5   8
TORSDOF 7
ENDMDL
MODEL      139
REMARK 921   NORMALIZED FREE ENERGY PREDICTED BY IDOCK:   -2.84 KCAL/MOL
REMARK 922        TOTAL FREE ENERGY PREDICTED BY IDOCK:   -5.15 KCAL/MOL
REMARK 923 INTER-LIGAND FREE ENERGY PREDICTED BY IDOCK:   -4.22 KCAL/MOL
REMARK 924 INTRA-LIGAND FREE ENERGY PREDICTED BY IDOCK:   -0.93 KCAL/MOL
REMARK 927      BINDING AFFINITY PREDICTED BY RF-SCORE:    0.00 PKD
ROOT
HETATM    1  C   UNL     1     -10.067   1.580  68.691  1.00  0.00     0.580 C  
HETATM    2  N   UNL     1      -8.769   2.213  68.930  1.00  0.00    -0.073 NA 
HETATM    3  C   UNL     1      -8.221   2.783  67.683  1.00  0.00    -0.080 C  
HETATM    4  C   UNL     1      -8.880   4.108  67.237  1.00  0.00    -0.116 C  
HETATM    5  N   UNL     1      -8.900   5.162  68.278  1.00  0.00    -0.101 NA 
HETATM    6  C   UNL     1      -8.871   3.263  69.966  1.00  0.00    -0.087 C  
HETATM    7  C   UNL     1      -9.505   4.596  69.497  1.00  0.00    -0.166 C  
ENDROOT
BRANCH   5   8
HETATM    8  C   UNL     1      -7.563   5.732  68.560  1.00  0.00    -0.089 C  
BRANCH   8   9
HETATM    9  C   UNL     1      -7.664   7.136  69.119  1.00  0.00    -0.109 A  
HETATM   10  C   UNL     1      -8.176   8.162  68.316  1.00  0.00    -0.129 A  
HETATM   11  C   UNL     1      -7.965   9.491  68.670  1.00  0.00    -0.092 A  
HETATM   12  C   UNL     1      -7.248   9.807  69.831  1.00  0.00    -0.116 A  
HETATM   13  C   UNL     1      -7.070   7.452  70.349  1.00  0.00    -0.064 A  
HETATM   14  C   UNL     1      -6.853   8.785  70.704  1.00  0.00    -0.050 A  
BRANCH  12  15
HETATM   15  C   UNL     1      -6.796  11.215  69.994  1.00  0.00     0.017 C  
HETATM   16  O   UNL     1      -6.150  11.515  70.993  1.00  0.00    -0.342 OA 
HETATM   17  N   UNL     1      -7.122  12.095  68.973  1.00  0.00    -0.208 N  
HETATM   18  H   UNL     1      -7.642  11.753  68.165  1.00  0.00     0.000 HD 
BRANCH  17  19
HETATM   19  C   UNL     1      -6.748  13.453  69.031  1.00  0.00    -0.108 A  
HETATM   20  C   UNL     1      -7.744  14.382  69.304  1.00  0.00    -0.002 A  
HETATM   21  C   UNL     1      -7.529  15.763  69.138  1.00  0.00    -0.207 A  
HETATM   22  C   UNL     1      -5.456  13.886  68.765  1.00  0.00    -0.082 A  
HETATM   23  C   UNL     1      -6.219  16.202  68.856  1.00  0.00    -0.132 A  
HETATM   24  C   UNL     1      -5.836  17.644  68.664  1.00  0.00    -0.173 C  
HETATM   25  C   UNL     1      -5.186  15.254  68.716  1.00  0.00    -0.095 A  
BRANCH  21  26
HETATM   26  N   UNL     1      -8.632  16.636  69.136  1.00  0.00    -0.171 NA 
HETATM   27  H   UNL     1      -8.409  17.628  69.223  1.00  0.00     0.000 HD 
BRANCH  26  28
HETATM   28  C   UNL     1      -9.990  16.329  69.031  1.00  0.00    -0.256 A  
HETATM   29  N   UNL     1     -10.712  17.058  68.174  1.00  0.00    -0.371 NA 
HETATM   30  C   UNL     1     -12.011  16.732  68.046  1.00  0.00     1.004 A  
HETATM   31  C   UNL     1     -12.616  15.698  68.725  1.00  0.00     0.647 A  
HETATM   32  C   UNL     1     -11.810  14.995  69.593  1.00  0.00    -0.324 A  
HETATM   33  N   UNL     1     -10.513  15.317  69.741  1.00  0.00    -0.274 NA 
BRANCH  32  34
HETATM   34  C   UNL     1     -12.258  13.857  70.417  1.00  0.00    -0.438 A  
HETATM   35  C   UNL     1     -12.092  12.527  70.032  1.00  0.00    -0.266 A  
HETATM   36  N   UNL     1     -12.504  11.448  70.746  1.00  0.00    -0.372 NA 
HETATM   37  C   UNL     1     -13.125  11.699  71.922  1.00  0.00    -0.385 A  
HETATM   38  C   UNL     1     -13.354  12.971  72.408  1.00  0.00    -0.563 A  
HETATM   39  C   UNL     1     -12.914  14.052  71.647  1.00  0.00    -0.430 A  
ENDBRANCH  32  34
ENDBRANCH  26  28
ENDBRANCH  21  26
ENDBRANCH  17  19
ENDBRANCH  12  15
ENDBRANCH   8   9
ENDBRANCH   5   8
TORSDOF 7
ENDMDL
MODEL      140
REMARK 921   NORMALIZED FREE ENERGY PREDICTED BY IDOCK:   -2.83 KCAL/MOL
REMARK 922        TOTAL FREE ENERGY PREDICTED BY IDOCK:   -5.14 KCAL/MOL
REMARK 923 INTER-LIGAND FREE ENERGY PREDICTED BY IDOCK:   -5.55 KCAL/MOL
REMARK 924 INTRA-LIGAND FREE ENERGY PREDICTED BY IDOCK:    0.41 KCAL/MOL
REMARK 927      BINDING AFFINITY PREDICTED BY RF-SCORE:    0.00 PKD
ROOT
HETATM    1  C   UNL     1     -10.315  20.171  65.610  1.00  0.00    -0.210 C  
HETATM    2  N   UNL     1      -9.423  20.171  66.771  1.00  0.00    -0.392 NA 
HETATM    3  C   UNL     1      -9.619  18.957  67.588  1.00  0.00    -0.308 C  
HETATM    4  C   UNL     1      -8.988  17.675  66.998  1.00  0.00    -0.250 C  
HETATM    5  N   UNL     1      -7.550  17.800  66.660  1.00  0.00    -0.218 NA 
HETATM    6  C   UNL     1      -8.009  20.282  66.357  1.00  0.00    -0.198 C  
HETATM    7  C   UNL     1      -7.380  18.982  65.795  1.00  0.00    -0.200 C  
ENDROOT
BRANCH   5   8
HETATM    8  C   UNL     1      -6.675  17.879  67.851  1.00  0.00    -0.193 C  
BRANCH   8   9
HETATM    9  C   UNL     1      -6.807  16.646  68.721  1.00  0.00    -0.180 A  
HETATM   10  C   UNL     1      -5.942  16.473  69.809  1.00  0.00    -0.208 A  
HETATM   11  C   UNL     1      -5.815  15.221  70.401  1.00  0.00    -0.117 A  
HETATM   12  C   UNL     1      -6.556  14.133  69.919  1.00  0.00    -0.082 A  
HETATM   13  C   UNL     1      -7.648  15.594  68.333  1.00  0.00    -0.121 A  
HETATM   14  C   UNL     1      -7.519  14.335  68.922  1.00  0.00    -0.123 A  
BRANCH  12  15
HETATM   15  C   UNL     1      -6.158  12.777  70.382  1.00  0.00    -0.024 C  
HETATM   16  O   UNL     1      -5.530  12.673  71.432  1.00  0.00    -0.343 OA 
HETATM   17  N   UNL     1      -6.556  11.708  69.595  1.00  0.00    -0.224 N  
HETATM   18  H   UNL     1      -7.097  11.884  68.748  1.00  0.00     0.000 HD 
BRANCH  17  19
HETATM   19  C   UNL     1      -6.225  10.382  69.940  1.00  0.00    -0.081 A  
HETATM   20  C   UNL     1      -6.367   9.408  68.959  1.00  0.00    -0.042 A  
HETATM   21  C   UNL     1      -6.305   8.036  69.268  1.00  0.00    -0.035 A  
HETATM   22  C   UNL     1      -5.835  10.017  71.221  1.00  0.00    -0.005 A  
HETATM   23  C   UNL     1      -5.919   7.667  70.573  1.00  0.00    -0.030 A  
HETATM   24  C   UNL     1      -5.799   6.243  71.045  1.00  0.00    -0.026 C  
HETATM   25  C   UNL     1      -5.645   8.668  71.525  1.00  0.00    -0.041 A  
BRANCH  21  26
HETATM   26  N   UNL     1      -6.743   7.097  68.318  1.00  0.00    -0.058 NA 
HETATM   27  H   UNL     1      -6.016   6.701  67.721  1.00  0.00     0.000 HD 
BRANCH  26  28
HETATM   28  C   UNL     1      -8.038   6.632  68.079  1.00  0.00    -0.110 A  
HETATM   29  N   UNL     1      -9.004   7.090  68.881  1.00  0.00    -0.130 NA 
HETATM   30  C   UNL     1     -10.256   6.671  68.622  1.00  0.00    -0.171 A  
HETATM   31  C   UNL     1     -10.586   5.828  67.585  1.00  0.00    -0.313 A  
HETATM   32  C   UNL     1      -9.539   5.395  66.804  1.00  0.00    -0.147 A  
HETATM   33  N   UNL     1      -8.280   5.795  67.059  1.00  0.00    -0.102 NA 
BRANCH  32  34
HETATM   34  C   UNL     1      -9.672   4.487  65.649  1.00  0.00    -0.207 A  
HETATM   35  C   UNL     1     -10.882   4.270  64.989  1.00  0.00    -0.071 A  
HETATM   36  N   UNL     1     -11.058   3.431  63.935  1.00  0.00    -0.248 NA 
HETATM   37  C   UNL     1      -9.966   2.759  63.504  1.00  0.00    -0.141 A  
HETATM   38  C   UNL     1      -8.717   2.884  64.079  1.00  0.00    -0.090 A  
HETATM   39  C   UNL     1      -8.575   3.756  65.157  1.00  0.00    -0.113 A  
ENDBRANCH  32  34
ENDBRANCH  26  28
ENDBRANCH  21  26
ENDBRANCH  17  19
ENDBRANCH  12  15
ENDBRANCH   8   9
ENDBRANCH   5   8
TORSDOF 7
ENDMDL
MODEL      141
REMARK 921   NORMALIZED FREE ENERGY PREDICTED BY IDOCK:   -2.79 KCAL/MOL
REMARK 922        TOTAL FREE ENERGY PREDICTED BY IDOCK:   -5.09 KCAL/MOL
REMARK 923 INTER-LIGAND FREE ENERGY PREDICTED BY IDOCK:   -5.73 KCAL/MOL
REMARK 924 INTRA-LIGAND FREE ENERGY PREDICTED BY IDOCK:    0.63 KCAL/MOL
REMARK 927      BINDING AFFINITY PREDICTED BY RF-SCORE:    0.00 PKD
ROOT
HETATM    1  C   UNL     1     -11.156   2.924  63.935  1.00  0.00     0.278 C  
HETATM    2  N   UNL     1      -9.950   3.753  63.965  1.00  0.00    -0.177 NA 
HETATM    3  C   UNL     1      -9.999   4.716  65.082  1.00  0.00    -0.067 C  
HETATM    4  C   UNL     1      -9.713   4.104  66.473  1.00  0.00    -0.209 C  
HETATM    5  N   UNL     1      -8.449   3.336  66.555  1.00  0.00    -0.103 NA 
HETATM    6  C   UNL     1      -8.733   2.921  64.064  1.00  0.00    -0.090 C  
HETATM    7  C   UNL     1      -8.443   2.338  65.470  1.00  0.00    -0.101 C  
ENDROOT
BRANCH   5   8
HETATM    8  C   UNL     1      -7.241   4.191  66.502  1.00  0.00    -0.075 C  
BRANCH   8   9
HETATM    9  C   UNL     1      -7.602   5.655  66.357  1.00  0.00    -0.091 A  
HETATM   10  C   UNL     1      -7.162   6.366  65.233  1.00  0.00    -0.070 A  
HETATM   11  C   UNL     1      -7.183   7.757  65.241  1.00  0.00    -0.068 A  
HETATM   12  C   UNL     1      -7.650   8.449  66.367  1.00  0.00    -0.084 A  
HETATM   13  C   UNL     1      -8.197   6.345  67.422  1.00  0.00    -0.116 A  
HETATM   14  C   UNL     1      -8.214   7.741  67.434  1.00  0.00    -0.123 A  
BRANCH  12  15
HETATM   15  C   UNL     1      -7.366   9.908  66.436  1.00  0.00    -0.101 C  
HETATM   16  O   UNL     1      -7.476  10.579  65.415  1.00  0.00    -0.145 OA 
HETATM   17  N   UNL     1      -7.019  10.416  67.678  1.00  0.00    -0.082 N  
HETATM   18  H   UNL     1      -6.975   9.789  68.482  1.00  0.00     0.000 HD 
BRANCH  17  19
HETATM   19  C   UNL     1      -6.724  11.783  67.853  1.00  0.00    -0.072 A  
HETATM   20  C   UNL     1      -7.774  12.687  67.742  1.00  0.00    -0.145 A  
HETATM   21  C   UNL     1      -7.547  14.073  67.651  1.00  0.00    -0.179 A  
HETATM   22  C   UNL     1      -5.433  12.250  68.062  1.00  0.00    -0.068 A  
HETATM   23  C   UNL     1      -6.234  14.545  67.852  1.00  0.00    -0.167 A  
HETATM   24  C   UNL     1      -5.843  15.997  67.795  1.00  0.00    -0.162 C  
HETATM   25  C   UNL     1      -5.197  13.625  68.100  1.00  0.00    -0.108 A  
BRANCH  21  26
HETATM   26  N   UNL     1      -8.597  14.916  67.245  1.00  0.00    -0.199 NA 
HETATM   27  H   UNL     1      -8.315  15.825  66.877  1.00  0.00     0.000 HD 
BRANCH  26  28
HETATM   28  C   UNL     1      -9.973  14.679  67.279  1.00  0.00    -0.235 A  
HETATM   29  N   UNL     1     -10.612  14.648  66.105  1.00  0.00    -0.303 NA 
HETATM   30  C   UNL     1     -11.929  14.379  66.140  1.00  0.00    -0.369 A  
HETATM   31  C   UNL     1     -12.633  14.122  67.295  1.00  0.00     0.249 A  
HETATM   32  C   UNL     1     -11.909  14.175  68.465  1.00  0.00    -0.355 A  
HETATM   33  N   UNL     1     -10.594  14.455  68.447  1.00  0.00    -0.241 NA 
BRANCH  32  34
HETATM   34  C   UNL     1     -12.468  13.936  69.808  1.00  0.00    -0.240 A  
HETATM   35  C   UNL     1     -13.307  14.843  70.456  1.00  0.00    -0.105 A  
HETATM   36  N   UNL     1     -13.830  14.677  71.698  1.00  0.00    -0.405 NA 
HETATM   37  C   UNL     1     -13.500  13.537  72.348  1.00  0.00    -0.584 A  
HETATM   38  C   UNL     1     -12.673  12.567  71.817  1.00  0.00    -0.244 A  
HETATM   39  C   UNL     1     -12.158  12.773  70.539  1.00  0.00    -0.369 A  
ENDBRANCH  32  34
ENDBRANCH  26  28
ENDBRANCH  21  26
ENDBRANCH  17  19
ENDBRANCH  12  15
ENDBRANCH   8   9
ENDBRANCH   5   8
TORSDOF 7
ENDMDL
MODEL      142
REMARK 921   NORMALIZED FREE ENERGY PREDICTED BY IDOCK:   -2.74 KCAL/MOL
REMARK 922        TOTAL FREE ENERGY PREDICTED BY IDOCK:   -5.02 KCAL/MOL
REMARK 923 INTER-LIGAND FREE ENERGY PREDICTED BY IDOCK:   -4.75 KCAL/MOL
REMARK 924 INTRA-LIGAND FREE ENERGY PREDICTED BY IDOCK:   -0.27 KCAL/MOL
REMARK 927      BINDING AFFINITY PREDICTED BY RF-SCORE:    0.00 PKD
ROOT
HETATM    1  C   UNL     1      -5.202   3.490  70.955  1.00  0.00    -0.004 C  
HETATM    2  N   UNL     1      -6.485   3.938  70.412  1.00  0.00    -0.031 NA 
HETATM    3  C   UNL     1      -6.652   5.395  70.585  1.00  0.00    -0.039 C  
HETATM    4  C   UNL     1      -5.837   6.258  69.595  1.00  0.00    -0.018 C  
HETATM    5  N   UNL     1      -6.046   5.916  68.168  1.00  0.00    -0.017 NA 
HETATM    6  C   UNL     1      -6.616   3.578  68.984  1.00  0.00    -0.037 C  
HETATM    7  C   UNL     1      -5.817   4.470  68.001  1.00  0.00    -0.022 C  
ENDROOT
BRANCH   5   8
HETATM    8  C   UNL     1      -7.382   6.307  67.663  1.00  0.00    -0.084 C  
BRANCH   8   9
HETATM    9  C   UNL     1      -7.449   7.790  67.358  1.00  0.00    -0.093 A  
HETATM   10  C   UNL     1      -7.970   8.668  68.316  1.00  0.00    -0.110 A  
HETATM   11  C   UNL     1      -8.354   9.952  67.943  1.00  0.00    -0.114 A  
HETATM   12  C   UNL     1      -8.215  10.373  66.613  1.00  0.00    -0.128 A  
HETATM   13  C   UNL     1      -7.180   8.258  66.064  1.00  0.00    -0.072 A  
HETATM   14  C   UNL     1      -7.570   9.544  65.687  1.00  0.00    -0.101 A  
BRANCH  12  15
HETATM   15  C   UNL     1      -8.913  11.624  66.216  1.00  0.00    -0.193 C  
HETATM   16  O   UNL     1      -8.539  12.688  66.701  1.00  0.00    -0.148 OA 
HETATM   17  N   UNL     1      -9.938  11.498  65.291  1.00  0.00    -0.250 N  
HETATM   18  H   UNL     1     -10.168  10.576  64.921  1.00  0.00     0.000 HD 
BRANCH  17  19
HETATM   19  C   UNL     1     -10.669  12.621  64.852  1.00  0.00    -0.299 A  
HETATM   20  C   UNL     1     -10.063  13.866  64.964  1.00  0.00    -0.319 A  
HETATM   21  C   UNL     1     -10.791  15.058  64.791  1.00  0.00    -0.355 A  
HETATM   22  C   UNL     1     -11.972  12.528  64.382  1.00  0.00    -0.476 A  
HETATM   23  C   UNL     1     -12.119  14.963  64.325  1.00  0.00    -0.373 A  
HETATM   24  C   UNL     1     -13.014  16.148  64.083  1.00  0.00     2.234 C  
HETATM   25  C   UNL     1     -12.679  13.694  64.084  1.00  0.00    -0.008 A  
BRANCH  21  26
HETATM   26  N   UNL     1     -10.222  16.277  65.200  1.00  0.00    -0.558 NA 
HETATM   27  H   UNL     1      -9.826  16.851  64.455  1.00  0.00     0.000 HD 
BRANCH  26  28
HETATM   28  C   UNL     1     -10.127  16.810  66.488  1.00  0.00    -0.315 A  
HETATM   29  N   UNL     1     -10.963  16.323  67.409  1.00  0.00    -0.236 NA 
HETATM   30  C   UNL     1     -10.840  16.810  68.657  1.00  0.00    -0.336 A  
HETATM   31  C   UNL     1      -9.905  17.751  69.027  1.00  0.00    -0.225 A  
HETATM   32  C   UNL     1      -9.081  18.208  68.024  1.00  0.00    -0.283 A  
HETATM   33  N   UNL     1      -9.201  17.740  66.769  1.00  0.00    -0.265 NA 
BRANCH  32  34
HETATM   34  C   UNL     1      -8.018  19.215  68.204  1.00  0.00    -0.339 A  
HETATM   35  C   UNL     1      -7.502  19.973  67.153  1.00  0.00    -0.271 A  
HETATM   36  N   UNL     1      -6.512  20.896  67.266  1.00  0.00    -0.296 NA 
HETATM   37  C   UNL     1      -5.994  21.082  68.502  1.00  0.00    -0.276 A  
HETATM   38  C   UNL     1      -6.415  20.388  69.619  1.00  0.00    -0.197 A  
HETATM   39  C   UNL     1      -7.434  19.451  69.463  1.00  0.00    -0.099 A  
ENDBRANCH  32  34
ENDBRANCH  26  28
ENDBRANCH  21  26
ENDBRANCH  17  19
ENDBRANCH  12  15
ENDBRANCH   8   9
ENDBRANCH   5   8
TORSDOF 7
ENDMDL
MODEL      143
REMARK 921   NORMALIZED FREE ENERGY PREDICTED BY IDOCK:   -2.74 KCAL/MOL
REMARK 922        TOTAL FREE ENERGY PREDICTED BY IDOCK:   -5.01 KCAL/MOL
REMARK 923 INTER-LIGAND FREE ENERGY PREDICTED BY IDOCK:   -5.29 KCAL/MOL
REMARK 924 INTRA-LIGAND FREE ENERGY PREDICTED BY IDOCK:    0.28 KCAL/MOL
REMARK 927      BINDING AFFINITY PREDICTED BY RF-SCORE:    0.00 PKD
ROOT
HETATM    1  C   UNL     1     -10.260   1.504  69.937  1.00  0.00     0.684 C  
HETATM    2  N   UNL     1      -8.996   2.216  70.126  1.00  0.00    -0.078 NA 
HETATM    3  C   UNL     1      -7.904   1.564  69.378  1.00  0.00    -0.041 C  
HETATM    4  C   UNL     1      -7.920   1.826  67.854  1.00  0.00    -0.058 C  
HETATM    5  N   UNL     1      -7.969   3.260  67.482  1.00  0.00    -0.077 NA 
HETATM    6  C   UNL     1      -9.115   3.632  69.719  1.00  0.00    -0.124 C  
HETATM    7  C   UNL     1      -9.101   3.884  68.190  1.00  0.00    -0.142 C  
ENDROOT
BRANCH   5   8
HETATM    8  C   UNL     1      -6.704   3.979  67.757  1.00  0.00    -0.047 C  
BRANCH   8   9
HETATM    9  C   UNL     1      -6.931   5.470  67.893  1.00  0.00    -0.066 A  
HETATM   10  C   UNL     1      -6.747   6.300  66.781  1.00  0.00    -0.061 A  
HETATM   11  C   UNL     1      -6.615   7.675  66.955  1.00  0.00    -0.062 A  
HETATM   12  C   UNL     1      -6.672   8.232  68.239  1.00  0.00    -0.065 A  
HETATM   13  C   UNL     1      -7.129   6.043  69.158  1.00  0.00    -0.070 A  
HETATM   14  C   UNL     1      -6.991   7.421  69.335  1.00  0.00    -0.061 A  
BRANCH  12  15
HETATM   15  C   UNL     1      -6.225   9.642  68.392  1.00  0.00    -0.047 C  
HETATM   16  O   UNL     1      -5.182   9.868  68.998  1.00  0.00    -0.036 OA 
HETATM   17  N   UNL     1      -7.020  10.615  67.805  1.00  0.00    -0.077 N  
HETATM   18  H   UNL     1      -7.860  10.336  67.298  1.00  0.00     0.000 HD 
BRANCH  17  19
HETATM   19  C   UNL     1      -6.690  11.982  67.896  1.00  0.00    -0.080 A  
HETATM   20  C   UNL     1      -7.735  12.886  68.048  1.00  0.00    -0.143 A  
HETATM   21  C   UNL     1      -7.538  14.272  67.900  1.00  0.00    -0.153 A  
HETATM   22  C   UNL     1      -5.388  12.448  67.775  1.00  0.00    -0.095 A  
HETATM   23  C   UNL     1      -6.216  14.743  67.765  1.00  0.00    -0.157 A  
HETATM   24  C   UNL     1      -5.850  16.195  67.608  1.00  0.00    -0.174 C  
HETATM   25  C   UNL     1      -5.150  13.823  67.749  1.00  0.00    -0.011 A  
BRANCH  21  26
HETATM   26  N   UNL     1      -8.655  15.115  67.767  1.00  0.00    -0.148 NA 
HETATM   27  H   UNL     1      -8.457  16.062  67.442  1.00  0.00     0.000 HD 
BRANCH  26  28
HETATM   28  C   UNL     1     -10.000  14.833  68.019  1.00  0.00    -0.218 A  
HETATM   29  N   UNL     1     -10.694  14.259  67.032  1.00  0.00    -0.287 NA 
HETATM   30  C   UNL     1     -11.978  13.952  67.293  1.00  0.00    -0.411 A  
HETATM   31  C   UNL     1     -12.592  14.178  68.505  1.00  0.00     0.491 A  
HETATM   32  C   UNL     1     -11.815  14.775  69.472  1.00  0.00    -0.326 A  
HETATM   33  N   UNL     1     -10.534  15.099  69.221  1.00  0.00    -0.250 NA 
BRANCH  32  34
HETATM   34  C   UNL     1     -12.277  15.107  70.832  1.00  0.00    -0.398 A  
HETATM   35  C   UNL     1     -11.457  15.709  71.788  1.00  0.00    -0.423 A  
HETATM   36  N   UNL     1     -11.831  16.016  73.057  1.00  0.00    -0.459 NA 
HETATM   37  C   UNL     1     -13.100  15.706  73.409  1.00  0.00    -0.554 A  
HETATM   38  C   UNL     1     -14.002  15.103  72.556  1.00  0.00    -0.585 A  
HETATM   39  C   UNL     1     -13.583  14.805  71.261  1.00  0.00    -0.480 A  
ENDBRANCH  32  34
ENDBRANCH  26  28
ENDBRANCH  21  26
ENDBRANCH  17  19
ENDBRANCH  12  15
ENDBRANCH   8   9
ENDBRANCH   5   8
TORSDOF 7
ENDMDL
MODEL      144
REMARK 921   NORMALIZED FREE ENERGY PREDICTED BY IDOCK:   -2.31 KCAL/MOL
REMARK 922        TOTAL FREE ENERGY PREDICTED BY IDOCK:   -4.41 KCAL/MOL
REMARK 923 INTER-LIGAND FREE ENERGY PREDICTED BY IDOCK:   -4.15 KCAL/MOL
REMARK 924 INTRA-LIGAND FREE ENERGY PREDICTED BY IDOCK:   -0.26 KCAL/MOL
REMARK 927      BINDING AFFINITY PREDICTED BY RF-SCORE:    0.00 PKD
ROOT
HETATM    1  C   UNL     1      -6.163   4.105  62.334  1.00  0.00    -0.017 C  
HETATM    2  N   UNL     1      -5.994   3.140  63.422  1.00  0.00    -0.013 NA 
HETATM    3  C   UNL     1      -6.441   3.710  64.708  1.00  0.00    -0.035 C  
HETATM    4  C   UNL     1      -7.976   3.770  64.887  1.00  0.00    -0.090 C  
HETATM    5  N   UNL     1      -8.668   2.479  64.667  1.00  0.00    -0.103 NA 
HETATM    6  C   UNL     1      -6.725   1.886  63.141  1.00  0.00    -0.022 C  
HETATM    7  C   UNL     1      -8.258   1.952  63.353  1.00  0.00    -0.072 C  
ENDROOT
BRANCH   5   8
HETATM    8  C   UNL     1      -8.418   1.490  65.741  1.00  0.00    -0.100 C  
BRANCH   8   9
HETATM    9  C   UNL     1      -8.400   2.146  67.106  1.00  0.00    -0.088 A  
HETATM   10  C   UNL     1      -9.532   2.839  67.553  1.00  0.00    -0.136 A  
HETATM   11  C   UNL     1      -9.427   3.720  68.625  1.00  0.00    -0.215 A  
HETATM   12  C   UNL     1      -8.194   3.911  69.264  1.00  0.00    -0.072 A  
HETATM   13  C   UNL     1      -7.204   2.233  67.833  1.00  0.00    -0.048 A  
HETATM   14  C   UNL     1      -7.096   3.120  68.905  1.00  0.00    -0.049 A  
BRANCH  12  15
HETATM   15  C   UNL     1      -8.076   5.072  70.186  1.00  0.00    -0.081 C  
HETATM   16  O   UNL     1      -8.893   5.984  70.094  1.00  0.00    -0.140 OA 
HETATM   17  N   UNL     1      -7.050   5.026  71.117  1.00  0.00    -0.051 N  
HETATM   18  H   UNL     1      -6.430   4.216  71.139  1.00  0.00     0.000 HD 
BRANCH  17  19
HETATM   19  C   UNL     1      -6.845   6.078  72.033  1.00  0.00    -0.072 A  
HETATM   20  C   UNL     1      -7.079   7.373  71.588  1.00  0.00    -0.062 A  
HETATM   21  C   UNL     1      -6.670   8.494  72.333  1.00  0.00    -0.077 A  
HETATM   22  C   UNL     1      -6.365   5.868  73.319  1.00  0.00    -0.067 A  
HETATM   23  C   UNL     1      -6.172   8.279  73.635  1.00  0.00    -0.122 A  
HETATM   24  C   UNL     1      -5.708   9.378  74.552  1.00  0.00    -0.068 C  
HETATM   25  C   UNL     1      -6.067   6.964  74.129  1.00  0.00    -0.063 A  
BRANCH  21  26
HETATM   26  N   UNL     1      -6.656   9.760  71.721  1.00  0.00    -0.200 NA 
HETATM   27  H   UNL     1      -6.634  10.557  72.358  1.00  0.00     0.000 HD 
BRANCH  26  28
HETATM   28  C   UNL     1      -6.667  10.074  70.360  1.00  0.00    -0.138 A  
HETATM   29  N   UNL     1      -5.515   9.935  69.697  1.00  0.00    -0.037 NA 
HETATM   30  C   UNL     1      -5.540  10.200  68.378  1.00  0.00    -0.038 A  
HETATM   31  C   UNL     1      -6.671  10.580  67.691  1.00  0.00    -0.073 A  
HETATM   32  C   UNL     1      -7.818  10.706  68.441  1.00  0.00    -0.113 A  
HETATM   33  N   UNL     1      -7.806  10.457  69.763  1.00  0.00    -0.138 NA 
BRANCH  32  34
HETATM   34  C   UNL     1      -9.132  11.105  67.904  1.00  0.00    -0.150 A  
HETATM   35  C   UNL     1     -10.341  10.702  68.473  1.00  0.00    -0.183 A  
HETATM   36  N   UNL     1     -11.573  11.027  68.004  1.00  0.00    -0.522 NA 
HETATM   37  C   UNL     1     -11.617  11.802  66.896  1.00  0.00    -0.234 A  
HETATM   38  C   UNL     1     -10.492  12.259  66.240  1.00  0.00    -0.266 A  
HETATM   39  C   UNL     1      -9.245  11.906  66.752  1.00  0.00    -0.194 A  
ENDBRANCH  32  34
ENDBRANCH  26  28
ENDBRANCH  21  26
ENDBRANCH  17  19
ENDBRANCH  12  15
ENDBRANCH   8   9
ENDBRANCH   5   8
TORSDOF 7
ENDMDL
MODEL      145
REMARK 921   NORMALIZED FREE ENERGY PREDICTED BY IDOCK:   -2.29 KCAL/MOL
REMARK 922        TOTAL FREE ENERGY PREDICTED BY IDOCK:   -4.38 KCAL/MOL
REMARK 923 INTER-LIGAND FREE ENERGY PREDICTED BY IDOCK:   -6.04 KCAL/MOL
REMARK 924 INTRA-LIGAND FREE ENERGY PREDICTED BY IDOCK:    1.66 KCAL/MOL
REMARK 927      BINDING AFFINITY PREDICTED BY RF-SCORE:    0.00 PKD
ROOT
HETATM    1  C   UNL     1      -7.252  17.132  68.797  1.00  0.00    -0.232 C  
HETATM    2  N   UNL     1      -7.805  16.080  67.943  1.00  0.00    -0.135 NA 
HETATM    3  C   UNL     1      -9.043  15.523  68.524  1.00  0.00    -0.196 C  
HETATM    4  C   UNL     1     -10.290  16.423  68.366  1.00  0.00    -0.282 C  
HETATM    5  N   UNL     1     -10.563  16.851  66.973  1.00  0.00    -0.276 NA 
HETATM    6  C   UNL     1      -8.067  16.583  66.578  1.00  0.00    -0.306 C  
HETATM    7  C   UNL     1      -9.336  17.459  66.428  1.00  0.00    -0.252 C  
ENDROOT
BRANCH   5   8
HETATM    8  C   UNL     1     -11.044  15.751  66.107  1.00  0.00    -0.078 C  
BRANCH   8   9
HETATM    9  C   UNL     1     -10.650  14.396  66.659  1.00  0.00    -0.282 A  
HETATM   10  C   UNL     1      -9.700  13.625  65.978  1.00  0.00    -0.239 A  
HETATM   11  C   UNL     1      -9.575  12.268  66.262  1.00  0.00    -0.248 A  
HETATM   12  C   UNL     1     -10.393  11.672  67.232  1.00  0.00    -0.232 A  
HETATM   13  C   UNL     1     -11.365  13.830  67.723  1.00  0.00    -0.331 A  
HETATM   14  C   UNL     1     -11.246  12.468  68.006  1.00  0.00    -0.316 A  
BRANCH  12  15
HETATM   15  C   UNL     1     -10.429  10.186  67.275  1.00  0.00    -0.256 C  
HETATM   16  O   UNL     1     -11.458   9.611  66.933  1.00  0.00     0.460 OA 
HETATM   17  N   UNL     1      -9.267   9.546  67.680  1.00  0.00    -0.124 N  
HETATM   18  H   UNL     1      -8.448  10.103  67.924  1.00  0.00     0.000 HD 
BRANCH  17  19
HETATM   19  C   UNL     1      -9.197   8.141  67.762  1.00  0.00    -0.134 A  
HETATM   20  C   UNL     1     -10.156   7.493  68.531  1.00  0.00    -0.198 A  
HETATM   21  C   UNL     1     -10.029   6.135  68.878  1.00  0.00    -0.152 A  
HETATM   22  C   UNL     1      -8.182   7.406  67.165  1.00  0.00    -0.118 A  
HETATM   23  C   UNL     1      -8.990   5.392  68.279  1.00  0.00    -0.112 A  
HETATM   24  C   UNL     1      -8.737   3.933  68.545  1.00  0.00    -0.131 C  
HETATM   25  C   UNL     1      -8.103   6.032  67.392  1.00  0.00    -0.106 A  
BRANCH  21  26
HETATM   26  N   UNL     1     -10.850   5.603  69.887  1.00  0.00    -0.334 NA 
HETATM   27  H   UNL     1     -11.740   5.215  69.573  1.00  0.00     0.000 HD 
BRANCH  26  28
HETATM   28  C   UNL     1     -10.614   5.533  71.262  1.00  0.00    -0.236 A  
HETATM   29  N   UNL     1     -11.518   4.882  72.000  1.00  0.00     0.325 NA 
HETATM   30  C   UNL     1     -11.265   4.783  73.318  1.00  0.00    -0.340 A  
HETATM   31  C   UNL     1     -10.138   5.289  73.926  1.00  0.00    -0.232 A  
HETATM   32  C   UNL     1      -9.255   5.950  73.102  1.00  0.00    -0.133 A  
HETATM   33  N   UNL     1      -9.500   6.069  71.785  1.00  0.00    -0.152 NA 
BRANCH  32  34
HETATM   34  C   UNL     1      -7.993   6.569  73.550  1.00  0.00    -0.094 A  
HETATM   35  C   UNL     1      -7.720   7.929  73.404  1.00  0.00    -0.149 A  
HETATM   36  N   UNL     1      -6.568   8.541  73.782  1.00  0.00    -0.207 NA 
HETATM   37  C   UNL     1      -5.618   7.756  74.340  1.00  0.00    -0.073 A  
HETATM   38  C   UNL     1      -5.767   6.397  74.531  1.00  0.00    -0.059 A  
HETATM   39  C   UNL     1      -6.964   5.806  74.133  1.00  0.00    -0.081 A  
ENDBRANCH  32  34
ENDBRANCH  26  28
ENDBRANCH  21  26
ENDBRANCH  17  19
ENDBRANCH  12  15
ENDBRANCH   8   9
ENDBRANCH   5   8
TORSDOF 7
ENDMDL
MODEL      146
REMARK 921   NORMALIZED FREE ENERGY PREDICTED BY IDOCK:   -1.99 KCAL/MOL
REMARK 922        TOTAL FREE ENERGY PREDICTED BY IDOCK:   -3.95 KCAL/MOL
REMARK 923 INTER-LIGAND FREE ENERGY PREDICTED BY IDOCK:   -3.31 KCAL/MOL
REMARK 924 INTRA-LIGAND FREE ENERGY PREDICTED BY IDOCK:   -0.65 KCAL/MOL
REMARK 927      BINDING AFFINITY PREDICTED BY RF-SCORE:    0.00 PKD
ROOT
HETATM    1  C   UNL     1     -10.604  17.415  64.495  1.00  0.00     2.027 C  
HETATM    2  N   UNL     1     -11.528  16.519  65.191  1.00  0.00     0.157 NA 
HETATM    3  C   UNL     1     -11.653  15.231  64.481  1.00  0.00    -0.312 C  
HETATM    4  C   UNL     1     -10.452  14.275  64.667  1.00  0.00    -0.298 C  
HETATM    5  N   UNL     1     -10.094  14.011  66.080  1.00  0.00    -0.300 NA 
HETATM    6  C   UNL     1     -11.099  16.290  66.587  1.00  0.00     0.104 C  
HETATM    7  C   UNL     1      -9.915  15.306  66.761  1.00  0.00    -0.242 C  
ENDROOT
BRANCH   5   8
HETATM    8  C   UNL     1     -11.086  13.168  66.787  1.00  0.00    -0.289 C  
BRANCH   8   9
HETATM    9  C   UNL     1     -10.876  11.697  66.492  1.00  0.00    -0.328 A  
HETATM   10  C   UNL     1     -10.682  10.802  67.551  1.00  0.00    -0.312 A  
HETATM   11  C   UNL     1     -10.157   9.538  67.303  1.00  0.00    -0.272 A  
HETATM   12  C   UNL     1      -9.828   9.154  65.996  1.00  0.00    -0.342 A  
HETATM   13  C   UNL     1     -10.679  11.262  65.174  1.00  0.00    -0.312 A  
HETATM   14  C   UNL     1     -10.147   9.996  64.923  1.00  0.00    -0.184 A  
BRANCH  12  15
HETATM   15  C   UNL     1      -8.999   7.930  65.832  1.00  0.00    -0.123 C  
HETATM   16  O   UNL     1      -7.834   8.051  65.465  1.00  0.00    -0.094 OA 
HETATM   17  N   UNL     1      -9.606   6.721  66.137  1.00  0.00    -0.391 N  
HETATM   18  H   UNL     1     -10.574   6.715  66.459  1.00  0.00     0.000 HD 
BRANCH  17  19
HETATM   19  C   UNL     1      -8.912   5.501  66.009  1.00  0.00    -0.152 A  
HETATM   20  C   UNL     1      -8.459   4.895  67.174  1.00  0.00    -0.105 A  
HETATM   21  C   UNL     1      -7.551   3.820  67.141  1.00  0.00    -0.079 A  
HETATM   22  C   UNL     1      -8.617   4.933  64.778  1.00  0.00    -0.149 A  
HETATM   23  C   UNL     1      -7.243   3.251  65.888  1.00  0.00    -0.071 A  
HETATM   24  C   UNL     1      -6.300   2.094  65.698  1.00  0.00    -0.024 C  
HETATM   25  C   UNL     1      -7.818   3.791  64.721  1.00  0.00    -0.085 A  
BRANCH  21  26
HETATM   26  N   UNL     1      -6.896   3.435  68.325  1.00  0.00    -0.048 NA 
HETATM   27  H   UNL     1      -6.330   2.589  68.260  1.00  0.00     0.000 HD 
BRANCH  26  28
HETATM   28  C   UNL     1      -6.915   4.055  69.576  1.00  0.00    -0.045 A  
HETATM   29  N   UNL     1      -6.125   5.120  69.738  1.00  0.00    -0.021 NA 
HETATM   30  C   UNL     1      -6.177   5.738  70.932  1.00  0.00    -0.034 A  
HETATM   31  C   UNL     1      -6.998   5.347  71.965  1.00  0.00    -0.079 A  
HETATM   32  C   UNL     1      -7.780   4.239  71.727  1.00  0.00    -0.075 A  
HETATM   33  N   UNL     1      -7.730   3.604  70.543  1.00  0.00    -0.047 NA 
BRANCH  32  34
HETATM   34  C   UNL     1      -8.724   3.654  72.698  1.00  0.00    -0.102 A  
HETATM   35  C   UNL     1      -8.867   2.279  72.884  1.00  0.00    -0.067 A  
HETATM   36  N   UNL     1      -9.734   1.693  73.750  1.00  0.00    -0.071 NA 
HETATM   37  C   UNL     1     -10.515   2.521  74.482  1.00  0.00    -0.138 A  
HETATM   38  C   UNL     1     -10.471   3.897  74.382  1.00  0.00    -0.269 A  
HETATM   39  C   UNL     1      -9.567   4.461  73.484  1.00  0.00    -0.135 A  
ENDBRANCH  32  34
ENDBRANCH  26  28
ENDBRANCH  21  26
ENDBRANCH  17  19
ENDBRANCH  12  15
ENDBRANCH   8   9
ENDBRANCH   5   8
TORSDOF 7
ENDMDL
MODEL      147
REMARK 921   NORMALIZED FREE ENERGY PREDICTED BY IDOCK:   -1.96 KCAL/MOL
REMARK 922        TOTAL FREE ENERGY PREDICTED BY IDOCK:   -3.91 KCAL/MOL
REMARK 923 INTER-LIGAND FREE ENERGY PREDICTED BY IDOCK:   -3.53 KCAL/MOL
REMARK 924 INTRA-LIGAND FREE ENERGY PREDICTED BY IDOCK:   -0.38 KCAL/MOL
REMARK 927      BINDING AFFINITY PREDICTED BY RF-SCORE:    0.00 PKD
ROOT
HETATM    1  C   UNL     1     -10.569   2.493  63.154  1.00  0.00    -0.199 C  
HETATM    2  N   UNL     1      -9.289   3.058  63.585  1.00  0.00    -0.096 NA 
HETATM    3  C   UNL     1      -9.494   4.279  64.389  1.00  0.00    -0.149 C  
HETATM    4  C   UNL     1      -9.965   4.023  65.840  1.00  0.00    -0.134 C  
HETATM    5  N   UNL     1      -9.111   3.083  66.603  1.00  0.00    -0.158 NA 
HETATM    6  C   UNL     1      -8.501   2.071  64.353  1.00  0.00    -0.087 C  
HETATM    7  C   UNL     1      -8.966   1.846  65.814  1.00  0.00    -0.103 C  
ENDROOT
BRANCH   5   8
HETATM    8  C   UNL     1      -7.790   3.649  66.958  1.00  0.00    -0.080 C  
BRANCH   8   9
HETATM    9  C   UNL     1      -7.862   5.149  67.153  1.00  0.00    -0.096 A  
HETATM   10  C   UNL     1      -8.458   5.667  68.310  1.00  0.00    -0.105 A  
HETATM   11  C   UNL     1      -8.840   7.004  68.355  1.00  0.00    -0.123 A  
HETATM   12  C   UNL     1      -8.624   7.837  67.249  1.00  0.00    -0.128 A  
HETATM   13  C   UNL     1      -7.521   6.016  66.105  1.00  0.00    -0.085 A  
HETATM   14  C   UNL     1      -7.907   7.357  66.146  1.00  0.00    -0.107 A  
BRANCH  12  15
HETATM   15  C   UNL     1      -9.318   9.153  67.240  1.00  0.00    -0.135 C  
HETATM   16  O   UNL     1      -9.568   9.695  68.312  1.00  0.00    -0.139 OA 
HETATM   17  N   UNL     1      -9.612   9.693  65.997  1.00  0.00    -0.221 N  
HETATM   18  H   UNL     1      -9.346   9.184  65.154  1.00  0.00     0.000 HD 
BRANCH  17  19
HETATM   19  C   UNL     1     -10.274  10.931  65.877  1.00  0.00    -0.257 A  
HETATM   20  C   UNL     1      -9.507  12.040  65.540  1.00  0.00    -0.116 A  
HETATM   21  C   UNL     1     -10.018  13.348  65.639  1.00  0.00    -0.235 A  
HETATM   22  C   UNL     1     -11.628  11.086  66.142  1.00  0.00     0.612 A  
HETATM   23  C   UNL     1     -11.391  13.504  65.920  1.00  0.00    -0.321 A  
HETATM   24  C   UNL     1     -12.079  14.836  66.044  1.00  0.00    -0.101 C  
HETATM   25  C   UNL     1     -12.191  12.363  66.125  1.00  0.00    -0.119 A  
BRANCH  21  26
HETATM   26  N   UNL     1      -9.133  14.439  65.578  1.00  0.00    -0.069 NA 
HETATM   27  H   UNL     1      -9.084  14.917  64.679  1.00  0.00     0.000 HD 
BRANCH  26  28
HETATM   28  C   UNL     1      -8.312  14.957  66.583  1.00  0.00    -0.024 A  
HETATM   29  N   UNL     1      -8.174  16.285  66.628  1.00  0.00    -0.251 NA 
HETATM   30  C   UNL     1      -7.415  16.781  67.622  1.00  0.00    -0.153 A  
HETATM   31  C   UNL     1      -6.803  16.008  68.583  1.00  0.00    -0.131 A  
HETATM   32  C   UNL     1      -6.988  14.648  68.469  1.00  0.00    -0.110 A  
HETATM   33  N   UNL     1      -7.733  14.137  67.473  1.00  0.00    -0.177 NA 
BRANCH  32  34
HETATM   34  C   UNL     1      -6.419  13.645  69.388  1.00  0.00    -0.106 A  
HETATM   35  C   UNL     1      -6.533  13.733  70.776  1.00  0.00     0.292 A  
HETATM   36  N   UNL     1      -6.010  12.846  71.662  1.00  0.00     0.079 NA 
HETATM   37  C   UNL     1      -5.326  11.800  71.142  1.00  0.00    -0.063 A  
HETATM   38  C   UNL     1      -5.139  11.607  69.789  1.00  0.00    -0.063 A  
HETATM   39  C   UNL     1      -5.692  12.538  68.911  1.00  0.00    -0.068 A  
ENDBRANCH  32  34
ENDBRANCH  26  28
ENDBRANCH  21  26
ENDBRANCH  17  19
ENDBRANCH  12  15
ENDBRANCH   8   9
ENDBRANCH   5   8
TORSDOF 7
ENDMDL
MODEL      148
REMARK 921   NORMALIZED FREE ENERGY PREDICTED BY IDOCK:   -1.80 KCAL/MOL
REMARK 922        TOTAL FREE ENERGY PREDICTED BY IDOCK:   -3.69 KCAL/MOL
REMARK 923 INTER-LIGAND FREE ENERGY PREDICTED BY IDOCK:   -3.01 KCAL/MOL
REMARK 924 INTRA-LIGAND FREE ENERGY PREDICTED BY IDOCK:   -0.68 KCAL/MOL
REMARK 927      BINDING AFFINITY PREDICTED BY RF-SCORE:    0.00 PKD
ROOT
HETATM    1  C   UNL     1     -10.644   5.199  70.692  1.00  0.00    -0.144 C  
HETATM    2  N   UNL     1     -10.630   6.270  71.690  1.00  0.00    -0.221 NA 
HETATM    3  C   UNL     1     -10.557   7.595  71.043  1.00  0.00    -0.217 C  
HETATM    4  C   UNL     1     -11.885   8.080  70.419  1.00  0.00     0.085 C  
HETATM    5  N   UNL     1     -13.040   8.062  71.347  1.00  0.00    -0.277 NA 
HETATM    6  C   UNL     1     -11.817   6.197  72.567  1.00  0.00    -0.176 C  
HETATM    7  C   UNL     1     -13.135   6.715  71.938  1.00  0.00    -0.056 C  
ENDROOT
BRANCH   5   8
HETATM    8  C   UNL     1     -12.963   9.102  72.397  1.00  0.00    -0.398 C  
BRANCH   8   9
HETATM    9  C   UNL     1     -13.202  10.486  71.827  1.00  0.00    -0.522 A  
HETATM   10  C   UNL     1     -13.382  10.641  70.447  1.00  0.00     0.220 A  
HETATM   11  C   UNL     1     -13.261  11.901  69.869  1.00  0.00     1.354 A  
HETATM   12  C   UNL     1     -12.967  13.017  70.664  1.00  0.00     0.044 A  
HETATM   13  C   UNL     1     -13.048  11.620  72.636  1.00  0.00     1.206 A  
HETATM   14  C   UNL     1     -12.921  12.884  72.058  1.00  0.00    -0.385 A  
BRANCH  12  15
HETATM   15  C   UNL     1     -12.553  14.262  69.966  1.00  0.00    -0.225 C  
HETATM   16  O   UNL     1     -13.394  15.133  69.763  1.00  0.00     0.368 OA 
HETATM   17  N   UNL     1     -11.216  14.363  69.612  1.00  0.00    -0.313 N  
HETATM   18  H   UNL     1     -10.579  13.600  69.841  1.00  0.00     0.000 HD 
BRANCH  17  19
HETATM   19  C   UNL     1     -10.721  15.499  68.940  1.00  0.00    -0.242 A  
HETATM   20  C   UNL     1     -10.943  15.584  67.571  1.00  0.00    -0.316 A  
HETATM   21  C   UNL     1     -10.283  16.538  66.775  1.00  0.00    -0.295 A  
HETATM   22  C   UNL     1      -9.977  16.482  69.579  1.00  0.00    -0.119 A  
HETATM   23  C   UNL     1      -9.518  17.530  67.424  1.00  0.00    -0.255 A  
HETATM   24  C   UNL     1      -8.767  18.619  66.707  1.00  0.00    -0.294 C  
HETATM   25  C   UNL     1      -9.411  17.513  68.828  1.00  0.00    -0.249 A  
BRANCH  21  26
HETATM   26  N   UNL     1     -10.305  16.401  65.375  1.00  0.00    -0.593 NA 
HETATM   27  H   UNL     1      -9.806  17.121  64.853  1.00  0.00     0.000 HD 
BRANCH  26  28
HETATM   28  C   UNL     1     -10.919  15.412  64.602  1.00  0.00    -0.314 A  
HETATM   29  N   UNL     1     -11.972  15.783  63.868  1.00  0.00    -0.602 NA 
HETATM   30  C   UNL     1     -12.533  14.837  63.094  1.00  0.00     1.736 A  
HETATM   31  C   UNL     1     -12.077  13.540  63.010  1.00  0.00     0.252 A  
HETATM   32  C   UNL     1     -10.991  13.232  63.798  1.00  0.00    -0.084 A  
HETATM   33  N   UNL     1     -10.427  14.164  64.586  1.00  0.00    -0.414 NA 
BRANCH  32  34
HETATM   34  C   UNL     1     -10.350  11.905  63.860  1.00  0.00    -0.426 A  
HETATM   35  C   UNL     1      -9.869  11.239  62.733  1.00  0.00    -0.205 A  
HETATM   36  N   UNL     1      -9.289  10.011  62.738  1.00  0.00    -0.287 NA 
HETATM   37  C   UNL     1      -9.179   9.395  63.938  1.00  0.00     0.074 A  
HETATM   38  C   UNL     1      -9.624   9.948  65.122  1.00  0.00    -0.367 A  
HETATM   39  C   UNL     1     -10.211  11.211  65.077  1.00  0.00    -0.354 A  
ENDBRANCH  32  34
ENDBRANCH  26  28
ENDBRANCH  21  26
ENDBRANCH  17  19
ENDBRANCH  12  15
ENDBRANCH   8   9
ENDBRANCH   5   8
TORSDOF 7
ENDMDL
MODEL      149
REMARK 921   NORMALIZED FREE ENERGY PREDICTED BY IDOCK:   -1.79 KCAL/MOL
REMARK 922        TOTAL FREE ENERGY PREDICTED BY IDOCK:   -3.67 KCAL/MOL
REMARK 923 INTER-LIGAND FREE ENERGY PREDICTED BY IDOCK:   -7.05 KCAL/MOL
REMARK 924 INTRA-LIGAND FREE ENERGY PREDICTED BY IDOCK:    3.38 KCAL/MOL
REMARK 927      BINDING AFFINITY PREDICTED BY RF-SCORE:    0.00 PKD
ROOT
HETATM    1  C   UNL     1      -8.799   6.228  65.362  1.00  0.00     0.016 C  
HETATM    2  N   UNL     1      -8.250   6.537  66.684  1.00  0.00    -0.110 NA 
HETATM    3  C   UNL     1      -9.257   7.205  67.531  1.00  0.00    -0.125 C  
HETATM    4  C   UNL     1     -10.340   6.265  68.108  1.00  0.00    -0.195 C  
HETATM    5  N   UNL     1      -9.805   5.089  68.835  1.00  0.00    -0.167 NA 
HETATM    6  C   UNL     1      -7.753   5.317  67.353  1.00  0.00    -0.096 C  
HETATM    7  C   UNL     1      -8.847   4.398  67.953  1.00  0.00    -0.109 C  
ENDROOT
BRANCH   5   8
HETATM    8  C   UNL     1      -9.183   5.437  70.132  1.00  0.00    -0.140 C  
BRANCH   8   9
HETATM    9  C   UNL     1      -8.699   6.873  70.149  1.00  0.00    -0.141 A  
HETATM   10  C   UNL     1      -9.631   7.913  70.241  1.00  0.00    -0.171 A  
HETATM   11  C   UNL     1      -9.254   9.213  69.919  1.00  0.00    -0.194 A  
HETATM   12  C   UNL     1      -7.941   9.486  69.510  1.00  0.00    -0.110 A  
HETATM   13  C   UNL     1      -7.356   7.169  69.877  1.00  0.00    -0.084 A  
HETATM   14  C   UNL     1      -6.976   8.472  69.548  1.00  0.00    -0.048 A  
BRANCH  12  15
HETATM   15  C   UNL     1      -7.681  10.814  68.894  1.00  0.00    -0.129 C  
HETATM   16  O   UNL     1      -8.123  11.042  67.772  1.00  0.00    -0.112 OA 
HETATM   17  N   UNL     1      -6.967  11.726  69.658  1.00  0.00    -0.341 N  
HETATM   18  H   UNL     1      -6.657  11.461  70.593  1.00  0.00     0.000 HD 
BRANCH  17  19
HETATM   19  C   UNL     1      -6.660  13.010  69.166  1.00  0.00    -0.104 A  
HETATM   20  C   UNL     1      -7.719  13.877  68.926  1.00  0.00    -0.041 A  
HETATM   21  C   UNL     1      -7.544  15.075  68.209  1.00  0.00    -0.111 A  
HETATM   22  C   UNL     1      -5.365  13.405  68.859  1.00  0.00    -0.073 A  
HETATM   23  C   UNL     1      -6.228  15.469  67.887  1.00  0.00    -0.167 A  
HETATM   24  C   UNL     1      -5.886  16.727  67.135  1.00  0.00    -0.206 C  
HETATM   25  C   UNL     1      -5.148  14.645  68.258  1.00  0.00    -0.112 A  
BRANCH  21  26
HETATM   26  N   UNL     1      -8.674  15.766  67.736  1.00  0.00    -0.169 NA 
HETATM   27  H   UNL     1      -8.480  16.600  67.182  1.00  0.00     0.000 HD 
BRANCH  26  28
HETATM   28  C   UNL     1     -10.025  15.464  67.921  1.00  0.00    -0.221 A  
HETATM   29  N   UNL     1     -10.699  15.022  66.855  1.00  0.00    -0.302 NA 
HETATM   30  C   UNL     1     -11.989  14.694  67.048  1.00  0.00    -0.276 A  
HETATM   31  C   UNL     1     -12.630  14.772  68.264  1.00  0.00     0.552 A  
HETATM   32  C   UNL     1     -11.873  15.240  69.314  1.00  0.00    -0.329 A  
HETATM   33  N   UNL     1     -10.585  15.584  69.134  1.00  0.00    -0.221 NA 
BRANCH  32  34
HETATM   34  C   UNL     1     -12.365  15.405  70.695  1.00  0.00    -0.451 A  
HETATM   35  C   UNL     1     -13.579  14.880  71.138  1.00  0.00    -0.403 A  
HETATM   36  N   UNL     1     -14.083  15.022  72.391  1.00  0.00    -0.487 NA 
HETATM   37  C   UNL     1     -13.337  15.732  73.268  1.00  0.00    -0.549 A  
HETATM   38  C   UNL     1     -12.123  16.306  72.948  1.00  0.00    -0.625 A  
HETATM   39  C   UNL     1     -11.639  16.137  71.653  1.00  0.00    -0.503 A  
ENDBRANCH  32  34
ENDBRANCH  26  28
ENDBRANCH  21  26
ENDBRANCH  17  19
ENDBRANCH  12  15
ENDBRANCH   8   9
ENDBRANCH   5   8
TORSDOF 7
ENDMDL
MODEL      150
REMARK 921   NORMALIZED FREE ENERGY PREDICTED BY IDOCK:   -1.56 KCAL/MOL
REMARK 922        TOTAL FREE ENERGY PREDICTED BY IDOCK:   -3.35 KCAL/MOL
REMARK 923 INTER-LIGAND FREE ENERGY PREDICTED BY IDOCK:   -3.75 KCAL/MOL
REMARK 924 INTRA-LIGAND FREE ENERGY PREDICTED BY IDOCK:    0.40 KCAL/MOL
REMARK 927      BINDING AFFINITY PREDICTED BY RF-SCORE:    0.00 PKD
ROOT
HETATM    1  C   UNL     1      -6.198   4.071  62.343  1.00  0.00    -0.017 C  
HETATM    2  N   UNL     1      -6.118   3.156  63.482  1.00  0.00    -0.014 NA 
HETATM    3  C   UNL     1      -6.468   3.845  64.740  1.00  0.00    -0.042 C  
HETATM    4  C   UNL     1      -7.981   4.095  64.938  1.00  0.00    -0.093 C  
HETATM    5  N   UNL     1      -8.823   2.883  64.805  1.00  0.00    -0.110 NA 
HETATM    6  C   UNL     1      -6.995   1.983  63.285  1.00  0.00    -0.035 C  
HETATM    7  C   UNL     1      -8.506   2.239  63.517  1.00  0.00    -0.085 C  
ENDROOT
BRANCH   5   8
HETATM    8  C   UNL     1      -8.665   1.934  65.930  1.00  0.00    -0.116 C  
BRANCH   8   9
HETATM    9  C   UNL     1      -8.600   2.655  67.260  1.00  0.00    -0.121 A  
HETATM   10  C   UNL     1      -9.660   3.485  67.647  1.00  0.00    -0.180 A  
HETATM   11  C   UNL     1      -9.480   4.405  68.675  1.00  0.00    -0.219 A  
HETATM   12  C   UNL     1      -8.244   4.500  69.329  1.00  0.00    -0.071 A  
HETATM   13  C   UNL     1      -7.414   2.655  68.007  1.00  0.00    -0.056 A  
HETATM   14  C   UNL     1      -7.230   3.581  69.035  1.00  0.00    -0.049 A  
BRANCH  12  15
HETATM   15  C   UNL     1      -8.019   5.690  70.194  1.00  0.00    -0.099 C  
HETATM   16  O   UNL     1      -8.749   6.667  70.054  1.00  0.00    -0.139 OA 
HETATM   17  N   UNL     1      -7.000   5.596  71.129  1.00  0.00    -0.064 N  
HETATM   18  H   UNL     1      -6.457   4.735  71.192  1.00  0.00     0.000 HD 
BRANCH  17  19
HETATM   19  C   UNL     1      -6.699   6.668  71.993  1.00  0.00    -0.063 A  
HETATM   20  C   UNL     1      -6.681   7.947  71.449  1.00  0.00    -0.046 A  
HETATM   21  C   UNL     1      -6.155   9.042  72.157  1.00  0.00    -0.033 A  
HETATM   22  C   UNL     1      -6.363   6.483  73.327  1.00  0.00    -0.064 A  
HETATM   23  C   UNL     1      -5.803   8.851  73.510  1.00  0.00    -0.085 A  
HETATM   24  C   UNL     1      -5.238   9.929  74.395  1.00  0.00    -0.076 C  
HETATM   25  C   UNL     1      -5.954   7.577  74.091  1.00  0.00    -0.072 A  
BRANCH  21  26
HETATM   26  N   UNL     1      -5.885  10.240  71.472  1.00  0.00    -0.306 NA 
HETATM   27  H   UNL     1      -5.140  10.815  71.866  1.00  0.00     0.000 HD 
BRANCH  26  28
HETATM   28  C   UNL     1      -6.498  10.749  70.325  1.00  0.00    -0.127 A  
HETATM   29  N   UNL     1      -7.169   9.883  69.560  1.00  0.00    -0.083 NA 
HETATM   30  C   UNL     1      -7.792  10.385  68.479  1.00  0.00    -0.107 A  
HETATM   31  C   UNL     1      -7.787  11.719  68.138  1.00  0.00    -0.135 A  
HETATM   32  C   UNL     1      -7.072  12.550  68.970  1.00  0.00    -0.037 A  
HETATM   33  N   UNL     1      -6.434  12.061  70.048  1.00  0.00    -0.051 NA 
BRANCH  32  34
HETATM   34  C   UNL     1      -6.935  14.007  68.785  1.00  0.00    -0.106 A  
HETATM   35  C   UNL     1      -6.913  14.615  67.530  1.00  0.00    -0.168 A  
HETATM   36  N   UNL     1      -6.770  15.948  67.308  1.00  0.00    -0.194 NA 
HETATM   37  C   UNL     1      -6.637  16.734  68.401  1.00  0.00    -0.149 A  
HETATM   38  C   UNL     1      -6.637  16.251  69.694  1.00  0.00    -0.175 A  
HETATM   39  C   UNL     1      -6.788  14.878  69.881  1.00  0.00    -0.167 A  
ENDBRANCH  32  34
ENDBRANCH  26  28
ENDBRANCH  21  26
ENDBRANCH  17  19
ENDBRANCH  12  15
ENDBRANCH   8   9
ENDBRANCH   5   8
TORSDOF 7
ENDMDL
MODEL      151
REMARK 921   NORMALIZED FREE ENERGY PREDICTED BY IDOCK:   -1.40 KCAL/MOL
REMARK 922        TOTAL FREE ENERGY PREDICTED BY IDOCK:   -3.12 KCAL/MOL
REMARK 923 INTER-LIGAND FREE ENERGY PREDICTED BY IDOCK:   -4.82 KCAL/MOL
REMARK 924 INTRA-LIGAND FREE ENERGY PREDICTED BY IDOCK:    1.70 KCAL/MOL
REMARK 927      BINDING AFFINITY PREDICTED BY RF-SCORE:    0.00 PKD
ROOT
HETATM    1  C   UNL     1      -7.330   3.648  74.462  1.00  0.00    -0.054 C  
HETATM    2  N   UNL     1      -7.713   4.767  73.600  1.00  0.00    -0.094 NA 
HETATM    3  C   UNL     1      -6.996   4.711  72.311  1.00  0.00    -0.061 C  
HETATM    4  C   UNL     1      -7.534   3.654  71.320  1.00  0.00    -0.044 C  
HETATM    5  N   UNL     1      -8.990   3.748  71.056  1.00  0.00    -0.092 NA 
HETATM    6  C   UNL     1      -9.173   4.786  73.369  1.00  0.00    -0.113 C  
HETATM    7  C   UNL     1      -9.695   3.741  72.351  1.00  0.00    -0.151 C  
ENDROOT
BRANCH   5   8
HETATM    8  C   UNL     1      -9.363   4.932  70.250  1.00  0.00    -0.154 C  
BRANCH   8   9
HETATM    9  C   UNL     1      -8.327   6.031  70.365  1.00  0.00    -0.124 A  
HETATM   10  C   UNL     1      -8.531   7.081  71.268  1.00  0.00    -0.118 A  
HETATM   11  C   UNL     1      -7.788   8.251  71.152  1.00  0.00    -0.102 A  
HETATM   12  C   UNL     1      -6.830   8.381  70.137  1.00  0.00    -0.042 A  
HETATM   13  C   UNL     1      -7.274   6.108  69.442  1.00  0.00    -0.074 A  
HETATM   14  C   UNL     1      -6.531   7.284  69.320  1.00  0.00    -0.036 A  
BRANCH  12  15
HETATM   15  C   UNL     1      -6.294   9.743  69.874  1.00  0.00    -0.058 C  
HETATM   16  O   UNL     1      -5.272  10.096  70.454  1.00  0.00    -0.040 OA 
HETATM   17  N   UNL     1      -6.986  10.519  68.957  1.00  0.00    -0.068 N  
HETATM   18  H   UNL     1      -7.815  10.136  68.502  1.00  0.00     0.000 HD 
BRANCH  17  19
HETATM   19  C   UNL     1      -6.567  11.827  68.641  1.00  0.00    -0.065 A  
HETATM   20  C   UNL     1      -7.370  12.879  69.062  1.00  0.00     0.057 A  
HETATM   21  C   UNL     1      -7.177  14.190  68.589  1.00  0.00    -0.116 A  
HETATM   22  C   UNL     1      -5.434  12.087  67.881  1.00  0.00    -0.060 A  
HETATM   23  C   UNL     1      -6.032  14.451  67.808  1.00  0.00    -0.111 A  
HETATM   24  C   UNL     1      -5.688  15.802  67.242  1.00  0.00     0.061 C  
HETATM   25  C   UNL     1      -5.148  13.398  67.500  1.00  0.00     0.094 A  
BRANCH  21  26
HETATM   26  N   UNL     1      -8.178  15.154  68.803  1.00  0.00    -0.157 NA 
HETATM   27  H   UNL     1      -7.848  16.109  68.941  1.00  0.00     0.000 HD 
BRANCH  26  28
HETATM   28  C   UNL     1      -9.563  14.981  68.851  1.00  0.00    -0.221 A  
HETATM   29  N   UNL     1     -10.313  15.919  68.265  1.00  0.00    -0.237 NA 
HETATM   30  C   UNL     1     -11.644  15.727  68.279  1.00  0.00    -0.298 A  
HETATM   31  C   UNL     1     -12.258  14.629  68.838  1.00  0.00    -0.174 A  
HETATM   32  C   UNL     1     -11.422  13.707  69.426  1.00  0.00    -0.286 A  
HETATM   33  N   UNL     1     -10.090  13.891  69.432  1.00  0.00     0.213 NA 
BRANCH  32  34
HETATM   34  C   UNL     1     -11.872  12.465  70.083  1.00  0.00    -0.341 A  
HETATM   35  C   UNL     1     -12.761  12.453  71.158  1.00  0.00    -0.240 A  
HETATM   36  N   UNL     1     -13.189  11.340  71.808  1.00  0.00    -0.436 NA 
HETATM   37  C   UNL     1     -12.704  10.156  71.367  1.00  0.00    -0.425 A  
HETATM   38  C   UNL     1     -11.815  10.038  70.318  1.00  0.00    -0.291 A  
HETATM   39  C   UNL     1     -11.400  11.204  69.676  1.00  0.00    -0.366 A  
ENDBRANCH  32  34
ENDBRANCH  26  28
ENDBRANCH  21  26
ENDBRANCH  17  19
ENDBRANCH  12  15
ENDBRANCH   8   9
ENDBRANCH   5   8
TORSDOF 7
ENDMDL
MODEL      152
REMARK 921   NORMALIZED FREE ENERGY PREDICTED BY IDOCK:   -1.09 KCAL/MOL
REMARK 922        TOTAL FREE ENERGY PREDICTED BY IDOCK:   -2.69 KCAL/MOL
REMARK 923 INTER-LIGAND FREE ENERGY PREDICTED BY IDOCK:   -5.56 KCAL/MOL
REMARK 924 INTRA-LIGAND FREE ENERGY PREDICTED BY IDOCK:    2.86 KCAL/MOL
REMARK 927      BINDING AFFINITY PREDICTED BY RF-SCORE:    0.00 PKD
ROOT
HETATM    1  C   UNL     1     -10.083   4.915  66.618  1.00  0.00    -0.249 C  
HETATM    2  N   UNL     1      -9.137   5.904  67.137  1.00  0.00    -0.113 NA 
HETATM    3  C   UNL     1      -9.556   6.391  68.465  1.00  0.00    -0.122 C  
HETATM    4  C   UNL     1      -9.291   5.405  69.626  1.00  0.00    -0.135 C  
HETATM    5  N   UNL     1      -7.893   4.922  69.711  1.00  0.00    -0.066 NA 
HETATM    6  C   UNL     1      -7.769   5.347  67.209  1.00  0.00    -0.096 C  
HETATM    7  C   UNL     1      -7.509   4.384  68.394  1.00  0.00    -0.064 C  
ENDROOT
BRANCH   5   8
HETATM    8  C   UNL     1      -6.941   5.963  70.161  1.00  0.00    -0.069 C  
BRANCH   8   9
HETATM    9  C   UNL     1      -7.197   7.286  69.469  1.00  0.00    -0.080 A  
HETATM   10  C   UNL     1      -6.215   7.827  68.630  1.00  0.00    -0.036 A  
HETATM   11  C   UNL     1      -6.277   9.168  68.265  1.00  0.00    -0.054 A  
HETATM   12  C   UNL     1      -7.323   9.978  68.728  1.00  0.00    -0.078 A  
HETATM   13  C   UNL     1      -8.314   8.060  69.815  1.00  0.00    -0.122 A  
HETATM   14  C   UNL     1      -8.376   9.407  69.454  1.00  0.00    -0.125 A  
BRANCH  12  15
HETATM   15  C   UNL     1      -7.173  11.448  68.561  1.00  0.00    -0.093 C  
HETATM   16  O   UNL     1      -7.505  11.958  67.494  1.00  0.00    -0.117 OA 
HETATM   17  N   UNL     1      -6.685  12.153  69.651  1.00  0.00    -0.326 N  
HETATM   18  H   UNL     1      -6.456  11.651  70.509  1.00  0.00     0.000 HD 
BRANCH  17  19
HETATM   19  C   UNL     1      -6.498  13.549  69.595  1.00  0.00    -0.072 A  
HETATM   20  C   UNL     1      -7.630  14.344  69.464  1.00  0.00     0.083 A  
HETATM   21  C   UNL     1      -7.537  15.713  69.152  1.00  0.00    -0.206 A  
HETATM   22  C   UNL     1      -5.241  14.137  69.602  1.00  0.00    -0.091 A  
HETATM   23  C   UNL     1      -6.258  16.307  69.147  1.00  0.00    -0.160 A  
HETATM   24  C   UNL     1      -6.005  17.759  68.843  1.00  0.00    -0.197 C  
HETATM   25  C   UNL     1      -5.125  15.515  69.418  1.00  0.00    -0.093 A  
BRANCH  21  26
HETATM   26  N   UNL     1      -8.690  16.405  68.739  1.00  0.00    -0.236 NA 
HETATM   27  H   UNL     1      -8.570  17.405  68.578  1.00  0.00     0.000 HD 
BRANCH  26  28
HETATM   28  C   UNL     1      -9.977  15.908  68.520  1.00  0.00    -0.216 A  
HETATM   29  N   UNL     1     -10.957  16.405  69.282  1.00  0.00    -0.322 NA 
HETATM   30  C   UNL     1     -12.200  15.953  69.039  1.00  0.00     0.055 A  
HETATM   31  C   UNL     1     -12.510  15.040  68.057  1.00  0.00     0.523 A  
HETATM   32  C   UNL     1     -11.449  14.571  67.315  1.00  0.00    -0.365 A  
HETATM   33  N   UNL     1     -10.199  15.003  67.554  1.00  0.00    -0.233 NA 
BRANCH  32  34
HETATM   34  C   UNL     1     -11.560  13.589  66.221  1.00  0.00    -0.374 A  
HETATM   35  C   UNL     1     -10.847  12.390  66.199  1.00  0.00    -0.273 A  
HETATM   36  N   UNL     1     -10.901  11.465  65.206  1.00  0.00    -0.265 NA 
HETATM   37  C   UNL     1     -11.714  11.742  64.161  1.00  0.00    -0.285 A  
HETATM   38  C   UNL     1     -12.464  12.897  64.063  1.00  0.00    -0.407 A  
HETATM   39  C   UNL     1     -12.384  13.821  65.103  1.00  0.00    -0.476 A  
ENDBRANCH  32  34
ENDBRANCH  26  28
ENDBRANCH  21  26
ENDBRANCH  17  19
ENDBRANCH  12  15
ENDBRANCH   8   9
ENDBRANCH   5   8
TORSDOF 7
ENDMDL
MODEL      153
REMARK 921   NORMALIZED FREE ENERGY PREDICTED BY IDOCK:   -1.06 KCAL/MOL
REMARK 922        TOTAL FREE ENERGY PREDICTED BY IDOCK:   -2.64 KCAL/MOL
REMARK 923 INTER-LIGAND FREE ENERGY PREDICTED BY IDOCK:   -2.27 KCAL/MOL
REMARK 924 INTRA-LIGAND FREE ENERGY PREDICTED BY IDOCK:   -0.37 KCAL/MOL
REMARK 927      BINDING AFFINITY PREDICTED BY RF-SCORE:    0.00 PKD
ROOT
HETATM    1  C   UNL     1      -6.162   4.102  62.330  1.00  0.00    -0.017 C  
HETATM    2  N   UNL     1      -5.980   3.179  63.451  1.00  0.00    -0.013 NA 
HETATM    3  C   UNL     1      -6.373   3.810  64.726  1.00  0.00    -0.027 C  
HETATM    4  C   UNL     1      -7.899   3.913  64.950  1.00  0.00    -0.085 C  
HETATM    5  N   UNL     1      -8.626   2.629  64.805  1.00  0.00    -0.094 NA 
HETATM    6  C   UNL     1      -6.745   1.931  63.244  1.00  0.00    -0.022 C  
HETATM    7  C   UNL     1      -8.269   2.041  63.501  1.00  0.00    -0.073 C  
ENDROOT
BRANCH   5   8
HETATM    8  C   UNL     1      -8.363   1.680  65.910  1.00  0.00    -0.090 C  
BRANCH   8   9
HETATM    9  C   UNL     1      -8.288   2.389  67.246  1.00  0.00    -0.091 A  
HETATM   10  C   UNL     1      -9.388   3.130  67.696  1.00  0.00    -0.247 A  
HETATM   11  C   UNL     1      -9.229   4.050  68.728  1.00  0.00    -0.211 A  
HETATM   12  C   UNL     1      -7.974   4.234  69.322  1.00  0.00    -0.060 A  
HETATM   13  C   UNL     1      -7.070   2.474  67.935  1.00  0.00    -0.048 A  
HETATM   14  C   UNL     1      -6.907   3.400  68.966  1.00  0.00    -0.045 A  
BRANCH  12  15
HETATM   15  C   UNL     1      -7.799   5.428  70.192  1.00  0.00    -0.081 C  
HETATM   16  O   UNL     1      -8.519   6.404  70.006  1.00  0.00    -0.131 OA 
HETATM   17  N   UNL     1      -6.837   5.339  71.186  1.00  0.00    -0.043 N  
HETATM   18  H   UNL     1      -6.299   4.478  71.286  1.00  0.00     0.000 HD 
BRANCH  17  19
HETATM   19  C   UNL     1      -6.587   6.415  72.061  1.00  0.00    -0.059 A  
HETATM   20  C   UNL     1      -6.740   7.701  71.558  1.00  0.00    -0.045 A  
HETATM   21  C   UNL     1      -6.279   8.829  72.263  1.00  0.00    -0.061 A  
HETATM   22  C   UNL     1      -6.138   6.234  73.362  1.00  0.00    -0.062 A  
HETATM   23  C   UNL     1      -5.813   8.642  73.581  1.00  0.00    -0.118 A  
HETATM   24  C   UNL     1      -5.300   9.752  74.458  1.00  0.00    -0.087 C  
HETATM   25  C   UNL     1      -5.790   7.346  74.131  1.00  0.00    -0.071 A  
BRANCH  21  26
HETATM   26  N   UNL     1      -6.184  10.065  71.598  1.00  0.00    -0.292 NA 
HETATM   27  H   UNL     1      -5.738  10.816  72.126  1.00  0.00     0.000 HD 
BRANCH  26  28
HETATM   28  C   UNL     1      -6.615  10.403  70.314  1.00  0.00    -0.141 A  
HETATM   29  N   UNL     1      -7.304  11.541  70.186  1.00  0.00     0.551 NA 
HETATM   30  C   UNL     1      -7.683  11.884  68.941  1.00  0.00    -0.016 A  
HETATM   31  C   UNL     1      -7.387  11.147  67.817  1.00  0.00    -0.093 A  
HETATM   32  C   UNL     1      -6.678   9.985  68.027  1.00  0.00    -0.064 A  
HETATM   33  N   UNL     1      -6.304   9.623  69.267  1.00  0.00    -0.043 NA 
BRANCH  32  34
HETATM   34  C   UNL     1      -6.263   9.051  66.964  1.00  0.00    -0.059 A  
HETATM   35  C   UNL     1      -5.959   9.463  65.666  1.00  0.00    -0.059 A  
HETATM   36  N   UNL     1      -5.593   8.640  64.650  1.00  0.00    -0.057 NA 
HETATM   37  C   UNL     1      -5.523   7.319  64.933  1.00  0.00    -0.033 A  
HETATM   38  C   UNL     1      -5.806   6.789  66.176  1.00  0.00    -0.030 A  
HETATM   39  C   UNL     1      -6.177   7.666  67.193  1.00  0.00    -0.053 A  
ENDBRANCH  32  34
ENDBRANCH  26  28
ENDBRANCH  21  26
ENDBRANCH  17  19
ENDBRANCH  12  15
ENDBRANCH   8   9
ENDBRANCH   5   8
TORSDOF 7
ENDMDL
MODEL      154
REMARK 921   NORMALIZED FREE ENERGY PREDICTED BY IDOCK:   -0.91 KCAL/MOL
REMARK 922        TOTAL FREE ENERGY PREDICTED BY IDOCK:   -2.44 KCAL/MOL
REMARK 923 INTER-LIGAND FREE ENERGY PREDICTED BY IDOCK:   -6.94 KCAL/MOL
REMARK 924 INTRA-LIGAND FREE ENERGY PREDICTED BY IDOCK:    4.50 KCAL/MOL
REMARK 927      BINDING AFFINITY PREDICTED BY RF-SCORE:    0.00 PKD
ROOT
HETATM    1  C   UNL     1      -8.684   6.591  64.469  1.00  0.00     0.399 C  
HETATM    2  N   UNL     1      -8.616   7.026  65.865  1.00  0.00    -0.147 NA 
HETATM    3  C   UNL     1      -9.836   6.637  66.600  1.00  0.00    -0.149 C  
HETATM    4  C   UNL     1      -9.909   5.141  66.982  1.00  0.00    -0.177 C  
HETATM    5  N   UNL     1      -8.724   4.639  67.718  1.00  0.00    -0.103 NA 
HETATM    6  C   UNL     1      -7.421   6.475  66.537  1.00  0.00    -0.086 C  
HETATM    7  C   UNL     1      -7.519   4.982  66.941  1.00  0.00    -0.087 C  
ENDROOT
BRANCH   5   8
HETATM    8  C   UNL     1      -8.633   5.157  69.102  1.00  0.00    -0.092 C  
BRANCH   8   9
HETATM    9  C   UNL     1      -9.051   6.611  69.180  1.00  0.00    -0.137 A  
HETATM   10  C   UNL     1     -10.399   6.951  69.008  1.00  0.00    -0.203 A  
HETATM   11  C   UNL     1     -10.752   8.269  68.737  1.00  0.00    -0.076 A  
HETATM   12  C   UNL     1      -9.764   9.259  68.642  1.00  0.00    -0.158 A  
HETATM   13  C   UNL     1      -8.083   7.623  69.224  1.00  0.00    -0.128 A  
HETATM   14  C   UNL     1      -8.434   8.946  68.948  1.00  0.00    -0.131 A  
BRANCH  12  15
HETATM   15  C   UNL     1     -10.163  10.567  68.057  1.00  0.00    -0.166 C  
HETATM   16  O   UNL     1     -10.194  11.554  68.786  1.00  0.00    -0.212 OA 
HETATM   17  N   UNL     1     -10.449  10.582  66.701  1.00  0.00    -0.242 N  
HETATM   18  H   UNL     1     -10.374   9.717  66.164  1.00  0.00     0.000 HD 
BRANCH  17  19
HETATM   19  C   UNL     1     -10.843  11.768  66.049  1.00  0.00    -0.296 A  
HETATM   20  C   UNL     1      -9.883  12.759  65.882  1.00  0.00    -0.243 A  
HETATM   21  C   UNL     1     -10.231  14.060  65.475  1.00  0.00    -0.343 A  
HETATM   22  C   UNL     1     -12.148  11.997  65.636  1.00  0.00    -0.037 A  
HETATM   23  C   UNL     1     -11.560  14.295  65.067  1.00  0.00    -0.367 A  
HETATM   24  C   UNL     1     -12.074  15.629  64.598  1.00  0.00     0.020 C  
HETATM   25  C   UNL     1     -12.495  13.242  65.111  1.00  0.00    -0.525 A  
BRANCH  21  26
HETATM   26  N   UNL     1      -9.289  15.097  65.605  1.00  0.00    -0.438 NA 
HETATM   27  H   UNL     1      -8.965  15.510  64.731  1.00  0.00     0.000 HD 
BRANCH  26  28
HETATM   28  C   UNL     1      -8.738  15.637  66.769  1.00  0.00    -0.271 A  
HETATM   29  N   UNL     1      -8.696  14.846  67.845  1.00  0.00    -0.160 NA 
HETATM   30  C   UNL     1      -8.127  15.357  68.952  1.00  0.00    -0.185 A  
HETATM   31  C   UNL     1      -7.583  16.620  69.024  1.00  0.00    -0.226 A  
HETATM   32  C   UNL     1      -7.666  17.378  67.878  1.00  0.00    -0.199 A  
HETATM   33  N   UNL     1      -8.243  16.885  66.768  1.00  0.00    -0.216 NA 
BRANCH  32  34
HETATM   34  C   UNL     1      -7.151  18.753  67.743  1.00  0.00    -0.237 A  
HETATM   35  C   UNL     1      -6.019  19.211  68.418  1.00  0.00    -0.215 A  
HETATM   36  N   UNL     1      -5.519  20.472  68.341  1.00  0.00    -0.244 NA 
HETATM   37  C   UNL     1      -6.182  21.341  67.544  1.00  0.00    -0.361 A  
HETATM   38  C   UNL     1      -7.317  21.010  66.831  1.00  0.00    -0.204 A  
HETATM   39  C   UNL     1      -7.799  19.706  66.935  1.00  0.00    -0.300 A  
ENDBRANCH  32  34
ENDBRANCH  26  28
ENDBRANCH  21  26
ENDBRANCH  17  19
ENDBRANCH  12  15
ENDBRANCH   8   9
ENDBRANCH   5   8
TORSDOF 7
ENDMDL
MODEL      155
REMARK 921   NORMALIZED FREE ENERGY PREDICTED BY IDOCK:   -0.89 KCAL/MOL
REMARK 922        TOTAL FREE ENERGY PREDICTED BY IDOCK:   -2.40 KCAL/MOL
REMARK 923 INTER-LIGAND FREE ENERGY PREDICTED BY IDOCK:   -1.29 KCAL/MOL
REMARK 924 INTRA-LIGAND FREE ENERGY PREDICTED BY IDOCK:   -1.11 KCAL/MOL
REMARK 927      BINDING AFFINITY PREDICTED BY RF-SCORE:    0.00 PKD
ROOT
HETATM    1  C   UNL     1     -11.114  20.629  69.562  1.00  0.00     1.699 C  
HETATM    2  N   UNL     1      -9.890  20.386  68.795  1.00  0.00     0.017 NA 
HETATM    3  C   UNL     1      -9.283  19.092  69.164  1.00  0.00    -0.157 C  
HETATM    4  C   UNL     1      -9.997  17.854  68.576  1.00  0.00    -0.379 C  
HETATM    5  N   UNL     1     -10.183  17.896  67.106  1.00  0.00    -0.339 NA 
HETATM    6  C   UNL     1     -10.156  20.426  67.341  1.00  0.00    -0.360 C  
HETATM    7  C   UNL     1     -10.845  19.166  66.760  1.00  0.00    -0.312 C  
ENDROOT
BRANCH   5   8
HETATM    8  C   UNL     1      -8.920  17.729  66.353  1.00  0.00    -0.229 C  
BRANCH   8   9
HETATM    9  C   UNL     1      -8.206  16.450  66.741  1.00  0.00    -0.286 A  
HETATM   10  C   UNL     1      -8.806  15.215  66.466  1.00  0.00    -0.312 A  
HETATM   11  C   UNL     1      -8.349  14.065  67.104  1.00  0.00    -0.174 A  
HETATM   12  C   UNL     1      -7.286  14.138  68.014  1.00  0.00    -0.142 A  
HETATM   13  C   UNL     1      -7.056  16.497  67.542  1.00  0.00    -0.169 A  
HETATM   14  C   UNL     1      -6.600  15.346  68.186  1.00  0.00    -0.141 A  
BRANCH  12  15
HETATM   15  C   UNL     1      -7.047  12.952  68.880  1.00  0.00    -0.063 C  
HETATM   16  O   UNL     1      -7.120  13.087  70.098  1.00  0.00     0.612 OA 
HETATM   17  N   UNL     1      -6.780  11.754  68.236  1.00  0.00    -0.062 N  
HETATM   18  H   UNL     1      -6.762  11.727  67.216  1.00  0.00     0.000 HD 
BRANCH  17  19
HETATM   19  C   UNL     1      -6.532  10.572  68.962  1.00  0.00    -0.054 A  
HETATM   20  C   UNL     1      -7.617   9.752  69.245  1.00  0.00    -0.097 A  
HETATM   21  C   UNL     1      -7.520   8.692  70.166  1.00  0.00    -0.054 A  
HETATM   22  C   UNL     1      -5.275  10.243  69.450  1.00  0.00    -0.038 A  
HETATM   23  C   UNL     1      -6.244   8.366  70.670  1.00  0.00    -0.036 A  
HETATM   24  C   UNL     1      -5.985   7.255  71.651  1.00  0.00    -0.037 C  
HETATM   25  C   UNL     1      -5.126   9.122  70.268  1.00  0.00    -0.027 A  
BRANCH  21  26
HETATM   26  N   UNL     1      -8.696   8.084  70.642  1.00  0.00    -0.129 NA 
HETATM   27  H   UNL     1      -9.108   8.511  71.472  1.00  0.00     0.000 HD 
BRANCH  26  28
HETATM   28  C   UNL     1      -9.376   6.976  70.132  1.00  0.00    -0.162 A  
HETATM   29  N   UNL     1     -10.157   6.301  70.980  1.00  0.00    -0.182 NA 
HETATM   30  C   UNL     1     -10.841   5.259  70.475  1.00  0.00    -0.049 A  
HETATM   31  C   UNL     1     -10.791   4.872  69.155  1.00  0.00     0.786 A  
HETATM   32  C   UNL     1      -9.962   5.612  68.342  1.00  0.00    -0.156 A  
HETATM   33  N   UNL     1      -9.262   6.649  68.836  1.00  0.00    -0.131 NA 
BRANCH  32  34
HETATM   34  C   UNL     1      -9.760   5.365  66.902  1.00  0.00    -0.166 A  
HETATM   35  C   UNL     1     -10.101   4.164  66.281  1.00  0.00    -0.104 A  
HETATM   36  N   UNL     1      -9.917   3.883  64.965  1.00  0.00    -0.195 NA 
HETATM   37  C   UNL     1      -9.355   4.855  64.209  1.00  0.00     0.117 A  
HETATM   38  C   UNL     1      -8.969   6.082  64.709  1.00  0.00     0.324 A  
HETATM   39  C   UNL     1      -9.176   6.333  66.064  1.00  0.00    -0.103 A  
ENDBRANCH  32  34
ENDBRANCH  26  28
ENDBRANCH  21  26
ENDBRANCH  17  19
ENDBRANCH  12  15
ENDBRANCH   8   9
ENDBRANCH   5   8
TORSDOF 7
ENDMDL
MODEL      156
REMARK 921   NORMALIZED FREE ENERGY PREDICTED BY IDOCK:   -0.77 KCAL/MOL
REMARK 922        TOTAL FREE ENERGY PREDICTED BY IDOCK:   -2.24 KCAL/MOL
REMARK 923 INTER-LIGAND FREE ENERGY PREDICTED BY IDOCK:   -3.66 KCAL/MOL
REMARK 924 INTRA-LIGAND FREE ENERGY PREDICTED BY IDOCK:    1.42 KCAL/MOL
REMARK 927      BINDING AFFINITY PREDICTED BY RF-SCORE:    0.00 PKD
ROOT
HETATM    1  C   UNL     1     -10.382  20.733  65.271  1.00  0.00     1.173 C  
HETATM    2  N   UNL     1      -9.639  20.719  66.532  1.00  0.00    -0.054 NA 
HETATM    3  C   UNL     1      -9.960  19.515  67.322  1.00  0.00    -0.379 C  
HETATM    4  C   UNL     1      -9.291  18.216  66.817  1.00  0.00    -0.286 C  
HETATM    5  N   UNL     1      -7.821  18.308  66.657  1.00  0.00    -0.241 NA 
HETATM    6  C   UNL     1      -8.183  20.797  66.293  1.00  0.00     0.388 C  
HETATM    7  C   UNL     1      -7.520  19.480  65.815  1.00  0.00    -0.259 C  
ENDROOT
BRANCH   5   8
HETATM    8  C   UNL     1      -7.095  18.374  67.945  1.00  0.00    -0.224 C  
BRANCH   8   9
HETATM    9  C   UNL     1      -7.241  17.088  68.732  1.00  0.00    -0.226 A  
HETATM   10  C   UNL     1      -6.291  16.766  69.710  1.00  0.00    -0.169 A  
HETATM   11  C   UNL     1      -6.208  15.464  70.194  1.00  0.00    -0.113 A  
HETATM   12  C   UNL     1      -7.075  14.475  69.711  1.00  0.00    -0.052 A  
HETATM   13  C   UNL     1      -8.196  16.133  68.355  1.00  0.00    -0.172 A  
HETATM   14  C   UNL     1      -8.110  14.825  68.835  1.00  0.00    -0.160 A  
BRANCH  12  15
HETATM   15  C   UNL     1      -6.743  13.061  70.031  1.00  0.00     0.333 C  
HETATM   16  O   UNL     1      -5.962  12.832  70.951  1.00  0.00    -0.265 OA 
HETATM   17  N   UNL     1      -7.371  12.086  69.271  1.00  0.00    -0.331 N  
HETATM   18  H   UNL     1      -8.025  12.366  68.540  1.00  0.00     0.000 HD 
BRANCH  17  19
HETATM   19  C   UNL     1      -7.122  10.716  69.488  1.00  0.00    -0.127 A  
HETATM   20  C   UNL     1      -8.085   9.811  69.059  1.00  0.00    -0.101 A  
HETATM   21  C   UNL     1      -8.051   8.459  69.446  1.00  0.00    -0.114 A  
HETATM   22  C   UNL     1      -5.998  10.257  70.162  1.00  0.00    -0.076 A  
HETATM   23  C   UNL     1      -6.915   7.996  70.141  1.00  0.00    -0.048 A  
HETATM   24  C   UNL     1      -6.733   6.577  70.609  1.00  0.00    -0.057 C  
HETATM   25  C   UNL     1      -5.878   8.897  70.452  1.00  0.00    -0.030 A  
BRANCH  21  26
HETATM   26  N   UNL     1      -9.187   7.656  69.242  1.00  0.00    -0.145 NA 
HETATM   27  H   UNL     1      -9.486   7.553  68.271  1.00  0.00     0.000 HD 
BRANCH  26  28
HETATM   28  C   UNL     1      -9.962   6.978  70.186  1.00  0.00    -0.182 A  
HETATM   29  N   UNL     1     -11.257   7.301  70.252  1.00  0.00    -0.273 NA 
HETATM   30  C   UNL     1     -12.008   6.617  71.134  1.00  0.00    -0.357 A  
HETATM   31  C   UNL     1     -11.523   5.613  71.942  1.00  0.00    -0.163 A  
HETATM   32  C   UNL     1     -10.179   5.339  71.821  1.00  0.00    -0.210 A  
HETATM   33  N   UNL     1      -9.414   6.023  70.952  1.00  0.00    -0.167 NA 
BRANCH  32  34
HETATM   34  C   UNL     1      -9.460   4.308  72.593  1.00  0.00    -0.165 A  
HETATM   35  C   UNL     1     -10.082   3.498  73.544  1.00  0.00    -0.127 A  
HETATM   36  N   UNL     1      -9.460   2.551  74.292  1.00  0.00    -0.080 NA 
HETATM   37  C   UNL     1      -8.131   2.392  74.089  1.00  0.00    -0.059 A  
HETATM   38  C   UNL     1      -7.404   3.136  73.182  1.00  0.00    -0.046 A  
HETATM   39  C   UNL     1      -8.078   4.098  72.431  1.00  0.00    -0.095 A  
ENDBRANCH  32  34
ENDBRANCH  26  28
ENDBRANCH  21  26
ENDBRANCH  17  19
ENDBRANCH  12  15
ENDBRANCH   8   9
ENDBRANCH   5   8
TORSDOF 7
ENDMDL
MODEL      157
REMARK 921   NORMALIZED FREE ENERGY PREDICTED BY IDOCK:   -0.59 KCAL/MOL
REMARK 922        TOTAL FREE ENERGY PREDICTED BY IDOCK:   -1.99 KCAL/MOL
REMARK 923 INTER-LIGAND FREE ENERGY PREDICTED BY IDOCK:   -5.91 KCAL/MOL
REMARK 924 INTRA-LIGAND FREE ENERGY PREDICTED BY IDOCK:    3.92 KCAL/MOL
REMARK 927      BINDING AFFINITY PREDICTED BY RF-SCORE:    0.00 PKD
ROOT
HETATM    1  C   UNL     1     -12.202   5.512  72.383  1.00  0.00     0.249 C  
HETATM    2  N   UNL     1     -11.141   6.520  72.389  1.00  0.00    -0.248 NA 
HETATM    3  C   UNL     1     -10.761   6.880  73.769  1.00  0.00    -0.199 C  
HETATM    4  C   UNL     1      -9.884   5.831  74.491  1.00  0.00    -0.248 C  
HETATM    5  N   UNL     1      -8.666   5.436  73.745  1.00  0.00    -0.116 NA 
HETATM    6  C   UNL     1      -9.955   6.050  71.642  1.00  0.00    -0.179 C  
HETATM    7  C   UNL     1      -9.068   5.022  72.389  1.00  0.00    -0.133 C  
ENDROOT
BRANCH   5   8
HETATM    8  C   UNL     1      -7.639   6.501  73.696  1.00  0.00    -0.087 C  
BRANCH   8   9
HETATM    9  C   UNL     1      -7.774   7.346  72.445  1.00  0.00    -0.097 A  
HETATM   10  C   UNL     1      -8.560   8.504  72.477  1.00  0.00    -0.204 A  
HETATM   11  C   UNL     1      -8.972   9.096  71.287  1.00  0.00    -0.207 A  
HETATM   12  C   UNL     1      -8.598   8.540  70.056  1.00  0.00    -0.134 A  
HETATM   13  C   UNL     1      -7.286   6.875  71.218  1.00  0.00    -0.081 A  
HETATM   14  C   UNL     1      -7.703   7.463  70.023  1.00  0.00    -0.095 A  
BRANCH  12  15
HETATM   15  C   UNL     1      -9.309   9.026  68.843  1.00  0.00    -0.143 C  
HETATM   16  O   UNL     1     -10.507   8.782  68.724  1.00  0.00    -0.214 OA 
HETATM   17  N   UNL     1      -8.560   9.754  67.932  1.00  0.00    -0.125 N  
HETATM   18  H   UNL     1      -7.573   9.930  68.122  1.00  0.00     0.000 HD 
BRANCH  17  19
HETATM   19  C   UNL     1      -9.135  10.254  66.746  1.00  0.00    -0.143 A  
HETATM   20  C   UNL     1      -9.257  11.633  66.623  1.00  0.00    -0.196 A  
HETATM   21  C   UNL     1     -10.033  12.217  65.605  1.00  0.00    -0.251 A  
HETATM   22  C   UNL     1      -9.633   9.428  65.749  1.00  0.00    -0.340 A  
HETATM   23  C   UNL     1     -10.549  11.375  64.598  1.00  0.00    -0.380 A  
HETATM   24  C   UNL     1     -11.385  11.856  63.444  1.00  0.00    -0.465 C  
HETATM   25  C   UNL     1     -10.302   9.989  64.660  1.00  0.00     0.337 A  
BRANCH  21  26
HETATM   26  N   UNL     1     -10.369  13.580  65.692  1.00  0.00    -0.290 NA 
HETATM   27  H   UNL     1     -10.641  14.024  64.814  1.00  0.00     0.000 HD 
BRANCH  26  28
HETATM   28  C   UNL     1     -10.382  14.408  66.816  1.00  0.00    -0.273 A  
HETATM   29  N   UNL     1     -11.407  14.266  67.663  1.00  0.00    -0.308 NA 
HETATM   30  C   UNL     1     -11.393  15.037  68.765  1.00  0.00    -0.291 A  
HETATM   31  C   UNL     1     -10.392  15.932  69.066  1.00  0.00    -0.231 A  
HETATM   32  C   UNL     1      -9.372  16.027  68.146  1.00  0.00    -0.200 A  
HETATM   33  N   UNL     1      -9.378  15.271  67.033  1.00  0.00    -0.215 NA 
BRANCH  32  34
HETATM   34  C   UNL     1      -8.208  16.923  68.273  1.00  0.00    -0.222 A  
HETATM   35  C   UNL     1      -7.183  16.978  67.327  1.00  0.00    -0.160 A  
HETATM   36  N   UNL     1      -6.084  17.771  67.410  1.00  0.00    -0.144 NA 
HETATM   37  C   UNL     1      -5.987  18.564  68.502  1.00  0.00    -0.198 A  
HETATM   38  C   UNL     1      -6.932  18.595  69.508  1.00  0.00    -0.070 A  
HETATM   39  C   UNL     1      -8.047  17.768  69.387  1.00  0.00     0.392 A  
ENDBRANCH  32  34
ENDBRANCH  26  28
ENDBRANCH  21  26
ENDBRANCH  17  19
ENDBRANCH  12  15
ENDBRANCH   8   9
ENDBRANCH   5   8
TORSDOF 7
ENDMDL
MODEL      158
REMARK 921   NORMALIZED FREE ENERGY PREDICTED BY IDOCK:   -0.52 KCAL/MOL
REMARK 922        TOTAL FREE ENERGY PREDICTED BY IDOCK:   -1.88 KCAL/MOL
REMARK 923 INTER-LIGAND FREE ENERGY PREDICTED BY IDOCK:   -6.13 KCAL/MOL
REMARK 924 INTRA-LIGAND FREE ENERGY PREDICTED BY IDOCK:    4.25 KCAL/MOL
REMARK 927      BINDING AFFINITY PREDICTED BY RF-SCORE:    0.00 PKD
ROOT
HETATM    1  C   UNL     1     -12.254   5.462  72.372  1.00  0.00     0.361 C  
HETATM    2  N   UNL     1     -11.191   6.463  72.273  1.00  0.00    -0.262 NA 
HETATM    3  C   UNL     1     -10.755   6.905  73.612  1.00  0.00    -0.274 C  
HETATM    4  C   UNL     1      -9.852   5.898  74.361  1.00  0.00    -0.245 C  
HETATM    5  N   UNL     1      -8.666   5.451  73.592  1.00  0.00    -0.117 NA 
HETATM    6  C   UNL     1     -10.038   5.942  71.510  1.00  0.00    -0.192 C  
HETATM    7  C   UNL     1      -9.125   4.957  72.282  1.00  0.00    -0.130 C  
ENDROOT
BRANCH   5   8
HETATM    8  C   UNL     1      -7.639   6.506  73.436  1.00  0.00    -0.092 C  
BRANCH   8   9
HETATM    9  C   UNL     1      -7.920   7.381  72.232  1.00  0.00    -0.110 A  
HETATM   10  C   UNL     1      -8.762   8.491  72.367  1.00  0.00    -0.242 A  
HETATM   11  C   UNL     1      -9.300   9.096  71.235  1.00  0.00    -0.285 A  
HETATM   12  C   UNL     1      -8.997   8.602  69.959  1.00  0.00    -0.148 A  
HETATM   13  C   UNL     1      -7.508   6.978  70.954  1.00  0.00    -0.082 A  
HETATM   14  C   UNL     1      -8.050   7.579  69.817  1.00  0.00    -0.126 A  
BRANCH  12  15
HETATM   15  C   UNL     1      -9.828   9.085  68.825  1.00  0.00    -0.172 C  
HETATM   16  O   UNL     1     -10.928   8.572  68.639  1.00  0.00    -0.010 OA 
HETATM   17  N   UNL     1      -9.302  10.116  68.062  1.00  0.00    -0.141 N  
HETATM   18  H   UNL     1      -8.388  10.501  68.302  1.00  0.00     0.000 HD 
BRANCH  17  19
HETATM   19  C   UNL     1     -10.005  10.643  66.960  1.00  0.00    -0.202 A  
HETATM   20  C   UNL     1      -9.853  10.004  65.735  1.00  0.00    -0.345 A  
HETATM   21  C   UNL     1     -10.305  10.588  64.538  1.00  0.00    -0.205 A  
HETATM   22  C   UNL     1     -10.776  11.794  67.045  1.00  0.00    -0.286 A  
HETATM   23  C   UNL     1     -11.079  11.765  64.624  1.00  0.00    -0.363 A  
HETATM   24  C   UNL     1     -11.638  12.495  63.433  1.00  0.00    -0.547 C  
HETATM   25  C   UNL     1     -11.342  12.330  65.887  1.00  0.00    -0.406 A  
BRANCH  21  26
HETATM   26  N   UNL     1      -9.874  10.060  63.308  1.00  0.00    -0.508 NA 
HETATM   27  H   UNL     1     -10.549  10.110  62.545  1.00  0.00     0.000 HD 
BRANCH  26  28
HETATM   28  C   UNL     1      -8.646   9.475  62.989  1.00  0.00    -0.217 A  
HETATM   29  N   UNL     1      -7.613  10.301  62.795  1.00  0.00    -0.142 NA 
HETATM   30  C   UNL     1      -6.424   9.731  62.529  1.00  0.00    -0.105 A  
HETATM   31  C   UNL     1      -6.219   8.371  62.466  1.00  0.00    -0.088 A  
HETATM   32  C   UNL     1      -7.330   7.584  62.673  1.00  0.00    -0.094 A  
HETATM   33  N   UNL     1      -8.528   8.140  62.927  1.00  0.00    -0.049 NA 
BRANCH  32  34
HETATM   34  C   UNL     1      -7.330   6.110  62.645  1.00  0.00    -0.057 A  
HETATM   35  C   UNL     1      -8.474   5.345  62.877  1.00  0.00    -0.074 A  
HETATM   36  N   UNL     1      -8.520   3.988  62.882  1.00  0.00    -0.086 NA 
HETATM   37  C   UNL     1      -7.357   3.339  62.642  1.00  0.00    -0.052 A  
HETATM   38  C   UNL     1      -6.160   3.984  62.405  1.00  0.00    -0.017 A  
HETATM   39  C   UNL     1      -6.152   5.377  62.407  1.00  0.00    -0.018 A  
ENDBRANCH  32  34
ENDBRANCH  26  28
ENDBRANCH  21  26
ENDBRANCH  17  19
ENDBRANCH  12  15
ENDBRANCH   8   9
ENDBRANCH   5   8
TORSDOF 7
ENDMDL
MODEL      159
REMARK 921   NORMALIZED FREE ENERGY PREDICTED BY IDOCK:   -0.42 KCAL/MOL
REMARK 922        TOTAL FREE ENERGY PREDICTED BY IDOCK:   -1.75 KCAL/MOL
REMARK 923 INTER-LIGAND FREE ENERGY PREDICTED BY IDOCK:   -3.02 KCAL/MOL
REMARK 924 INTRA-LIGAND FREE ENERGY PREDICTED BY IDOCK:    1.27 KCAL/MOL
REMARK 927      BINDING AFFINITY PREDICTED BY RF-SCORE:    0.00 PKD
ROOT
HETATM    1  C   UNL     1     -10.382  20.749  65.263  1.00  0.00     1.173 C  
HETATM    2  N   UNL     1      -9.625  20.737  66.515  1.00  0.00    -0.054 NA 
HETATM    3  C   UNL     1      -9.919  19.522  67.300  1.00  0.00    -0.379 C  
HETATM    4  C   UNL     1      -9.236  18.237  66.778  1.00  0.00    -0.288 C  
HETATM    5  N   UNL     1      -7.769  18.353  66.602  1.00  0.00    -0.226 NA 
HETATM    6  C   UNL     1      -8.172  20.838  66.261  1.00  0.00     0.388 C  
HETATM    7  C   UNL     1      -7.495  19.536  65.766  1.00  0.00    -0.259 C  
ENDROOT
BRANCH   5   8
HETATM    8  C   UNL     1      -7.030  18.421  67.883  1.00  0.00    -0.215 C  
BRANCH   8   9
HETATM    9  C   UNL     1      -7.127  17.118  68.650  1.00  0.00    -0.217 A  
HETATM   10  C   UNL     1      -6.162  16.815  69.618  1.00  0.00    -0.228 A  
HETATM   11  C   UNL     1      -6.030  15.509  70.081  1.00  0.00    -0.137 A  
HETATM   12  C   UNL     1      -6.865  14.498  69.587  1.00  0.00    -0.142 A  
HETATM   13  C   UNL     1      -8.050  16.137  68.263  1.00  0.00    -0.153 A  
HETATM   14  C   UNL     1      -7.917  14.825  68.722  1.00  0.00    -0.152 A  
BRANCH  12  15
HETATM   15  C   UNL     1      -6.483  13.092  69.884  1.00  0.00     0.043 C  
HETATM   16  O   UNL     1      -5.695  12.875  70.800  1.00  0.00    -0.184 OA 
HETATM   17  N   UNL     1      -7.076  12.108  69.108  1.00  0.00    -0.261 N  
HETATM   18  H   UNL     1      -7.741  12.376  68.382  1.00  0.00     0.000 HD 
BRANCH  17  19
HETATM   19  C   UNL     1      -6.778  10.744  69.303  1.00  0.00    -0.081 A  
HETATM   20  C   UNL     1      -6.871   9.902  68.201  1.00  0.00    -0.064 A  
HETATM   21  C   UNL     1      -6.839   8.502  68.338  1.00  0.00    -0.065 A  
HETATM   22  C   UNL     1      -6.466  10.216  70.548  1.00  0.00    -0.116 A  
HETATM   23  C   UNL     1      -6.533   7.966  69.606  1.00  0.00    -0.034 A  
HETATM   24  C   UNL     1      -6.454   6.493  69.901  1.00  0.00    -0.043 C  
HETATM   25  C   UNL     1      -6.306   8.837  70.690  1.00  0.00    -0.041 A  
BRANCH  21  26
HETATM   26  N   UNL     1      -7.229   7.696  67.254  1.00  0.00    -0.088 NA 
HETATM   27  H   UNL     1      -6.685   7.813  66.398  1.00  0.00     0.000 HD 
BRANCH  26  28
HETATM   28  C   UNL     1      -8.260   6.755  67.189  1.00  0.00    -0.121 A  
HETATM   29  N   UNL     1      -9.208   6.957  66.269  1.00  0.00    -0.149 NA 
HETATM   30  C   UNL     1     -10.176   6.028  66.183  1.00  0.00     0.116 A  
HETATM   31  C   UNL     1     -10.228   4.896  66.965  1.00  0.00    -0.233 A  
HETATM   32  C   UNL     1      -9.220   4.758  67.892  1.00  0.00    -0.122 A  
HETATM   33  N   UNL     1      -8.252   5.685  67.999  1.00  0.00    -0.101 NA 
BRANCH  32  34
HETATM   34  C   UNL     1      -9.090   3.626  68.829  1.00  0.00    -0.200 A  
HETATM   35  C   UNL     1      -9.770   3.563  70.045  1.00  0.00    -0.077 A  
HETATM   36  N   UNL     1      -9.669   2.553  70.948  1.00  0.00    -0.115 NA 
HETATM   37  C   UNL     1      -8.837   1.535  70.628  1.00  0.00    -0.063 A  
HETATM   38  C   UNL     1      -8.105   1.485  69.459  1.00  0.00    -0.059 A  
HETATM   39  C   UNL     1      -8.238   2.539  68.557  1.00  0.00    -0.073 A  
ENDBRANCH  32  34
ENDBRANCH  26  28
ENDBRANCH  21  26
ENDBRANCH  17  19
ENDBRANCH  12  15
ENDBRANCH   8   9
ENDBRANCH   5   8
TORSDOF 7
ENDMDL
MODEL      160
REMARK 921   NORMALIZED FREE ENERGY PREDICTED BY IDOCK:    0.24 KCAL/MOL
REMARK 922        TOTAL FREE ENERGY PREDICTED BY IDOCK:   -0.81 KCAL/MOL
REMARK 923 INTER-LIGAND FREE ENERGY PREDICTED BY IDOCK:   -2.44 KCAL/MOL
REMARK 924 INTRA-LIGAND FREE ENERGY PREDICTED BY IDOCK:    1.63 KCAL/MOL
REMARK 927      BINDING AFFINITY PREDICTED BY RF-SCORE:    0.00 PKD
ROOT
HETATM    1  C   UNL     1     -10.900   1.625  70.047  1.00  0.00     2.775 C  
HETATM    2  N   UNL     1      -9.885   2.374  70.788  1.00  0.00    -0.017 NA 
HETATM    3  C   UNL     1      -8.553   1.759  70.631  1.00  0.00    -0.052 C  
HETATM    4  C   UNL     1      -7.876   2.028  69.268  1.00  0.00    -0.042 C  
HETATM    5  N   UNL     1      -7.789   3.461  68.900  1.00  0.00    -0.051 NA 
HETATM    6  C   UNL     1      -9.845   3.788  70.358  1.00  0.00    -0.065 C  
HETATM    7  C   UNL     1      -9.138   4.047  69.004  1.00  0.00    -0.133 C  
ENDROOT
BRANCH   5   8
HETATM    8  C   UNL     1      -6.814   4.216  69.719  1.00  0.00    -0.041 C  
BRANCH   8   9
HETATM    9  C   UNL     1      -7.058   5.709  69.637  1.00  0.00    -0.064 A  
HETATM   10  C   UNL     1      -7.007   6.349  68.392  1.00  0.00    -0.080 A  
HETATM   11  C   UNL     1      -6.887   7.733  68.328  1.00  0.00    -0.067 A  
HETATM   12  C   UNL     1      -6.824   8.492  69.504  1.00  0.00    -0.044 A  
HETATM   13  C   UNL     1      -7.135   6.479  70.806  1.00  0.00    -0.069 A  
HETATM   14  C   UNL     1      -7.010   7.867  70.744  1.00  0.00    -0.045 A  
BRANCH  12  15
HETATM   15  C   UNL     1      -6.394   9.910  69.380  1.00  0.00    -0.045 C  
HETATM   16  O   UNL     1      -5.372  10.269  69.958  1.00  0.00    -0.037 OA 
HETATM   17  N   UNL     1      -7.178  10.731  68.585  1.00  0.00    -0.083 N  
HETATM   18  H   UNL     1      -7.999  10.342  68.121  1.00  0.00     0.000 HD 
BRANCH  17  19
HETATM   19  C   UNL     1      -6.863  12.093  68.406  1.00  0.00    -0.073 A  
HETATM   20  C   UNL     1      -7.915  13.002  68.407  1.00  0.00    -0.135 A  
HETATM   21  C   UNL     1      -7.738  14.335  67.992  1.00  0.00    -0.141 A  
HETATM   22  C   UNL     1      -5.570  12.538  68.167  1.00  0.00    -0.068 A  
HETATM   23  C   UNL     1      -6.425  14.782  67.739  1.00  0.00    -0.183 A  
HETATM   24  C   UNL     1      -6.081  16.180  67.299  1.00  0.00    -0.167 C  
HETATM   25  C   UNL     1      -5.348  13.884  67.873  1.00  0.00    -0.080 A  
BRANCH  21  26
HETATM   26  N   UNL     1      -8.868  15.129  67.728  1.00  0.00    -0.167 NA 
HETATM   27  H   UNL     1      -9.640  14.655  67.258  1.00  0.00     0.000 HD 
BRANCH  26  28
HETATM   28  C   UNL     1      -9.078  16.478  68.021  1.00  0.00    -0.209 A  
HETATM   29  N   UNL     1     -10.163  16.781  68.739  1.00  0.00    -0.279 NA 
HETATM   30  C   UNL     1     -10.338  18.077  69.054  1.00  0.00    -0.157 A  
HETATM   31  C   UNL     1      -9.467  19.081  68.696  1.00  0.00    -0.457 A  
HETATM   32  C   UNL     1      -8.374  18.693  67.954  1.00  0.00    -0.272 A  
HETATM   33  N   UNL     1      -8.192  17.403  67.621  1.00  0.00    -0.203 NA 
BRANCH  32  34
HETATM   34  C   UNL     1      -7.324  19.607  67.466  1.00  0.00    -0.284 A  
HETATM   35  C   UNL     1      -6.352  20.162  68.298  1.00  0.00    -0.287 A  
HETATM   36  N   UNL     1      -5.379  21.022  67.900  1.00  0.00    -0.259 NA 
HETATM   37  C   UNL     1      -5.365  21.359  66.590  1.00  0.00    -0.280 A  
HETATM   38  C   UNL     1      -6.277  20.882  65.670  1.00  0.00    -0.265 A  
HETATM   39  C   UNL     1      -7.259  20.001  66.116  1.00  0.00    -0.310 A  
ENDBRANCH  32  34
ENDBRANCH  26  28
ENDBRANCH  21  26
ENDBRANCH  17  19
ENDBRANCH  12  15
ENDBRANCH   8   9
ENDBRANCH   5   8
TORSDOF 7
ENDMDL
MODEL      161
REMARK 921   NORMALIZED FREE ENERGY PREDICTED BY IDOCK:    0.50 KCAL/MOL
REMARK 922        TOTAL FREE ENERGY PREDICTED BY IDOCK:   -0.45 KCAL/MOL
REMARK 923 INTER-LIGAND FREE ENERGY PREDICTED BY IDOCK:   -4.94 KCAL/MOL
REMARK 924 INTRA-LIGAND FREE ENERGY PREDICTED BY IDOCK:    4.50 KCAL/MOL
REMARK 927      BINDING AFFINITY PREDICTED BY RF-SCORE:    0.00 PKD
ROOT
HETATM    1  C   UNL     1      -8.172  17.601  65.687  1.00  0.00     0.494 C  
HETATM    2  N   UNL     1      -8.609  16.883  66.885  1.00  0.00    -0.202 NA 
HETATM    3  C   UNL     1      -7.858  17.330  68.074  1.00  0.00    -0.205 C  
HETATM    4  C   UNL     1      -8.297  18.702  68.635  1.00  0.00    -0.313 C  
HETATM    5  N   UNL     1      -9.748  18.812  68.915  1.00  0.00    -0.368 NA 
HETATM    6  C   UNL     1     -10.061  17.052  67.109  1.00  0.00    -0.292 C  
HETATM    7  C   UNL     1     -10.484  18.420  67.699  1.00  0.00    -0.419 C  
ENDROOT
BRANCH   5   8
HETATM    8  C   UNL     1     -10.181  18.013  70.083  1.00  0.00     1.207 C  
BRANCH   8   9
HETATM    9  C   UNL     1     -10.493  16.582  69.692  1.00  0.00    -0.267 A  
HETATM   10  C   UNL     1      -9.450  15.653  69.590  1.00  0.00    -0.243 A  
HETATM   11  C   UNL     1      -9.654  14.453  68.917  1.00  0.00    -0.123 A  
HETATM   12  C   UNL     1     -10.902  14.168  68.345  1.00  0.00    -0.266 A  
HETATM   13  C   UNL     1     -11.775  16.235  69.244  1.00  0.00    -0.127 A  
HETATM   14  C   UNL     1     -11.980  15.034  68.563  1.00  0.00    -0.257 A  
BRANCH  12  15
HETATM   15  C   UNL     1     -10.971  13.029  67.391  1.00  0.00    -0.260 C  
HETATM   16  O   UNL     1     -12.044  12.453  67.237  1.00  0.00    -0.516 OA 
HETATM   17  N   UNL     1      -9.804  12.712  66.713  1.00  0.00    -0.230 N  
HETATM   18  H   UNL     1      -8.961  13.261  66.885  1.00  0.00     0.000 HD 
BRANCH  17  19
HETATM   19  C   UNL     1      -9.759  11.647  65.791  1.00  0.00    -0.236 A  
HETATM   20  C   UNL     1      -9.553  10.369  66.296  1.00  0.00    -0.230 A  
HETATM   21  C   UNL     1      -9.246   9.284  65.453  1.00  0.00    -0.222 A  
HETATM   22  C   UNL     1      -9.847  11.840  64.419  1.00  0.00    -0.227 A  
HETATM   23  C   UNL     1      -9.324   9.484  64.059  1.00  0.00    -0.007 A  
HETATM   24  C   UNL     1      -9.035   8.418  63.038  1.00  0.00     0.580 C  
HETATM   25  C   UNL     1      -9.669  10.755  63.560  1.00  0.00    -0.387 A  
BRANCH  21  26
HETATM   26  N   UNL     1      -8.758   8.092  66.017  1.00  0.00    -0.151 NA 
HETATM   27  H   UNL     1      -7.907   7.720  65.594  1.00  0.00     0.000 HD 
BRANCH  26  28
HETATM   28  C   UNL     1      -9.281   7.347  67.077  1.00  0.00    -0.142 A  
HETATM   29  N   UNL     1     -10.558   6.968  66.979  1.00  0.00    -0.323 NA 
HETATM   30  C   UNL     1     -11.045   6.216  67.983  1.00  0.00    -0.214 A  
HETATM   31  C   UNL     1     -10.304   5.812  69.072  1.00  0.00    -0.313 A  
HETATM   32  C   UNL     1      -8.998   6.245  69.104  1.00  0.00    -0.127 A  
HETATM   33  N   UNL     1      -8.501   7.007  68.114  1.00  0.00    -0.128 NA 
BRANCH  32  34
HETATM   34  C   UNL     1      -8.037   5.930  70.178  1.00  0.00    -0.110 A  
HETATM   35  C   UNL     1      -6.656   5.903  69.980  1.00  0.00    -0.047 A  
HETATM   36  N   UNL     1      -5.735   5.600  70.930  1.00  0.00    -0.016 NA 
HETATM   37  C   UNL     1      -6.208   5.303  72.162  1.00  0.00    -0.031 A  
HETATM   38  C   UNL     1      -7.551   5.290  72.481  1.00  0.00    -0.097 A  
HETATM   39  C   UNL     1      -8.466   5.607  71.479  1.00  0.00    -0.128 A  
ENDBRANCH  32  34
ENDBRANCH  26  28
ENDBRANCH  21  26
ENDBRANCH  17  19
ENDBRANCH  12  15
ENDBRANCH   8   9
ENDBRANCH   5   8
TORSDOF 7
ENDMDL
MODEL      162
REMARK 921   NORMALIZED FREE ENERGY PREDICTED BY IDOCK:    0.66 KCAL/MOL
REMARK 922        TOTAL FREE ENERGY PREDICTED BY IDOCK:   -0.22 KCAL/MOL
REMARK 923 INTER-LIGAND FREE ENERGY PREDICTED BY IDOCK:   -4.85 KCAL/MOL
REMARK 924 INTRA-LIGAND FREE ENERGY PREDICTED BY IDOCK:    4.63 KCAL/MOL
REMARK 927      BINDING AFFINITY PREDICTED BY RF-SCORE:    0.00 PKD
ROOT
HETATM    1  C   UNL     1      -9.250   5.962  65.271  1.00  0.00     0.219 C  
HETATM    2  N   UNL     1      -8.212   6.177  66.280  1.00  0.00    -0.112 NA 
HETATM    3  C   UNL     1      -8.773   6.816  67.487  1.00  0.00    -0.119 C  
HETATM    4  C   UNL     1      -9.583   5.868  68.401  1.00  0.00    -0.122 C  
HETATM    5  N   UNL     1      -8.859   4.638  68.801  1.00  0.00    -0.097 NA 
HETATM    6  C   UNL     1      -7.548   4.907  66.641  1.00  0.00    -0.088 C  
HETATM    7  C   UNL     1      -8.358   3.980  67.581  1.00  0.00    -0.094 C  
ENDROOT
BRANCH   5   8
HETATM    8  C   UNL     1      -7.761   4.892  69.761  1.00  0.00    -0.056 C  
BRANCH   8   9
HETATM    9  C   UNL     1      -7.396   6.361  69.812  1.00  0.00    -0.080 A  
HETATM   10  C   UNL     1      -8.202   7.247  70.539  1.00  0.00    -0.124 A  
HETATM   11  C   UNL     1      -8.092   8.617  70.326  1.00  0.00    -0.109 A  
HETATM   12  C   UNL     1      -7.173   9.115  69.393  1.00  0.00    -0.067 A  
HETATM   13  C   UNL     1      -6.384   6.867  68.985  1.00  0.00    -0.028 A  
HETATM   14  C   UNL     1      -6.275   8.242  68.767  1.00  0.00    -0.045 A  
BRANCH  12  15
HETATM   15  C   UNL     1      -7.312  10.541  68.992  1.00  0.00    -0.103 C  
HETATM   16  O   UNL     1      -8.292  10.874  68.332  1.00  0.00    -0.122 OA 
HETATM   17  N   UNL     1      -6.321  11.409  69.422  1.00  0.00    -0.088 N  
HETATM   18  H   UNL     1      -5.553  11.050  69.989  1.00  0.00     0.000 HD 
BRANCH  17  19
HETATM   19  C   UNL     1      -6.354  12.779  69.092  1.00  0.00    -0.106 A  
HETATM   20  C   UNL     1      -7.544  13.290  68.588  1.00  0.00    -0.094 A  
HETATM   21  C   UNL     1      -7.608  14.567  68.000  1.00  0.00    -0.134 A  
HETATM   22  C   UNL     1      -5.239  13.600  69.190  1.00  0.00    -0.073 A  
HETATM   23  C   UNL     1      -6.470  15.396  68.090  1.00  0.00    -0.133 A  
HETATM   24  C   UNL     1      -6.394  16.787  67.520  1.00  0.00    -0.187 C  
HETATM   25  C   UNL     1      -5.310  14.914  68.727  1.00  0.00    -0.088 A  
BRANCH  21  26
HETATM   26  N   UNL     1      -8.740  14.922  67.246  1.00  0.00    -0.194 NA 
HETATM   27  H   UNL     1      -8.652  15.775  66.693  1.00  0.00     0.000 HD 
BRANCH  26  28
HETATM   28  C   UNL     1      -9.970  14.266  67.152  1.00  0.00    -0.255 A  
HETATM   29  N   UNL     1     -10.860  14.768  66.291  1.00  0.00    -0.315 NA 
HETATM   30  C   UNL     1     -12.027  14.109  66.174  1.00  0.00    -0.422 A  
HETATM   31  C   UNL     1     -12.335  12.959  66.866  1.00  0.00     0.022 A  
HETATM   32  C   UNL     1     -11.370  12.504  67.736  1.00  0.00    -0.296 A  
HETATM   33  N   UNL     1     -10.204  13.160  67.874  1.00  0.00    -0.228 NA 
BRANCH  32  34
HETATM   34  C   UNL     1     -11.499  11.298  68.575  1.00  0.00    -0.372 A  
HETATM   35  C   UNL     1     -10.829  10.105  68.300  1.00  0.00    -0.252 A  
HETATM   36  N   UNL     1     -10.930   8.964  69.029  1.00  0.00    -0.031 NA 
HETATM   37  C   UNL     1     -11.751   9.002  70.105  1.00  0.00     0.102 A  
HETATM   38  C   UNL     1     -12.471  10.119  70.476  1.00  0.00    -0.304 A  
HETATM   39  C   UNL     1     -12.340  11.271  69.703  1.00  0.00    -0.262 A  
ENDBRANCH  32  34
ENDBRANCH  26  28
ENDBRANCH  21  26
ENDBRANCH  17  19
ENDBRANCH  12  15
ENDBRANCH   8   9
ENDBRANCH   5   8
TORSDOF 7
ENDMDL
MODEL      163
REMARK 921   NORMALIZED FREE ENERGY PREDICTED BY IDOCK:    0.96 KCAL/MOL
REMARK 922        TOTAL FREE ENERGY PREDICTED BY IDOCK:    0.20 KCAL/MOL
REMARK 923 INTER-LIGAND FREE ENERGY PREDICTED BY IDOCK:   -5.37 KCAL/MOL
REMARK 924 INTRA-LIGAND FREE ENERGY PREDICTED BY IDOCK:    5.57 KCAL/MOL
REMARK 927      BINDING AFFINITY PREDICTED BY RF-SCORE:    0.00 PKD
ROOT
HETATM    1  C   UNL     1      -7.573  14.865  68.720  1.00  0.00    -0.135 C  
HETATM    2  N   UNL     1      -8.405  13.698  68.419  1.00  0.00    -0.157 NA 
HETATM    3  C   UNL     1      -9.836  14.005  68.610  1.00  0.00    -0.191 C  
HETATM    4  C   UNL     1     -10.469  14.852  67.483  1.00  0.00    -0.254 C  
HETATM    5  N   UNL     1     -10.274  14.302  66.121  1.00  0.00    -0.296 NA 
HETATM    6  C   UNL     1      -8.168  13.217  67.041  1.00  0.00    -0.051 C  
HETATM    7  C   UNL     1      -8.834  14.058  65.923  1.00  0.00     0.735 C  
ENDROOT
BRANCH   5   8
HETATM    8  C   UNL     1     -11.064  13.076  65.866  1.00  0.00    -0.280 C  
BRANCH   8   9
HETATM    9  C   UNL     1     -10.188  11.840  65.875  1.00  0.00    -0.272 A  
HETATM   10  C   UNL     1     -10.321  10.894  64.851  1.00  0.00    -0.371 A  
HETATM   11  C   UNL     1      -9.791   9.617  65.013  1.00  0.00    -0.141 A  
HETATM   12  C   UNL     1      -9.118   9.278  66.194  1.00  0.00    -0.224 A  
HETATM   13  C   UNL     1      -9.395  11.543  66.992  1.00  0.00    -0.185 A  
HETATM   14  C   UNL     1      -8.867  10.261  67.159  1.00  0.00    -0.141 A  
BRANCH  12  15
HETATM   15  C   UNL     1      -8.847   7.835  66.434  1.00  0.00    -0.155 C  
HETATM   16  O   UNL     1      -8.327   7.501  67.495  1.00  0.00    -0.116 OA 
HETATM   17  N   UNL     1      -9.232   6.954  65.436  1.00  0.00    -0.279 N  
HETATM   18  H   UNL     1      -9.681   7.317  64.594  1.00  0.00     0.000 HD 
BRANCH  17  19
HETATM   19  C   UNL     1      -9.015   5.567  65.560  1.00  0.00    -0.126 A  
HETATM   20  C   UNL     1      -9.012   5.029  66.841  1.00  0.00    -0.112 A  
HETATM   21  C   UNL     1      -8.562   3.719  67.089  1.00  0.00    -0.107 A  
HETATM   22  C   UNL     1      -8.744   4.751  64.470  1.00  0.00    -0.153 A  
HETATM   23  C   UNL     1      -8.276   2.894  65.982  1.00  0.00    -0.089 A  
HETATM   24  C   UNL     1      -7.797   1.472  66.091  1.00  0.00    -0.067 C  
HETATM   25  C   UNL     1      -8.414   3.411  64.679  1.00  0.00    -0.093 A  
BRANCH  21  26
HETATM   26  N   UNL     1      -8.297   3.322  68.412  1.00  0.00    -0.076 NA 
HETATM   27  H   UNL     1      -8.315   2.316  68.582  1.00  0.00     0.000 HD 
BRANCH  26  28
HETATM   28  C   UNL     1      -8.012   4.117  69.524  1.00  0.00    -0.056 A  
HETATM   29  N   UNL     1      -6.907   3.820  70.215  1.00  0.00    -0.033 NA 
HETATM   30  C   UNL     1      -6.615   4.614  71.261  1.00  0.00    -0.027 A  
HETATM   31  C   UNL     1      -7.370   5.702  71.636  1.00  0.00    -0.091 A  
HETATM   32  C   UNL     1      -8.495   5.944  70.880  1.00  0.00    -0.127 A  
HETATM   33  N   UNL     1      -8.807   5.151  69.839  1.00  0.00    -0.102 NA 
BRANCH  32  34
HETATM   34  C   UNL     1      -9.440   7.052  71.112  1.00  0.00    -0.165 A  
HETATM   35  C   UNL     1      -9.518   8.171  70.284  1.00  0.00    -0.170 A  
HETATM   36  N   UNL     1     -10.356   9.224  70.468  1.00  0.00    -0.233 NA 
HETATM   37  C   UNL     1     -11.174   9.169  71.545  1.00  0.00    -0.360 A  
HETATM   38  C   UNL     1     -11.186   8.118  72.440  1.00  0.00    -0.452 A  
HETATM   39  C   UNL     1     -10.312   7.056  72.217  1.00  0.00    -0.216 A  
ENDBRANCH  32  34
ENDBRANCH  26  28
ENDBRANCH  21  26
ENDBRANCH  17  19
ENDBRANCH  12  15
ENDBRANCH   8   9
ENDBRANCH   5   8
TORSDOF 7
ENDMDL
MODEL      164
REMARK 921   NORMALIZED FREE ENERGY PREDICTED BY IDOCK:    1.76 KCAL/MOL
REMARK 922        TOTAL FREE ENERGY PREDICTED BY IDOCK:    1.33 KCAL/MOL
REMARK 923 INTER-LIGAND FREE ENERGY PREDICTED BY IDOCK:   -1.63 KCAL/MOL
REMARK 924 INTRA-LIGAND FREE ENERGY PREDICTED BY IDOCK:    2.96 KCAL/MOL
REMARK 927      BINDING AFFINITY PREDICTED BY RF-SCORE:    0.00 PKD
ROOT
HETATM    1  C   UNL     1     -11.191  17.662  72.639  1.00  0.00     2.142 C  
HETATM    2  N   UNL     1     -11.293  16.239  72.309  1.00  0.00    -0.027 NA 
HETATM    3  C   UNL     1     -12.024  15.504  73.360  1.00  0.00    -0.448 C  
HETATM    4  C   UNL     1     -13.557  15.705  73.339  1.00  0.00    -0.212 C  
HETATM    5  N   UNL     1     -14.192  15.429  72.029  1.00  0.00    -0.543 NA 
HETATM    6  C   UNL     1     -11.950  16.041  71.000  1.00  0.00    -0.366 C  
HETATM    7  C   UNL     1     -13.489  16.217  71.000  1.00  0.00     1.433 C  
ENDROOT
BRANCH   5   8
HETATM    8  C   UNL     1     -14.211  13.990  71.679  1.00  0.00    -0.233 C  
BRANCH   8   9
HETATM    9  C   UNL     1     -13.033  13.615  70.804  1.00  0.00    -0.205 A  
HETATM   10  C   UNL     1     -13.004  14.038  69.469  1.00  0.00     0.771 A  
HETATM   11  C   UNL     1     -12.130  13.436  68.570  1.00  0.00    -0.283 A  
HETATM   12  C   UNL     1     -11.273  12.412  68.996  1.00  0.00    -0.320 A  
HETATM   13  C   UNL     1     -12.081  12.692  71.258  1.00  0.00     0.270 A  
HETATM   14  C   UNL     1     -11.206  12.083  70.356  1.00  0.00     0.667 A  
BRANCH  12  15
HETATM   15  C   UNL     1     -10.593  11.609  67.946  1.00  0.00    -0.193 C  
HETATM   16  O   UNL     1      -9.861  10.685  68.290  1.00  0.00    -0.155 OA 
HETATM   17  N   UNL     1     -10.861  11.951  66.629  1.00  0.00    -0.263 N  
HETATM   18  H   UNL     1     -11.503  12.719  66.432  1.00  0.00     0.000 HD 
BRANCH  17  19
HETATM   19  C   UNL     1     -10.263  11.259  65.557  1.00  0.00    -0.260 A  
HETATM   20  C   UNL     1      -9.516  10.127  65.859  1.00  0.00    -0.249 A  
HETATM   21  C   UNL     1      -8.683   9.516  64.904  1.00  0.00    -0.189 A  
HETATM   22  C   UNL     1     -10.342  11.700  64.243  1.00  0.00    -0.371 A  
HETATM   23  C   UNL     1      -8.755   9.973  63.572  1.00  0.00    -0.229 A  
HETATM   24  C   UNL     1      -7.935   9.412  62.442  1.00  0.00    -0.127 C  
HETATM   25  C   UNL     1      -9.622  11.036  63.250  1.00  0.00    -0.370 A  
BRANCH  21  26
HETATM   26  N   UNL     1      -7.731   8.570  65.324  1.00  0.00    -0.092 NA 
HETATM   27  H   UNL     1      -6.755   8.834  65.184  1.00  0.00     0.000 HD 
BRANCH  26  28
HETATM   28  C   UNL     1      -7.939   7.319  65.908  1.00  0.00    -0.115 A  
HETATM   29  N   UNL     1      -7.569   6.249  65.198  1.00  0.00    -0.086 NA 
HETATM   30  C   UNL     1      -7.734   5.048  65.782  1.00  0.00    -0.091 A  
HETATM   31  C   UNL     1      -8.237   4.871  67.051  1.00  0.00    -0.107 A  
HETATM   32  C   UNL     1      -8.601   6.019  67.719  1.00  0.00    -0.106 A  
HETATM   33  N   UNL     1      -8.453   7.226  67.144  1.00  0.00    -0.117 NA 
BRANCH  32  34
HETATM   34  C   UNL     1      -9.163   6.053  69.082  1.00  0.00    -0.131 A  
HETATM   35  C   UNL     1     -10.526   5.917  69.347  1.00  0.00    -0.275 A  
HETATM   36  N   UNL     1     -11.093   5.962  70.580  1.00  0.00    -0.292 NA 
HETATM   37  C   UNL     1     -10.256   6.155  71.626  1.00  0.00    -0.198 A  
HETATM   38  C   UNL     1      -8.891   6.310  71.493  1.00  0.00    -0.138 A  
HETATM   39  C   UNL     1      -8.347   6.257  70.211  1.00  0.00    -0.126 A  
ENDBRANCH  32  34
ENDBRANCH  26  28
ENDBRANCH  21  26
ENDBRANCH  17  19
ENDBRANCH  12  15
ENDBRANCH   8   9
ENDBRANCH   5   8
TORSDOF 7
ENDMDL
MODEL      165
REMARK 921   NORMALIZED FREE ENERGY PREDICTED BY IDOCK:    2.32 KCAL/MOL
REMARK 922        TOTAL FREE ENERGY PREDICTED BY IDOCK:    2.12 KCAL/MOL
REMARK 923 INTER-LIGAND FREE ENERGY PREDICTED BY IDOCK:    2.04 KCAL/MOL
REMARK 924 INTRA-LIGAND FREE ENERGY PREDICTED BY IDOCK:    0.08 KCAL/MOL
REMARK 927      BINDING AFFINITY PREDICTED BY RF-SCORE:    0.00 PKD
ROOT
HETATM    1  C   UNL     1     -12.081   7.133  70.765  1.00  0.00    -0.288 C  
HETATM    2  N   UNL     1     -10.906   7.937  71.104  1.00  0.00    -0.232 NA 
HETATM    3  C   UNL     1      -9.886   7.120  71.790  1.00  0.00    -0.161 C  
HETATM    4  C   UNL     1      -9.081   6.181  70.862  1.00  0.00    -0.150 C  
HETATM    5  N   UNL     1      -8.453   6.858  69.703  1.00  0.00    -0.132 NA 
HETATM    6  C   UNL     1     -10.325   8.566  69.899  1.00  0.00    -0.210 C  
HETATM    7  C   UNL     1      -9.496   7.621  68.994  1.00  0.00    -0.150 C  
ENDROOT
BRANCH   5   8
HETATM    8  C   UNL     1      -7.317   7.730  70.080  1.00  0.00    -0.075 C  
BRANCH   8   9
HETATM    9  C   UNL     1      -7.267   8.979  69.224  1.00  0.00    -0.065 A  
HETATM   10  C   UNL     1      -7.685  10.202  69.765  1.00  0.00    -0.176 A  
HETATM   11  C   UNL     1      -7.970  11.271  68.922  1.00  0.00    -0.104 A  
HETATM   12  C   UNL     1      -7.835  11.132  67.534  1.00  0.00    -0.117 A  
HETATM   13  C   UNL     1      -6.999   8.886  67.851  1.00  0.00    -0.078 A  
HETATM   14  C   UNL     1      -7.289   9.956  67.003  1.00  0.00    -0.091 A  
BRANCH  12  15
HETATM   15  C   UNL     1      -8.437  12.189  66.679  1.00  0.00    -0.088 C  
HETATM   16  O   UNL     1      -8.282  12.125  65.463  1.00  0.00     0.791 OA 
HETATM   17  N   UNL     1      -9.164  13.175  67.328  1.00  0.00    -0.212 N  
HETATM   18  H   UNL     1      -9.262  13.139  68.343  1.00  0.00     0.000 HD 
BRANCH  17  19
HETATM   19  C   UNL     1      -9.771  14.227  66.613  1.00  0.00    -0.287 A  
HETATM   20  C   UNL     1      -8.945  15.232  66.124  1.00  0.00    -0.251 A  
HETATM   21  C   UNL     1      -9.468  16.437  65.621  1.00  0.00    -0.016 A  
HETATM   22  C   UNL     1     -11.145  14.323  66.444  1.00  0.00    -0.325 A  
HETATM   23  C   UNL     1     -10.865  16.538  65.460  1.00  0.00    -0.196 A  
HETATM   24  C   UNL     1     -11.567  17.758  64.926  1.00  0.00     2.368 C  
HETATM   25  C   UNL     1     -11.686  15.456  65.834  1.00  0.00     0.208 A  
BRANCH  21  26
HETATM   26  N   UNL     1      -8.606  17.530  65.416  1.00  0.00     0.440 NA 
HETATM   27  H   UNL     1      -8.867  18.162  64.659  1.00  0.00     0.000 HD 
BRANCH  26  28
HETATM   28  C   UNL     1      -7.441  17.867  66.109  1.00  0.00    -0.280 A  
HETATM   29  N   UNL     1      -6.296  17.833  65.422  1.00  0.00    -0.102 NA 
HETATM   30  C   UNL     1      -5.182  18.198  66.082  1.00  0.00    -0.169 A  
HETATM   31  C   UNL     1      -5.166  18.612  67.395  1.00  0.00    -0.148 A  
HETATM   32  C   UNL     1      -6.383  18.617  68.039  1.00  0.00    -0.205 A  
HETATM   33  N   UNL     1      -7.503  18.242  67.396  1.00  0.00    -0.212 NA 
BRANCH  32  34
HETATM   34  C   UNL     1      -6.587  19.020  69.443  1.00  0.00    -0.320 A  
HETATM   35  C   UNL     1      -7.798  19.520  69.923  1.00  0.00     0.550 A  
HETATM   36  N   UNL     1      -8.029  19.921  71.199  1.00  0.00     1.660 NA 
HETATM   37  C   UNL     1      -6.992  19.825  72.063  1.00  0.00     1.283 A  
HETATM   38  C   UNL     1      -5.745  19.353  71.708  1.00  0.00    -0.191 A  
HETATM   39  C   UNL     1      -5.547  18.948  70.389  1.00  0.00    -0.231 A  
ENDBRANCH  32  34
ENDBRANCH  26  28
ENDBRANCH  21  26
ENDBRANCH  17  19
ENDBRANCH  12  15
ENDBRANCH   8   9
ENDBRANCH   5   8
TORSDOF 7
ENDMDL
MODEL      166
REMARK 921   NORMALIZED FREE ENERGY PREDICTED BY IDOCK:    2.35 KCAL/MOL
REMARK 922        TOTAL FREE ENERGY PREDICTED BY IDOCK:    2.17 KCAL/MOL
REMARK 923 INTER-LIGAND FREE ENERGY PREDICTED BY IDOCK:    0.25 KCAL/MOL
REMARK 924 INTRA-LIGAND FREE ENERGY PREDICTED BY IDOCK:    1.92 KCAL/MOL
REMARK 927      BINDING AFFINITY PREDICTED BY RF-SCORE:    0.00 PKD
ROOT
HETATM    1  C   UNL     1      -9.601   6.485  65.396  1.00  0.00     0.793 C  
HETATM    2  N   UNL     1      -9.208   7.526  66.348  1.00  0.00    -0.172 NA 
HETATM    3  C   UNL     1     -10.389   8.099  67.022  1.00  0.00    -0.333 C  
HETATM    4  C   UNL     1     -10.999   7.204  68.125  1.00  0.00    -0.047 C  
HETATM    5  N   UNL     1     -10.030   6.755  69.153  1.00  0.00    -0.157 NA 
HETATM    6  C   UNL     1      -8.256   7.002  67.349  1.00  0.00    -0.119 C  
HETATM    7  C   UNL     1      -8.884   6.131  68.466  1.00  0.00    -0.113 C  
ENDROOT
BRANCH   5   8
HETATM    8  C   UNL     1      -9.585   7.843  70.053  1.00  0.00    -0.168 C  
BRANCH   8   9
HETATM    9  C   UNL     1     -10.013   9.201  69.536  1.00  0.00    -0.193 A  
HETATM   10  C   UNL     1      -9.062  10.220  69.404  1.00  0.00    -0.203 A  
HETATM   11  C   UNL     1      -9.475  11.541  69.265  1.00  0.00     0.338 A  
HETATM   12  C   UNL     1     -10.841  11.855  69.250  1.00  0.00    -0.157 A  
HETATM   13  C   UNL     1     -11.374   9.501  69.379  1.00  0.00     0.018 A  
HETATM   14  C   UNL     1     -11.791  10.826  69.245  1.00  0.00    -0.359 A  
BRANCH  12  15
HETATM   15  C   UNL     1     -11.214  13.287  69.406  1.00  0.00    -0.158 C  
HETATM   16  O   UNL     1     -12.401  13.595  69.365  1.00  0.00    -0.292 OA 
HETATM   17  N   UNL     1     -10.176  14.181  69.616  1.00  0.00    -0.345 N  
HETATM   18  H   UNL     1      -9.217  13.835  69.659  1.00  0.00     0.000 HD 
BRANCH  17  19
HETATM   19  C   UNL     1     -10.419  15.561  69.770  1.00  0.00    -0.301 A  
HETATM   20  C   UNL     1      -9.849  16.422  68.840  1.00  0.00    -0.260 A  
HETATM   21  C   UNL     1      -9.822  17.814  69.044  1.00  0.00    -0.225 A  
HETATM   22  C   UNL     1     -11.141  16.080  70.836  1.00  0.00    -0.288 A  
HETATM   23  C   UNL     1     -10.546  18.340  70.134  1.00  0.00     1.555 A  
HETATM   24  C   UNL     1     -10.619  19.804  70.471  1.00  0.00     1.719 C  
HETATM   25  C   UNL     1     -11.236  17.463  70.994  1.00  0.00     1.625 A  
BRANCH  21  26
HETATM   26  N   UNL     1      -8.987  18.611  68.241  1.00  0.00    -0.310 NA 
HETATM   27  H   UNL     1      -9.363  19.524  67.984  1.00  0.00     0.000 HD 
BRANCH  26  28
HETATM   28  C   UNL     1      -7.712  18.323  67.748  1.00  0.00    -0.235 A  
HETATM   29  N   UNL     1      -6.963  17.477  68.461  1.00  0.00    -0.205 NA 
HETATM   30  C   UNL     1      -5.752  17.171  67.962  1.00  0.00    -0.120 A  
HETATM   31  C   UNL     1      -5.265  17.661  66.770  1.00  0.00    -0.190 A  
HETATM   32  C   UNL     1      -6.091  18.529  66.093  1.00  0.00    -0.178 A  
HETATM   33  N   UNL     1      -7.299  18.854  66.587  1.00  0.00    -0.217 NA 
BRANCH  32  34
HETATM   34  C   UNL     1      -5.762  19.168  64.806  1.00  0.00    -0.295 A  
HETATM   35  C   UNL     1      -5.631  20.549  64.653  1.00  0.00    -0.211 A  
HETATM   36  N   UNL     1      -5.349  21.184  63.486  1.00  0.00    -0.217 NA 
HETATM   37  C   UNL     1      -5.186  20.403  62.394  1.00  0.00    -0.202 A  
HETATM   38  C   UNL     1      -5.297  19.028  62.415  1.00  0.00    -0.156 A  
HETATM   39  C   UNL     1      -5.586  18.412  63.632  1.00  0.00     0.628 A  
ENDBRANCH  32  34
ENDBRANCH  26  28
ENDBRANCH  21  26
ENDBRANCH  17  19
ENDBRANCH  12  15
ENDBRANCH   8   9
ENDBRANCH   5   8
TORSDOF 7
ENDMDL
MODEL      167
REMARK 921   NORMALIZED FREE ENERGY PREDICTED BY IDOCK:    2.37 KCAL/MOL
REMARK 922        TOTAL FREE ENERGY PREDICTED BY IDOCK:    2.18 KCAL/MOL
REMARK 923 INTER-LIGAND FREE ENERGY PREDICTED BY IDOCK:   -1.95 KCAL/MOL
REMARK 924 INTRA-LIGAND FREE ENERGY PREDICTED BY IDOCK:    4.13 KCAL/MOL
REMARK 927      BINDING AFFINITY PREDICTED BY RF-SCORE:    0.00 PKD
ROOT
HETATM    1  C   UNL     1     -10.950  16.756  72.802  1.00  0.00     2.319 C  
HETATM    2  N   UNL     1     -11.228  15.425  72.261  1.00  0.00    -0.331 NA 
HETATM    3  C   UNL     1     -11.980  14.605  73.231  1.00  0.00    -0.025 C  
HETATM    4  C   UNL     1     -13.480  14.962  73.349  1.00  0.00     0.099 C  
HETATM    5  N   UNL     1     -14.210  14.970  72.059  1.00  0.00    -0.506 NA 
HETATM    6  C   UNL     1     -11.971  15.512  70.986  1.00  0.00    -0.381 C  
HETATM    7  C   UNL     1     -13.479  15.840  71.120  1.00  0.00    -0.055 C  
ENDROOT
BRANCH   5   8
HETATM    8  C   UNL     1     -14.408  13.618  71.491  1.00  0.00     0.419 C  
BRANCH   8   9
HETATM    9  C   UNL     1     -13.101  13.018  71.014  1.00  0.00    -0.100 A  
HETATM   10  C   UNL     1     -12.515  13.492  69.834  1.00  0.00    -0.194 A  
HETATM   11  C   UNL     1     -11.523  12.746  69.204  1.00  0.00    -0.361 A  
HETATM   12  C   UNL     1     -11.103  11.526  69.751  1.00  0.00    -0.156 A  
HETATM   13  C   UNL     1     -12.582  11.872  71.632  1.00  0.00    -0.237 A  
HETATM   14  C   UNL     1     -11.591  11.119  70.999  1.00  0.00     0.258 A  
BRANCH  12  15
HETATM   15  C   UNL     1     -10.276  10.640  68.889  1.00  0.00    -0.201 C  
HETATM   16  O   UNL     1      -9.649   9.725  69.413  1.00  0.00    -0.182 OA 
HETATM   17  N   UNL     1     -10.296  10.901  67.527  1.00  0.00    -0.193 N  
HETATM   18  H   UNL     1     -10.866  11.670  67.173  1.00  0.00     0.000 HD 
BRANCH  17  19
HETATM   19  C   UNL     1      -9.543  10.126  66.623  1.00  0.00    -0.183 A  
HETATM   20  C   UNL     1      -8.789   9.081  67.144  1.00  0.00    -0.130 A  
HETATM   21  C   UNL     1      -7.821   8.414  66.372  1.00  0.00    -0.098 A  
HETATM   22  C   UNL     1      -9.480  10.410  65.265  1.00  0.00    -0.290 A  
HETATM   23  C   UNL     1      -7.749   8.711  64.995  1.00  0.00    -0.103 A  
HETATM   24  C   UNL     1      -6.774   8.072  64.044  1.00  0.00    -0.066 C  
HETATM   25  C   UNL     1      -8.615   9.679  64.449  1.00  0.00    -0.208 A  
BRANCH  21  26
HETATM   26  N   UNL     1      -6.887   7.578  67.011  1.00  0.00    -0.069 NA 
HETATM   27  H   UNL     1      -5.911   7.864  66.929  1.00  0.00     0.000 HD 
BRANCH  26  28
HETATM   28  C   UNL     1      -7.115   6.410  67.742  1.00  0.00    -0.085 A  
HETATM   29  N   UNL     1      -7.195   5.268  67.051  1.00  0.00    -0.077 NA 
HETATM   30  C   UNL     1      -7.373   4.141  67.764  1.00  0.00    -0.068 A  
HETATM   31  C   UNL     1      -7.458   4.104  69.137  1.00  0.00    -0.054 A  
HETATM   32  C   UNL     1      -7.372   5.319  69.779  1.00  0.00    -0.064 A  
HETATM   33  N   UNL     1      -7.206   6.455  69.080  1.00  0.00    -0.081 NA 
BRANCH  32  34
HETATM   34  C   UNL     1      -7.443   5.502  71.241  1.00  0.00    -0.097 A  
HETATM   35  C   UNL     1      -6.351   5.903  72.011  1.00  0.00    -0.049 A  
HETATM   36  N   UNL     1      -6.362   6.066  73.359  1.00  0.00    -0.063 NA 
HETATM   37  C   UNL     1      -7.532   5.815  73.992  1.00  0.00    -0.092 A  
HETATM   38  C   UNL     1      -8.679   5.407  73.341  1.00  0.00    -0.115 A  
HETATM   39  C   UNL     1      -8.628   5.252  71.957  1.00  0.00    -0.130 A  
ENDBRANCH  32  34
ENDBRANCH  26  28
ENDBRANCH  21  26
ENDBRANCH  17  19
ENDBRANCH  12  15
ENDBRANCH   8   9
ENDBRANCH   5   8
TORSDOF 7
ENDMDL
MODEL      168
REMARK 921   NORMALIZED FREE ENERGY PREDICTED BY IDOCK:    2.40 KCAL/MOL
REMARK 922        TOTAL FREE ENERGY PREDICTED BY IDOCK:    2.22 KCAL/MOL
REMARK 923 INTER-LIGAND FREE ENERGY PREDICTED BY IDOCK:    0.12 KCAL/MOL
REMARK 924 INTRA-LIGAND FREE ENERGY PREDICTED BY IDOCK:    2.11 KCAL/MOL
REMARK 927      BINDING AFFINITY PREDICTED BY RF-SCORE:    0.00 PKD
ROOT
HETATM    1  C   UNL     1     -11.271   3.233  66.148  1.00  0.00     4.748 C  
HETATM    2  N   UNL     1      -9.835   3.122  66.405  1.00  0.00     0.184 NA 
HETATM    3  C   UNL     1      -9.162   2.364  65.332  1.00  0.00    -0.081 C  
HETATM    4  C   UNL     1      -8.951   3.154  64.020  1.00  0.00    -0.101 C  
HETATM    5  N   UNL     1      -8.262   4.455  64.194  1.00  0.00    -0.097 NA 
HETATM    6  C   UNL     1      -9.214   4.455  66.550  1.00  0.00    -0.142 C  
HETATM    7  C   UNL     1      -8.981   5.224  65.226  1.00  0.00    -0.125 C  
ENDROOT
BRANCH   5   8
HETATM    8  C   UNL     1      -6.828   4.316  64.534  1.00  0.00    -0.045 C  
BRANCH   8   9
HETATM    9  C   UNL     1      -6.304   5.546  65.246  1.00  0.00    -0.038 A  
HETATM   10  C   UNL     1      -6.795   5.867  66.518  1.00  0.00    -0.059 A  
HETATM   11  C   UNL     1      -6.595   7.143  67.037  1.00  0.00    -0.059 A  
HETATM   12  C   UNL     1      -5.898   8.106  66.294  1.00  0.00    -0.041 A  
HETATM   13  C   UNL     1      -5.490   6.463  64.568  1.00  0.00    -0.022 A  
HETATM   14  C   UNL     1      -5.292   7.745  65.084  1.00  0.00    -0.029 A  
BRANCH  12  15
HETATM   15  C   UNL     1      -5.980   9.516  66.758  1.00  0.00    -0.059 C  
HETATM   16  O   UNL     1      -5.401  10.384  66.111  1.00  0.00    -0.050 OA 
HETATM   17  N   UNL     1      -6.741   9.756  67.891  1.00  0.00    -0.065 N  
HETATM   18  H   UNL     1      -7.210   8.977  68.354  1.00  0.00     0.000 HD 
BRANCH  17  19
HETATM   19  C   UNL     1      -6.879  11.056  68.419  1.00  0.00    -0.065 A  
HETATM   20  C   UNL     1      -7.978  11.802  68.010  1.00  0.00    -0.141 A  
HETATM   21  C   UNL     1      -8.074  13.180  68.277  1.00  0.00    -0.152 A  
HETATM   22  C   UNL     1      -5.936  11.625  69.264  1.00  0.00    -0.071 A  
HETATM   23  C   UNL     1      -7.109  13.760  69.127  1.00  0.00    -0.053 A  
HETATM   24  C   UNL     1      -7.088  15.215  69.510  1.00  0.00    -0.195 C  
HETATM   25  C   UNL     1      -6.072  12.960  69.647  1.00  0.00    -0.124 A  
BRANCH  21  26
HETATM   26  N   UNL     1      -9.039  13.947  67.601  1.00  0.00    -0.188 NA 
HETATM   27  H   UNL     1      -9.323  13.593  66.687  1.00  0.00     0.000 HD 
BRANCH  26  28
HETATM   28  C   UNL     1      -9.663  15.128  68.010  1.00  0.00    -0.209 A  
HETATM   29  N   UNL     1     -10.855  15.011  68.601  1.00  0.00    -0.241 NA 
HETATM   30  C   UNL     1     -11.433  16.148  69.030  1.00  0.00    -0.323 A  
HETATM   31  C   UNL     1     -10.862  17.395  68.909  1.00  0.00    -0.009 A  
HETATM   32  C   UNL     1      -9.635  17.437  68.286  1.00  0.00    -0.292 A  
HETATM   33  N   UNL     1      -9.050  16.310  67.841  1.00  0.00    -0.195 NA 
BRANCH  32  34
HETATM   34  C   UNL     1      -8.855  18.667  68.052  1.00  0.00    -0.329 A  
HETATM   35  C   UNL     1      -7.509  18.791  68.398  1.00  0.00    -0.298 A  
HETATM   36  N   UNL     1      -6.755  19.907  68.220  1.00  0.00    -0.278 NA 
HETATM   37  C   UNL     1      -7.373  20.975  67.665  1.00  0.00    -0.164 A  
HETATM   38  C   UNL     1      -8.700  20.978  67.288  1.00  0.00    -0.017 A  
HETATM   39  C   UNL     1      -9.440  19.813  67.484  1.00  0.00    -0.456 A  
ENDBRANCH  32  34
ENDBRANCH  26  28
ENDBRANCH  21  26
ENDBRANCH  17  19
ENDBRANCH  12  15
ENDBRANCH   8   9
ENDBRANCH   5   8
TORSDOF 7
ENDMDL
MODEL      169
REMARK 921   NORMALIZED FREE ENERGY PREDICTED BY IDOCK:    2.48 KCAL/MOL
REMARK 922        TOTAL FREE ENERGY PREDICTED BY IDOCK:    2.34 KCAL/MOL
REMARK 923 INTER-LIGAND FREE ENERGY PREDICTED BY IDOCK:   -0.96 KCAL/MOL
REMARK 924 INTRA-LIGAND FREE ENERGY PREDICTED BY IDOCK:    3.30 KCAL/MOL
REMARK 927      BINDING AFFINITY PREDICTED BY RF-SCORE:    0.00 PKD
ROOT
HETATM    1  C   UNL     1     -11.254  18.031  72.723  1.00  0.00     2.480 C  
HETATM    2  N   UNL     1     -11.304  16.577  72.567  1.00  0.00     0.224 NA 
HETATM    3  C   UNL     1     -12.130  15.959  73.623  1.00  0.00    -0.453 C  
HETATM    4  C   UNL     1     -13.655  16.118  73.424  1.00  0.00    -0.203 C  
HETATM    5  N   UNL     1     -14.148  15.665  72.102  1.00  0.00    -0.502 NA 
HETATM    6  C   UNL     1     -11.821  16.201  71.234  1.00  0.00    -0.405 C  
HETATM    7  C   UNL     1     -13.354  16.336  71.057  1.00  0.00     1.879 C  
ENDROOT
BRANCH   5   8
HETATM    8  C   UNL     1     -14.114  14.194  71.937  1.00  0.00    -0.479 C  
BRANCH   8   9
HETATM    9  C   UNL     1     -12.987  13.764  71.021  1.00  0.00    -0.324 A  
HETATM   10  C   UNL     1     -12.950  14.238  69.704  1.00  0.00     0.508 A  
HETATM   11  C   UNL     1     -12.144  13.606  68.761  1.00  0.00    -0.332 A  
HETATM   12  C   UNL     1     -11.364  12.501  69.127  1.00  0.00    -0.331 A  
HETATM   13  C   UNL     1     -12.102  12.750  71.416  1.00  0.00     0.412 A  
HETATM   14  C   UNL     1     -11.297  12.112  70.471  1.00  0.00     0.704 A  
BRANCH  12  15
HETATM   15  C   UNL     1     -10.770  11.691  68.030  1.00  0.00    -0.208 C  
HETATM   16  O   UNL     1     -10.098  10.706  68.321  1.00  0.00    -0.150 OA 
HETATM   17  N   UNL     1     -11.046  12.100  66.735  1.00  0.00    -0.283 N  
HETATM   18  H   UNL     1     -11.636  12.919  66.583  1.00  0.00     0.000 HD 
BRANCH  17  19
HETATM   19  C   UNL     1     -10.528  11.407  65.622  1.00  0.00    -0.262 A  
HETATM   20  C   UNL     1      -9.938  10.171  65.854  1.00  0.00    -0.334 A  
HETATM   21  C   UNL     1      -9.177   9.520  64.865  1.00  0.00    -0.223 A  
HETATM   22  C   UNL     1     -10.529  11.940  64.341  1.00  0.00    -0.356 A  
HETATM   23  C   UNL     1      -9.170  10.069  63.565  1.00  0.00    -0.315 A  
HETATM   24  C   UNL     1      -8.412   9.480  62.406  1.00  0.00    -0.191 C  
HETATM   25  C   UNL     1      -9.886  11.254  63.310  1.00  0.00    -0.418 A  
BRANCH  21  26
HETATM   26  N   UNL     1      -8.362   8.433  65.227  1.00  0.00    -0.153 NA 
HETATM   27  H   UNL     1      -7.358   8.578  65.117  1.00  0.00     0.000 HD 
BRANCH  26  28
HETATM   28  C   UNL     1      -8.740   7.181  65.718  1.00  0.00    -0.107 A  
HETATM   29  N   UNL     1      -9.609   7.165  66.733  1.00  0.00    -0.170 NA 
HETATM   30  C   UNL     1     -10.001   5.957  67.176  1.00  0.00    -0.159 A  
HETATM   31  C   UNL     1      -9.577   4.764  66.635  1.00  0.00    -0.182 A  
HETATM   32  C   UNL     1      -8.680   4.860  65.595  1.00  0.00    -0.135 A  
HETATM   33  N   UNL     1      -8.268   6.060  65.150  1.00  0.00    -0.139 NA 
BRANCH  32  34
HETATM   34  C   UNL     1      -8.099   3.708  64.879  1.00  0.00    -0.090 A  
HETATM   35  C   UNL     1      -8.669   3.161  63.730  1.00  0.00    -0.089 A  
HETATM   36  N   UNL     1      -8.182   2.091  63.048  1.00  0.00    -0.068 NA 
HETATM   37  C   UNL     1      -7.057   1.521  63.536  1.00  0.00    -0.035 A  
HETATM   38  C   UNL     1      -6.405   1.966  64.668  1.00  0.00    -0.019 A  
HETATM   39  C   UNL     1      -6.933   3.068  65.339  1.00  0.00    -0.053 A  
ENDBRANCH  32  34
ENDBRANCH  26  28
ENDBRANCH  21  26
ENDBRANCH  17  19
ENDBRANCH  12  15
ENDBRANCH   8   9
ENDBRANCH   5   8
TORSDOF 7
ENDMDL
MODEL      170
REMARK 921   NORMALIZED FREE ENERGY PREDICTED BY IDOCK:    2.93 KCAL/MOL
REMARK 922        TOTAL FREE ENERGY PREDICTED BY IDOCK:    2.97 KCAL/MOL
REMARK 923 INTER-LIGAND FREE ENERGY PREDICTED BY IDOCK:    2.74 KCAL/MOL
REMARK 924 INTRA-LIGAND FREE ENERGY PREDICTED BY IDOCK:    0.24 KCAL/MOL
REMARK 927      BINDING AFFINITY PREDICTED BY RF-SCORE:    0.00 PKD
ROOT
HETATM    1  C   UNL     1      -9.701  21.081  65.279  1.00  0.00     2.015 C  
HETATM    2  N   UNL     1      -8.850  21.276  66.454  1.00  0.00     1.198 NA 
HETATM    3  C   UNL     1      -9.160  20.284  67.502  1.00  0.00    -0.346 C  
HETATM    4  C   UNL     1      -8.605  18.867  67.232  1.00  0.00    -0.277 C  
HETATM    5  N   UNL     1      -7.152  18.823  66.944  1.00  0.00    -0.204 NA 
HETATM    6  C   UNL     1      -7.418  21.203  66.094  1.00  0.00     0.596 C  
HETATM    7  C   UNL     1      -6.868  19.775  65.855  1.00  0.00    -0.270 C  
ENDROOT
BRANCH   5   8
HETATM    8  C   UNL     1      -6.312  19.103  68.131  1.00  0.00    -0.219 C  
BRANCH   8   9
HETATM    9  C   UNL     1      -6.489  18.044  69.199  1.00  0.00    -0.249 A  
HETATM   10  C   UNL     1      -5.763  18.140  70.393  1.00  0.00    -0.167 A  
HETATM   11  C   UNL     1      -5.647  17.031  71.225  1.00  0.00     0.417 A  
HETATM   12  C   UNL     1      -6.259  15.820  70.877  1.00  0.00     0.562 A  
HETATM   13  C   UNL     1      -7.215  16.877  68.924  1.00  0.00    -0.231 A  
HETATM   14  C   UNL     1      -7.096  15.761  69.755  1.00  0.00    -0.077 A  
BRANCH  12  15
HETATM   15  C   UNL     1      -5.852  14.607  71.634  1.00  0.00     0.095 C  
HETATM   16  O   UNL     1      -5.424  14.741  72.777  1.00  0.00    -0.034 OA 
HETATM   17  N   UNL     1      -6.014  13.388  70.993  1.00  0.00    -0.365 N  
HETATM   18  H   UNL     1      -6.401  13.367  70.049  1.00  0.00     0.000 HD 
BRANCH  17  19
HETATM   19  C   UNL     1      -5.654  12.178  71.620  1.00  0.00     0.427 A  
HETATM   20  C   UNL     1      -5.553  11.046  70.820  1.00  0.00    -0.115 A  
HETATM   21  C   UNL     1      -5.446   9.758  71.377  1.00  0.00    -0.074 A  
HETATM   22  C   UNL     1      -5.465  12.072  72.991  1.00  0.00     1.140 A  
HETATM   23  C   UNL     1      -5.266   9.650  72.772  1.00  0.00    -0.019 A  
HETATM   24  C   UNL     1      -5.127   8.344  73.505  1.00  0.00    -0.048 C  
HETATM   25  C   UNL     1      -5.233  10.819  73.558  1.00  0.00     0.469 A  
BRANCH  21  26
HETATM   26  N   UNL     1      -5.644   8.634  70.555  1.00  0.00    -0.027 NA 
HETATM   27  H   UNL     1      -5.554   7.729  71.016  1.00  0.00     0.000 HD 
BRANCH  26  28
HETATM   28  C   UNL     1      -5.949   8.590  69.192  1.00  0.00    -0.042 A  
HETATM   29  N   UNL     1      -5.202   7.785  68.430  1.00  0.00    -0.026 NA 
HETATM   30  C   UNL     1      -5.525   7.715  67.126  1.00  0.00    -0.031 A  
HETATM   31  C   UNL     1      -6.573   8.400  66.554  1.00  0.00    -0.056 A  
HETATM   32  C   UNL     1      -7.295   9.211  67.401  1.00  0.00    -0.084 A  
HETATM   33  N   UNL     1      -6.976   9.302  68.704  1.00  0.00    -0.062 NA 
BRANCH  32  34
HETATM   34  C   UNL     1      -8.450  10.032  66.993  1.00  0.00    -0.125 A  
HETATM   35  C   UNL     1      -8.762  11.255  67.587  1.00  0.00    -0.131 A  
HETATM   36  N   UNL     1      -9.824  12.036  67.261  1.00  0.00    -0.191 NA 
HETATM   37  C   UNL     1     -10.636  11.578  66.281  1.00  0.00    -0.263 A  
HETATM   38  C   UNL     1     -10.437  10.381  65.623  1.00  0.00    -0.185 A  
HETATM   39  C   UNL     1      -9.336   9.608  65.985  1.00  0.00    -0.263 A  
ENDBRANCH  32  34
ENDBRANCH  26  28
ENDBRANCH  21  26
ENDBRANCH  17  19
ENDBRANCH  12  15
ENDBRANCH   8   9
ENDBRANCH   5   8
TORSDOF 7
ENDMDL
MODEL      171
REMARK 921   NORMALIZED FREE ENERGY PREDICTED BY IDOCK:    3.27 KCAL/MOL
REMARK 922        TOTAL FREE ENERGY PREDICTED BY IDOCK:    3.46 KCAL/MOL
REMARK 923 INTER-LIGAND FREE ENERGY PREDICTED BY IDOCK:    0.45 KCAL/MOL
REMARK 924 INTRA-LIGAND FREE ENERGY PREDICTED BY IDOCK:    3.00 KCAL/MOL
REMARK 927      BINDING AFFINITY PREDICTED BY RF-SCORE:    0.00 PKD
ROOT
HETATM    1  C   UNL     1      -9.775   4.014  73.451  1.00  0.00    -0.114 C  
HETATM    2  N   UNL     1      -9.834   5.261  72.687  1.00  0.00    -0.158 NA 
HETATM    3  C   UNL     1     -10.246   5.008  71.293  1.00  0.00    -0.203 C  
HETATM    4  C   UNL     1     -11.755   4.726  71.108  1.00  0.00     2.651 C  
HETATM    5  N   UNL     1     -12.645   5.757  71.693  1.00  0.00     0.793 NA 
HETATM    6  C   UNL     1     -10.752   6.231  73.320  1.00  0.00    -0.260 C  
HETATM    7  C   UNL     1     -12.260   5.954  73.102  1.00  0.00     0.834 C  
ENDROOT
BRANCH   5   8
HETATM    8  C   UNL     1     -12.626   7.037  70.950  1.00  0.00    -0.221 C  
BRANCH   8   9
HETATM    9  C   UNL     1     -11.218   7.579  70.814  1.00  0.00    -0.287 A  
HETATM   10  C   UNL     1     -10.662   8.324  71.861  1.00  0.00    -0.350 A  
HETATM   11  C   UNL     1      -9.535   9.107  71.633  1.00  0.00    -0.183 A  
HETATM   12  C   UNL     1      -8.949   9.146  70.361  1.00  0.00    -0.263 A  
HETATM   13  C   UNL     1     -10.550   7.511  69.583  1.00  0.00    -0.243 A  
HETATM   14  C   UNL     1      -9.421   8.299  69.351  1.00  0.00    -0.159 A  
BRANCH  12  15
HETATM   15  C   UNL     1      -7.950  10.217  70.102  1.00  0.00     0.119 C  
HETATM   16  O   UNL     1      -6.890  10.198  70.722  1.00  0.00    -0.317 OA 
HETATM   17  N   UNL     1      -8.282  11.162  69.143  1.00  0.00    -0.359 N  
HETATM   18  H   UNL     1      -9.177  11.088  68.658  1.00  0.00     0.000 HD 
BRANCH  17  19
HETATM   19  C   UNL     1      -7.410  12.222  68.827  1.00  0.00    -0.083 A  
HETATM   20  C   UNL     1      -7.757  13.494  69.268  1.00  0.00     0.343 A  
HETATM   21  C   UNL     1      -7.094  14.643  68.799  1.00  0.00    -0.113 A  
HETATM   22  C   UNL     1      -6.273  12.050  68.049  1.00  0.00    -0.058 A  
HETATM   23  C   UNL     1      -5.946  14.467  67.999  1.00  0.00    -0.158 A  
HETATM   24  C   UNL     1      -5.131  15.599  67.435  1.00  0.00     0.076 C  
HETATM   25  C   UNL     1      -5.523  13.164  67.670  1.00  0.00    -0.073 A  
BRANCH  21  26
HETATM   26  N   UNL     1      -7.661  15.908  69.035  1.00  0.00    -0.188 NA 
HETATM   27  H   UNL     1      -7.004  16.689  69.054  1.00  0.00     0.000 HD 
BRANCH  26  28
HETATM   28  C   UNL     1      -9.001  16.242  69.246  1.00  0.00    -0.170 A  
HETATM   29  N   UNL     1      -9.385  17.468  68.880  1.00  0.00    -0.218 NA 
HETATM   30  C   UNL     1     -10.685  17.770  69.048  1.00  0.00     0.161 A  
HETATM   31  C   UNL     1     -11.621  16.894  69.549  1.00  0.00     0.756 A  
HETATM   32  C   UNL     1     -11.150  15.651  69.907  1.00  0.00    -0.319 A  
HETATM   33  N   UNL     1      -9.851  15.338  69.757  1.00  0.00    -0.221 NA 
BRANCH  32  34
HETATM   34  C   UNL     1     -11.981  14.568  70.466  1.00  0.00    -0.387 A  
HETATM   35  C   UNL     1     -13.266  14.777  70.968  1.00  0.00    -0.380 A  
HETATM   36  N   UNL     1     -14.060  13.818  71.509  1.00  0.00    -0.115 NA 
HETATM   37  C   UNL     1     -13.551  12.565  71.561  1.00  0.00     0.256 A  
HETATM   38  C   UNL     1     -12.291  12.234  71.104  1.00  0.00    -0.251 A  
HETATM   39  C   UNL     1     -11.507  13.246  70.553  1.00  0.00     0.318 A  
ENDBRANCH  32  34
ENDBRANCH  26  28
ENDBRANCH  21  26
ENDBRANCH  17  19
ENDBRANCH  12  15
ENDBRANCH   8   9
ENDBRANCH   5   8
TORSDOF 7
ENDMDL
MODEL      172
REMARK 921   NORMALIZED FREE ENERGY PREDICTED BY IDOCK:    3.28 KCAL/MOL
REMARK 922        TOTAL FREE ENERGY PREDICTED BY IDOCK:    3.47 KCAL/MOL
REMARK 923 INTER-LIGAND FREE ENERGY PREDICTED BY IDOCK:    3.25 KCAL/MOL
REMARK 924 INTRA-LIGAND FREE ENERGY PREDICTED BY IDOCK:    0.22 KCAL/MOL
REMARK 927      BINDING AFFINITY PREDICTED BY RF-SCORE:    0.00 PKD
ROOT
HETATM    1  C   UNL     1      -9.701  21.081  65.279  1.00  0.00     2.015 C  
HETATM    2  N   UNL     1      -8.859  21.276  66.461  1.00  0.00     1.017 NA 
HETATM    3  C   UNL     1      -9.173  20.278  67.503  1.00  0.00    -0.367 C  
HETATM    4  C   UNL     1      -8.609  18.865  67.232  1.00  0.00    -0.277 C  
HETATM    5  N   UNL     1      -7.153  18.829  66.955  1.00  0.00    -0.204 NA 
HETATM    6  C   UNL     1      -7.425  21.211  66.112  1.00  0.00     0.596 C  
HETATM    7  C   UNL     1      -6.866  19.787  65.871  1.00  0.00    -0.270 C  
ENDROOT
BRANCH   5   8
HETATM    8  C   UNL     1      -6.324  19.109  68.149  1.00  0.00    -0.219 C  
BRANCH   8   9
HETATM    9  C   UNL     1      -6.504  18.045  69.212  1.00  0.00    -0.246 A  
HETATM   10  C   UNL     1      -5.787  18.140  70.411  1.00  0.00    -0.085 A  
HETATM   11  C   UNL     1      -5.672  17.029  71.240  1.00  0.00     0.660 A  
HETATM   12  C   UNL     1      -6.276  15.816  70.883  1.00  0.00     0.562 A  
HETATM   13  C   UNL     1      -7.222  16.875  68.927  1.00  0.00    -0.231 A  
HETATM   14  C   UNL     1      -7.103  15.757  69.754  1.00  0.00    -0.077 A  
BRANCH  12  15
HETATM   15  C   UNL     1      -5.869  14.602  71.639  1.00  0.00     0.095 C  
HETATM   16  O   UNL     1      -5.450  14.734  72.785  1.00  0.00    -0.034 OA 
HETATM   17  N   UNL     1      -6.020  13.385  70.992  1.00  0.00    -0.365 N  
HETATM   18  H   UNL     1      -6.399  13.365  70.045  1.00  0.00     0.000 HD 
BRANCH  17  19
HETATM   19  C   UNL     1      -5.658  12.174  71.616  1.00  0.00     0.427 A  
HETATM   20  C   UNL     1      -5.545  11.046  70.814  1.00  0.00    -0.115 A  
HETATM   21  C   UNL     1      -5.436   9.756  71.366  1.00  0.00    -0.074 A  
HETATM   22  C   UNL     1      -5.479  12.064  72.989  1.00  0.00     1.140 A  
HETATM   23  C   UNL     1      -5.266   9.644  72.762  1.00  0.00    -0.019 A  
HETATM   24  C   UNL     1      -5.126   8.335  73.491  1.00  0.00    -0.043 C  
HETATM   25  C   UNL     1      -5.245  10.809  73.553  1.00  0.00     0.469 A  
BRANCH  21  26
HETATM   26  N   UNL     1      -5.623   8.635  70.538  1.00  0.00    -0.027 NA 
HETATM   27  H   UNL     1      -4.782   8.276  70.086  1.00  0.00     0.000 HD 
BRANCH  26  28
HETATM   28  C   UNL     1      -6.803   7.945  70.251  1.00  0.00    -0.038 A  
HETATM   29  N   UNL     1      -7.906   8.335  70.898  1.00  0.00    -0.085 NA 
HETATM   30  C   UNL     1      -9.048   7.695  70.588  1.00  0.00    -0.158 A  
HETATM   31  C   UNL     1      -9.138   6.694  69.647  1.00  0.00    -0.142 A  
HETATM   32  C   UNL     1      -7.961   6.344  69.025  1.00  0.00    -0.111 A  
HETATM   33  N   UNL     1      -6.809   6.966  69.334  1.00  0.00    -0.053 NA 
BRANCH  32  34
HETATM   34  C   UNL     1      -7.836   5.297  67.994  1.00  0.00    -0.091 A  
HETATM   35  C   UNL     1      -8.921   4.552  67.531  1.00  0.00    -0.115 A  
HETATM   36  N   UNL     1      -8.853   3.566  66.599  1.00  0.00    -0.125 NA 
HETATM   37  C   UNL     1      -7.629   3.296  66.089  1.00  0.00    -0.077 A  
HETATM   38  C   UNL     1      -6.480   3.959  66.471  1.00  0.00    -0.037 A  
HETATM   39  C   UNL     1      -6.591   4.965  67.429  1.00  0.00    -0.050 A  
ENDBRANCH  32  34
ENDBRANCH  26  28
ENDBRANCH  21  26
ENDBRANCH  17  19
ENDBRANCH  12  15
ENDBRANCH   8   9
ENDBRANCH   5   8
TORSDOF 7
ENDMDL
MODEL      173
REMARK 921   NORMALIZED FREE ENERGY PREDICTED BY IDOCK:    4.10 KCAL/MOL
REMARK 922        TOTAL FREE ENERGY PREDICTED BY IDOCK:    4.63 KCAL/MOL
REMARK 923 INTER-LIGAND FREE ENERGY PREDICTED BY IDOCK:    4.97 KCAL/MOL
REMARK 924 INTRA-LIGAND FREE ENERGY PREDICTED BY IDOCK:   -0.33 KCAL/MOL
REMARK 927      BINDING AFFINITY PREDICTED BY RF-SCORE:    0.00 PKD
ROOT
HETATM    1  C   UNL     1      -8.622  18.639  64.401  1.00  0.00     7.118 C  
HETATM    2  N   UNL     1      -9.142  18.177  65.689  1.00  0.00    -0.103 NA 
HETATM    3  C   UNL     1      -9.980  16.974  65.521  1.00  0.00     0.068 C  
HETATM    4  C   UNL     1      -9.191  15.667  65.276  1.00  0.00     0.669 C  
HETATM    5  N   UNL     1      -8.145  15.386  66.288  1.00  0.00     0.165 NA 
HETATM    6  C   UNL     1      -8.043  17.901  66.639  1.00  0.00    -0.253 C  
HETATM    7  C   UNL     1      -7.280  16.574  66.400  1.00  0.00    -0.056 C  
ENDROOT
BRANCH   5   8
HETATM    8  C   UNL     1      -8.696  14.999  67.606  1.00  0.00    -0.176 C  
BRANCH   8   9
HETATM    9  C   UNL     1      -9.423  13.672  67.537  1.00  0.00    -0.222 A  
HETATM   10  C   UNL     1      -9.506  12.871  68.682  1.00  0.00    -0.002 A  
HETATM   11  C   UNL     1      -9.857  11.529  68.566  1.00  0.00    -0.198 A  
HETATM   12  C   UNL     1     -10.133  10.978  67.307  1.00  0.00    -0.222 A  
HETATM   13  C   UNL     1      -9.835  13.155  66.300  1.00  0.00    -0.284 A  
HETATM   14  C   UNL     1     -10.181  11.809  66.181  1.00  0.00    -0.255 A  
BRANCH  12  15
HETATM   15  C   UNL     1     -10.199   9.496  67.211  1.00  0.00    -0.234 C  
HETATM   16  O   UNL     1     -11.242   8.930  67.527  1.00  0.00     0.153 OA 
HETATM   17  N   UNL     1      -9.067   8.851  66.737  1.00  0.00    -0.138 N  
HETATM   18  H   UNL     1      -8.250   9.402  66.474  1.00  0.00     0.000 HD 
BRANCH  17  19
HETATM   19  C   UNL     1      -9.022   7.448  66.613  1.00  0.00    -0.146 A  
HETATM   20  C   UNL     1      -8.249   6.746  67.530  1.00  0.00    -0.122 A  
HETATM   21  C   UNL     1      -7.939   5.385  67.346  1.00  0.00    -0.101 A  
HETATM   22  C   UNL     1      -9.660   6.766  65.586  1.00  0.00     0.485 A  
HETATM   23  C   UNL     1      -8.579   4.696  66.294  1.00  0.00    -0.113 A  
HETATM   24  C   UNL     1      -8.356   3.241  65.982  1.00  0.00    -0.100 C  
HETATM   25  C   UNL     1      -9.469   5.390  65.451  1.00  0.00     0.047 A  
BRANCH  21  26
HETATM   26  N   UNL     1      -6.926   4.798  68.124  1.00  0.00    -0.056 NA 
HETATM   27  H   UNL     1      -6.236   4.251  67.609  1.00  0.00     0.000 HD 
BRANCH  26  28
HETATM   28  C   UNL     1      -6.736   4.862  69.506  1.00  0.00    -0.051 A  
HETATM   29  N   UNL     1      -5.745   5.644  69.946  1.00  0.00    -0.015 NA 
HETATM   30  C   UNL     1      -5.592   5.735  71.280  1.00  0.00    -0.017 A  
HETATM   31  C   UNL     1      -6.397   5.091  72.192  1.00  0.00    -0.035 A  
HETATM   32  C   UNL     1      -7.393   4.301  71.665  1.00  0.00    -0.056 A  
HETATM   33  N   UNL     1      -7.551   4.190  70.334  1.00  0.00    -0.045 NA 
BRANCH  32  34
HETATM   34  C   UNL     1      -8.360   3.525  72.463  1.00  0.00    -0.085 A  
HETATM   35  C   UNL     1      -8.057   2.991  73.716  1.00  0.00    -0.072 A  
HETATM   36  N   UNL     1      -8.906   2.254  74.479  1.00  0.00    -0.069 NA 
HETATM   37  C   UNL     1     -10.138   2.027  73.970  1.00  0.00    -0.101 A  
HETATM   38  C   UNL     1     -10.554   2.495  72.740  1.00  0.00    -0.197 A  
HETATM   39  C   UNL     1      -9.656   3.249  71.987  1.00  0.00    -0.215 A  
ENDBRANCH  32  34
ENDBRANCH  26  28
ENDBRANCH  21  26
ENDBRANCH  17  19
ENDBRANCH  12  15
ENDBRANCH   8   9
ENDBRANCH   5   8
TORSDOF 7
ENDMDL
MODEL      174
REMARK 921   NORMALIZED FREE ENERGY PREDICTED BY IDOCK:    4.11 KCAL/MOL
REMARK 922        TOTAL FREE ENERGY PREDICTED BY IDOCK:    4.63 KCAL/MOL
REMARK 923 INTER-LIGAND FREE ENERGY PREDICTED BY IDOCK:    4.01 KCAL/MOL
REMARK 924 INTRA-LIGAND FREE ENERGY PREDICTED BY IDOCK:    0.63 KCAL/MOL
REMARK 927      BINDING AFFINITY PREDICTED BY RF-SCORE:    0.00 PKD
ROOT
HETATM    1  C   UNL     1     -12.127   7.029  70.542  1.00  0.00    -0.229 C  
HETATM    2  N   UNL     1     -10.830   7.669  70.772  1.00  0.00    -0.234 NA 
HETATM    3  C   UNL     1      -9.948   6.801  71.577  1.00  0.00    -0.177 C  
HETATM    4  C   UNL     1      -9.322   5.620  70.800  1.00  0.00    -0.163 C  
HETATM    5  N   UNL     1      -8.610   6.013  69.561  1.00  0.00    -0.118 NA 
HETATM    6  C   UNL     1     -10.173   8.016  69.494  1.00  0.00    -0.209 C  
HETATM    7  C   UNL     1      -9.524   6.827  68.741  1.00  0.00    -0.130 C  
ENDROOT
BRANCH   5   8
HETATM    8  C   UNL     1      -7.340   6.730  69.819  1.00  0.00    -0.089 C  
BRANCH   8   9
HETATM    9  C   UNL     1      -7.187   7.932  68.910  1.00  0.00    -0.076 A  
HETATM   10  C   UNL     1      -7.601   9.193  69.360  1.00  0.00    -0.079 A  
HETATM   11  C   UNL     1      -7.788  10.227  68.448  1.00  0.00    -0.102 A  
HETATM   12  C   UNL     1      -7.559  10.014  67.082  1.00  0.00    -0.092 A  
HETATM   13  C   UNL     1      -6.824   7.762  67.567  1.00  0.00    -0.069 A  
HETATM   14  C   UNL     1      -7.017   8.797  66.650  1.00  0.00    -0.080 A  
BRANCH  12  15
HETATM   15  C   UNL     1      -8.062  11.045  66.136  1.00  0.00    -0.141 C  
HETATM   16  O   UNL     1      -7.249  11.750  65.545  1.00  0.00     0.951 OA 
HETATM   17  N   UNL     1      -9.436  11.119  65.968  1.00  0.00    -0.200 N  
HETATM   18  H   UNL     1     -10.039  10.476  66.483  1.00  0.00     0.000 HD 
BRANCH  17  19
HETATM   19  C   UNL     1     -10.018  12.065  65.101  1.00  0.00    -0.239 A  
HETATM   20  C   UNL     1     -10.272  13.333  65.610  1.00  0.00    -0.295 A  
HETATM   21  C   UNL     1     -11.067  14.261  64.913  1.00  0.00    -0.390 A  
HETATM   22  C   UNL     1     -10.397  11.757  63.802  1.00  0.00    -0.451 A  
HETATM   23  C   UNL     1     -11.462  13.942  63.597  1.00  0.00     0.252 A  
HETATM   24  C   UNL     1     -12.303  14.838  62.729  1.00  0.00     2.842 C  
HETATM   25  C   UNL     1     -11.081  12.705  63.041  1.00  0.00     0.368 A  
BRANCH  21  26
HETATM   26  N   UNL     1     -11.540  15.403  65.585  1.00  0.00    -0.052 NA 
HETATM   27  H   UNL     1     -11.906  16.146  64.988  1.00  0.00     0.000 HD 
BRANCH  26  28
HETATM   28  C   UNL     1     -11.577  15.659  66.957  1.00  0.00     0.156 A  
HETATM   29  N   UNL     1     -11.230  16.887  67.355  1.00  0.00     0.052 NA 
HETATM   30  C   UNL     1     -11.306  17.140  68.674  1.00  0.00     0.292 A  
HETATM   31  C   UNL     1     -11.731  16.225  69.610  1.00  0.00    -0.081 A  
HETATM   32  C   UNL     1     -12.068  14.981  69.127  1.00  0.00    -0.225 A  
HETATM   33  N   UNL     1     -11.985  14.709  67.812  1.00  0.00    -0.323 NA 
BRANCH  32  34
HETATM   34  C   UNL     1     -12.542  13.858  69.957  1.00  0.00    -0.226 A  
HETATM   35  C   UNL     1     -13.171  12.732  69.426  1.00  0.00     2.240 A  
HETATM   36  N   UNL     1     -13.642  11.684  70.150  1.00  0.00     1.768 NA 
HETATM   37  C   UNL     1     -13.482  11.752  71.492  1.00  0.00     0.158 A  
HETATM   38  C   UNL     1     -12.882  12.816  72.136  1.00  0.00    -0.219 A  
HETATM   39  C   UNL     1     -12.410  13.872  71.358  1.00  0.00    -0.383 A  
ENDBRANCH  32  34
ENDBRANCH  26  28
ENDBRANCH  21  26
ENDBRANCH  17  19
ENDBRANCH  12  15
ENDBRANCH   8   9
ENDBRANCH   5   8
TORSDOF 7
ENDMDL
MODEL      175
REMARK 921   NORMALIZED FREE ENERGY PREDICTED BY IDOCK:    4.93 KCAL/MOL
REMARK 922        TOTAL FREE ENERGY PREDICTED BY IDOCK:    5.79 KCAL/MOL
REMARK 923 INTER-LIGAND FREE ENERGY PREDICTED BY IDOCK:    6.75 KCAL/MOL
REMARK 924 INTRA-LIGAND FREE ENERGY PREDICTED BY IDOCK:   -0.96 KCAL/MOL
REMARK 927      BINDING AFFINITY PREDICTED BY RF-SCORE:    0.00 PKD
ROOT
HETATM    1  C   UNL     1      -6.608   2.995  68.998  1.00  0.00    -0.033 C  
HETATM    2  N   UNL     1      -7.361   3.518  67.857  1.00  0.00    -0.058 NA 
HETATM    3  C   UNL     1      -8.676   4.034  68.283  1.00  0.00    -0.100 C  
HETATM    4  C   UNL     1      -8.630   5.409  68.989  1.00  0.00    -0.102 C  
HETATM    5  N   UNL     1      -7.924   6.465  68.226  1.00  0.00    -0.105 NA 
HETATM    6  C   UNL     1      -6.603   4.575  67.156  1.00  0.00    -0.046 C  
HETATM    7  C   UNL     1      -6.590   5.956  67.859  1.00  0.00    -0.052 C  
ENDROOT
BRANCH   5   8
HETATM    8  C   UNL     1      -8.669   6.920  67.030  1.00  0.00    -0.119 C  
BRANCH   8   9
HETATM    9  C   UNL     1      -9.292   8.284  67.250  1.00  0.00    -0.181 A  
HETATM   10  C   UNL     1      -8.574   9.265  67.944  1.00  0.00    -0.120 A  
HETATM   11  C   UNL     1      -9.236  10.381  68.449  1.00  0.00    -0.147 A  
HETATM   12  C   UNL     1     -10.616  10.529  68.259  1.00  0.00    -0.240 A  
HETATM   13  C   UNL     1     -10.641   8.503  66.940  1.00  0.00    -0.279 A  
HETATM   14  C   UNL     1     -11.308   9.618  67.450  1.00  0.00     0.542 A  
BRANCH  12  15
HETATM   15  C   UNL     1     -11.310  11.565  69.069  1.00  0.00    -0.276 C  
HETATM   16  O   UNL     1     -12.537  11.578  69.084  1.00  0.00    -0.185 OA 
HETATM   17  N   UNL     1     -10.505  12.440  69.783  1.00  0.00     0.154 N  
HETATM   18  H   UNL     1      -9.491  12.342  69.731  1.00  0.00     0.000 HD 
BRANCH  17  19
HETATM   19  C   UNL     1     -11.061  13.463  70.577  1.00  0.00     1.093 A  
HETATM   20  C   UNL     1     -11.535  14.596  69.926  1.00  0.00    -0.320 A  
HETATM   21  C   UNL     1     -11.875  15.764  70.633  1.00  0.00    -0.385 A  
HETATM   22  C   UNL     1     -11.088  13.403  71.963  1.00  0.00     4.801 A  
HETATM   23  C   UNL     1     -11.891  15.706  72.042  1.00  0.00    -0.548 A  
HETATM   24  C   UNL     1     -12.243  16.869  72.930  1.00  0.00     0.248 C  
HETATM   25  C   UNL     1     -11.538  14.506  72.690  1.00  0.00     0.420 A  
BRANCH  21  26
HETATM   26  N   UNL     1     -12.062  16.966  69.927  1.00  0.00     0.713 NA 
HETATM   27  H   UNL     1     -12.665  17.654  70.380  1.00  0.00     0.000 HD 
BRANCH  26  28
HETATM   28  C   UNL     1     -11.535  17.346  68.691  1.00  0.00     0.837 A  
HETATM   29  N   UNL     1     -10.996  18.566  68.610  1.00  0.00     0.522 NA 
HETATM   30  C   UNL     1     -10.454  18.912  67.429  1.00  0.00    -0.449 A  
HETATM   31  C   UNL     1     -10.410  18.084  66.330  1.00  0.00    -0.382 A  
HETATM   32  C   UNL     1     -10.987  16.844  66.487  1.00  0.00     0.171 A  
HETATM   33  N   UNL     1     -11.545  16.489  67.658  1.00  0.00     0.202 NA 
BRANCH  32  34
HETATM   34  C   UNL     1     -11.052  15.810  65.438  1.00  0.00    -0.232 A  
HETATM   35  C   UNL     1     -12.226  15.490  64.756  1.00  0.00     0.134 A  
HETATM   36  N   UNL     1     -12.340  14.534  63.798  1.00  0.00    -0.719 NA 
HETATM   37  C   UNL     1     -11.217  13.844  63.492  1.00  0.00     0.808 A  
HETATM   38  C   UNL     1      -9.998  14.063  64.101  1.00  0.00     1.373 A  
HETATM   39  C   UNL     1      -9.920  15.054  65.078  1.00  0.00    -0.188 A  
ENDBRANCH  32  34
ENDBRANCH  26  28
ENDBRANCH  21  26
ENDBRANCH  17  19
ENDBRANCH  12  15
ENDBRANCH   8   9
ENDBRANCH   5   8
TORSDOF 7
ENDMDL
MODEL      176
REMARK 921   NORMALIZED FREE ENERGY PREDICTED BY IDOCK:    6.01 KCAL/MOL
REMARK 922        TOTAL FREE ENERGY PREDICTED BY IDOCK:    7.32 KCAL/MOL
REMARK 923 INTER-LIGAND FREE ENERGY PREDICTED BY IDOCK:   -4.91 KCAL/MOL
REMARK 924 INTRA-LIGAND FREE ENERGY PREDICTED BY IDOCK:   12.23 KCAL/MOL
REMARK 927      BINDING AFFINITY PREDICTED BY RF-SCORE:    0.00 PKD
ROOT
HETATM    1  C   UNL     1     -10.631   4.949  65.598  1.00  0.00    -0.121 C  
HETATM    2  N   UNL     1      -9.311   4.862  66.225  1.00  0.00    -0.140 NA 
HETATM    3  C   UNL     1      -9.381   4.130  67.505  1.00  0.00    -0.171 C  
HETATM    4  C   UNL     1      -9.507   2.595  67.363  1.00  0.00    -0.047 C  
HETATM    5  N   UNL     1      -8.468   1.973  66.509  1.00  0.00    -0.095 NA 
HETATM    6  C   UNL     1      -8.334   4.217  65.324  1.00  0.00    -0.110 C  
HETATM    7  C   UNL     1      -8.453   2.676  65.213  1.00  0.00    -0.099 C  
ENDROOT
BRANCH   5   8
HETATM    8  C   UNL     1      -7.125   1.969  67.131  1.00  0.00    -0.047 C  
BRANCH   8   9
HETATM    9  C   UNL     1      -6.716   3.357  67.579  1.00  0.00    -0.042 A  
HETATM   10  C   UNL     1      -7.691   4.246  68.047  1.00  0.00    -0.075 A  
HETATM   11  C   UNL     1      -7.406   5.605  68.137  1.00  0.00    -0.073 A  
HETATM   12  C   UNL     1      -6.144   6.087  67.765  1.00  0.00    -0.021 A  
HETATM   13  C   UNL     1      -5.414   3.821  67.343  1.00  0.00    -0.020 A  
HETATM   14  C   UNL     1      -5.127   5.185  67.426  1.00  0.00    -0.004 A  
BRANCH  12  15
HETATM   15  C   UNL     1      -5.998   7.557  67.592  1.00  0.00    -0.039 C  
HETATM   16  O   UNL     1      -5.476   7.981  66.565  1.00  0.00    -0.028 OA 
HETATM   17  N   UNL     1      -6.496   8.356  68.609  1.00  0.00    -0.053 N  
HETATM   18  H   UNL     1      -6.938   7.920  69.418  1.00  0.00     0.000 HD 
BRANCH  17  19
HETATM   19  C   UNL     1      -6.404   9.761  68.547  1.00  0.00    -0.047 A  
HETATM   20  C   UNL     1      -7.567  10.492  68.752  1.00  0.00    -0.101 A  
HETATM   21  C   UNL     1      -7.634  11.869  68.468  1.00  0.00    -0.127 A  
HETATM   22  C   UNL     1      -5.224  10.421  68.229  1.00  0.00    -0.034 A  
HETATM   23  C   UNL     1      -6.436  12.536  68.134  1.00  0.00    -0.076 A  
HETATM   24  C   UNL     1      -6.350  14.004  67.815  1.00  0.00    -0.170 C  
HETATM   25  C   UNL     1      -5.234  11.806  68.062  1.00  0.00    -0.047 A  
BRANCH  21  26
HETATM   26  N   UNL     1      -8.889  12.499  68.406  1.00  0.00    -0.305 NA 
HETATM   27  H   UNL     1      -9.654  12.004  68.864  1.00  0.00     0.000 HD 
BRANCH  26  28
HETATM   28  C   UNL     1      -9.231  13.711  67.801  1.00  0.00    -0.214 A  
HETATM   29  N   UNL     1     -10.203  13.679  66.885  1.00  0.00    -0.257 NA 
HETATM   30  C   UNL     1     -10.557  14.855  66.336  1.00  0.00    -0.307 A  
HETATM   31  C   UNL     1      -9.992  16.064  66.675  1.00  0.00    -0.277 A  
HETATM   32  C   UNL     1      -8.994  16.018  67.622  1.00  0.00    -0.190 A  
HETATM   33  N   UNL     1      -8.621  14.848  68.171  1.00  0.00    -0.154 NA 
BRANCH  32  34
HETATM   34  C   UNL     1      -8.257  17.193  68.123  1.00  0.00    -0.224 A  
HETATM   35  C   UNL     1      -6.864  17.267  68.141  1.00  0.00    -0.182 A  
HETATM   36  N   UNL     1      -6.142  18.318  68.609  1.00  0.00    -0.199 NA 
HETATM   37  C   UNL     1      -6.843  19.368  69.096  1.00  0.00    -0.339 A  
HETATM   38  C   UNL     1      -8.222  19.410  69.139  1.00  0.00    -0.174 A  
HETATM   39  C   UNL     1      -8.928  18.314  68.647  1.00  0.00    -0.303 A  
ENDBRANCH  32  34
ENDBRANCH  26  28
ENDBRANCH  21  26
ENDBRANCH  17  19
ENDBRANCH  12  15
ENDBRANCH   8   9
ENDBRANCH   5   8
TORSDOF 7
ENDMDL
MODEL      177
REMARK 921   NORMALIZED FREE ENERGY PREDICTED BY IDOCK:    9.08 KCAL/MOL
REMARK 922        TOTAL FREE ENERGY PREDICTED BY IDOCK:   11.64 KCAL/MOL
REMARK 923 INTER-LIGAND FREE ENERGY PREDICTED BY IDOCK:    1.32 KCAL/MOL
REMARK 924 INTRA-LIGAND FREE ENERGY PREDICTED BY IDOCK:   10.32 KCAL/MOL
REMARK 927      BINDING AFFINITY PREDICTED BY RF-SCORE:    0.00 PKD
ROOT
HETATM    1  C   UNL     1     -10.635   4.953  65.601  1.00  0.00    -0.121 C  
HETATM    2  N   UNL     1      -9.327   4.923  66.257  1.00  0.00    -0.140 NA 
HETATM    3  C   UNL     1      -9.377   4.131  67.501  1.00  0.00    -0.171 C  
HETATM    4  C   UNL     1      -9.398   2.599  67.289  1.00  0.00    -0.100 C  
HETATM    5  N   UNL     1      -8.302   2.085  66.435  1.00  0.00    -0.089 NA 
HETATM    6  C   UNL     1      -8.289   4.384  65.353  1.00  0.00    -0.111 C  
HETATM    7  C   UNL     1      -8.304   2.845  65.172  1.00  0.00    -0.093 C  
ENDROOT
BRANCH   5   8
HETATM    8  C   UNL     1      -6.976   2.140  67.090  1.00  0.00    -0.040 C  
BRANCH   8   9
HETATM    9  C   UNL     1      -6.713   3.502  67.699  1.00  0.00    -0.042 A  
HETATM   10  C   UNL     1      -7.774   4.224  68.258  1.00  0.00    -0.075 A  
HETATM   11  C   UNL     1      -7.632   5.586  68.506  1.00  0.00    -0.084 A  
HETATM   12  C   UNL     1      -6.428   6.236  68.205  1.00  0.00    -0.049 A  
HETATM   13  C   UNL     1      -5.467   4.123  67.531  1.00  0.00    -0.017 A  
HETATM   14  C   UNL     1      -5.324   5.490  67.774  1.00  0.00    -0.004 A  
BRANCH  12  15
HETATM   15  C   UNL     1      -6.437   7.723  68.204  1.00  0.00    -0.054 C  
HETATM   16  O   UNL     1      -5.965   8.315  67.238  1.00  0.00    -0.048 OA 
HETATM   17  N   UNL     1      -7.012   8.343  69.302  1.00  0.00    -0.054 N  
HETATM   18  H   UNL     1      -7.403   7.772  70.052  1.00  0.00     0.000 HD 
BRANCH  17  19
HETATM   19  C   UNL     1      -7.066   9.748  69.404  1.00  0.00    -0.066 A  
HETATM   20  C   UNL     1      -8.298  10.325  69.690  1.00  0.00    -0.139 A  
HETATM   21  C   UNL     1      -8.509  11.710  69.567  1.00  0.00     0.933 A  
HETATM   22  C   UNL     1      -5.965  10.559  69.168  1.00  0.00    -0.040 A  
HETATM   23  C   UNL     1      -7.391  12.533  69.315  1.00  0.00     0.220 A  
HETATM   24  C   UNL     1      -7.461  14.029  69.170  1.00  0.00    -0.005 C  
HETATM   25  C   UNL     1      -6.120  11.946  69.162  1.00  0.00    -0.078 A  
BRANCH  21  26
HETATM   26  N   UNL     1      -9.824  12.209  69.575  1.00  0.00     0.227 NA 
HETATM   27  H   UNL     1     -10.533  11.579  69.951  1.00  0.00     0.000 HD 
BRANCH  26  28
HETATM   28  C   UNL     1     -10.291  13.451  69.139  1.00  0.00     0.124 A  
HETATM   29  N   UNL     1     -10.279  14.450  70.027  1.00  0.00     0.393 NA 
HETATM   30  C   UNL     1     -10.692  15.653  69.590  1.00  0.00    -0.278 A  
HETATM   31  C   UNL     1     -11.100  15.906  68.299  1.00  0.00    -0.345 A  
HETATM   32  C   UNL     1     -11.089  14.828  67.443  1.00  0.00    -0.324 A  
HETATM   33  N   UNL     1     -10.691  13.616  67.868  1.00  0.00    -0.243 NA 
BRANCH  32  34
HETATM   34  C   UNL     1     -11.489  14.880  66.024  1.00  0.00    -0.275 A  
HETATM   35  C   UNL     1     -12.751  14.488  65.576  1.00  0.00    -0.180 A  
HETATM   36  N   UNL     1     -13.159  14.499  64.280  1.00  0.00    -0.033 NA 
HETATM   37  C   UNL     1     -12.259  14.924  63.363  1.00  0.00     1.068 A  
HETATM   38  C   UNL     1     -10.979  15.330  63.682  1.00  0.00     2.100 A  
HETATM   39  C   UNL     1     -10.598  15.307  65.022  1.00  0.00    -0.444 A  
ENDBRANCH  32  34
ENDBRANCH  26  28
ENDBRANCH  21  26
ENDBRANCH  17  19
ENDBRANCH  12  15
ENDBRANCH   8   9
ENDBRANCH   5   8
TORSDOF 7
ENDMDL
MODEL      178
REMARK 921   NORMALIZED FREE ENERGY PREDICTED BY IDOCK:   10.42 KCAL/MOL
REMARK 922        TOTAL FREE ENERGY PREDICTED BY IDOCK:   13.54 KCAL/MOL
REMARK 923 INTER-LIGAND FREE ENERGY PREDICTED BY IDOCK:   14.80 KCAL/MOL
REMARK 924 INTRA-LIGAND FREE ENERGY PREDICTED BY IDOCK:   -1.26 KCAL/MOL
REMARK 927      BINDING AFFINITY PREDICTED BY RF-SCORE:    0.00 PKD
ROOT
HETATM    1  C   UNL     1     -12.889   6.652  69.726  1.00  0.00     2.527 C  
HETATM    2  N   UNL     1     -12.506   7.332  70.965  1.00  0.00    -0.317 NA 
HETATM    3  C   UNL     1     -11.625   8.482  70.686  1.00  0.00    -0.194 C  
HETATM    4  C   UNL     1     -12.350   9.729  70.128  1.00  0.00     0.170 C  
HETATM    5  N   UNL     1     -13.495  10.188  70.949  1.00  0.00    -0.244 NA 
HETATM    6  C   UNL     1     -13.697   7.775  71.720  1.00  0.00    -0.339 C  
HETATM    7  C   UNL     1     -14.396   9.042  71.167  1.00  0.00     0.094 C  
ENDROOT
BRANCH   5   8
HETATM    8  C   UNL     1     -13.087  10.799  72.234  1.00  0.00    -0.047 C  
BRANCH   8   9
HETATM    9  C   UNL     1     -12.885  12.294  72.098  1.00  0.00    -0.152 A  
HETATM   10  C   UNL     1     -13.503  12.981  71.046  1.00  0.00     0.310 A  
HETATM   11  C   UNL     1     -13.070  14.258  70.702  1.00  0.00    -0.247 A  
HETATM   12  C   UNL     1     -12.022  14.862  71.410  1.00  0.00    -0.399 A  
HETATM   13  C   UNL     1     -11.936  12.954  72.892  1.00  0.00     3.922 A  
HETATM   14  C   UNL     1     -11.496  14.233  72.545  1.00  0.00     1.236 A  
BRANCH  12  15
HETATM   15  C   UNL     1     -11.407  16.078  70.813  1.00  0.00    -0.398 C  
HETATM   16  O   UNL     1     -11.898  17.174  71.070  1.00  0.00     1.104 OA 
HETATM   17  N   UNL     1     -10.288  15.884  70.018  1.00  0.00    -0.278 N  
HETATM   18  H   UNL     1      -9.932  14.938  69.878  1.00  0.00     0.000 HD 
BRANCH  17  19
HETATM   19  C   UNL     1      -9.633  16.968  69.400  1.00  0.00     0.066 A  
HETATM   20  C   UNL     1      -9.993  17.275  68.093  1.00  0.00    -0.303 A  
HETATM   21  C   UNL     1      -9.234  18.165  67.310  1.00  0.00    -0.252 A  
HETATM   22  C   UNL     1      -8.616  17.681  70.020  1.00  0.00     2.160 A  
HETATM   23  C   UNL     1      -8.193  18.880  67.937  1.00  0.00    -0.305 A  
HETATM   24  C   UNL     1      -7.307  19.871  67.232  1.00  0.00    -0.292 C  
HETATM   25  C   UNL     1      -7.926  18.659  69.303  1.00  0.00     0.068 A  
BRANCH  21  26
HETATM   26  N   UNL     1      -9.454  18.219  65.922  1.00  0.00    -0.481 NA 
HETATM   27  H   UNL     1      -9.027  19.009  65.438  1.00  0.00     0.000 HD 
BRANCH  26  28
HETATM   28  C   UNL     1     -10.179  17.338  65.115  1.00  0.00     0.544 A  
HETATM   29  N   UNL     1     -10.999  17.879  64.210  1.00  0.00     1.101 NA 
HETATM   30  C   UNL     1     -11.663  17.027  63.408  1.00  0.00     5.789 A  
HETATM   31  C   UNL     1     -11.529  15.657  63.461  1.00  0.00     1.624 A  
HETATM   32  C   UNL     1     -10.670  15.173  64.422  1.00  0.00     0.194 A  
HETATM   33  N   UNL     1     -10.008  16.012  65.239  1.00  0.00    -0.456 NA 
BRANCH  32  34
HETATM   34  C   UNL     1     -10.386  13.744  64.650  1.00  0.00    -0.393 A  
HETATM   35  C   UNL     1     -11.049  12.719  63.974  1.00  0.00    -0.414 A  
HETATM   36  N   UNL     1     -10.837  11.391  64.163  1.00  0.00    -0.364 NA 
HETATM   37  C   UNL     1      -9.907  11.050  65.085  1.00  0.00    -0.268 A  
HETATM   38  C   UNL     1      -9.190  11.971  65.822  1.00  0.00    -0.064 A  
HETATM   39  C   UNL     1      -9.434  13.324  65.598  1.00  0.00     0.094 A  
ENDBRANCH  32  34
ENDBRANCH  26  28
ENDBRANCH  21  26
ENDBRANCH  17  19
ENDBRANCH  12  15
ENDBRANCH   8   9
ENDBRANCH   5   8
TORSDOF 7
ENDMDL
MODEL      179
REMARK 921   NORMALIZED FREE ENERGY PREDICTED BY IDOCK:   12.81 KCAL/MOL
REMARK 922        TOTAL FREE ENERGY PREDICTED BY IDOCK:   16.91 KCAL/MOL
REMARK 923 INTER-LIGAND FREE ENERGY PREDICTED BY IDOCK:   15.95 KCAL/MOL
REMARK 924 INTRA-LIGAND FREE ENERGY PREDICTED BY IDOCK:    0.95 KCAL/MOL
REMARK 927      BINDING AFFINITY PREDICTED BY RF-SCORE:    0.00 PKD
ROOT
HETATM    1  C   UNL     1     -12.993   4.536  66.412  1.00  0.00    14.119 C  
HETATM    2  N   UNL     1     -11.803   5.357  66.185  1.00  0.00     1.655 NA 
HETATM    3  C   UNL     1     -11.345   5.983  67.440  1.00  0.00     0.330 C  
HETATM    4  C   UNL     1     -10.604   5.027  68.404  1.00  0.00     0.168 C  
HETATM    5  N   UNL     1      -9.470   4.297  67.789  1.00  0.00    -0.160 NA 
HETATM    6  C   UNL     1     -10.711   4.560  65.587  1.00  0.00    -0.118 C  
HETATM    7  C   UNL     1      -9.958   3.629  66.569  1.00  0.00     0.195 C  
ENDROOT
BRANCH   5   8
HETATM    8  C   UNL     1      -8.308   5.165  67.494  1.00  0.00    -0.106 C  
BRANCH   8   9
HETATM    9  C   UNL     1      -8.345   6.441  68.310  1.00  0.00    -0.116 A  
HETATM   10  C   UNL     1      -8.511   6.366  69.699  1.00  0.00    -0.130 A  
HETATM   11  C   UNL     1      -8.886   7.499  70.414  1.00  0.00    -0.145 A  
HETATM   12  C   UNL     1      -9.092   8.717  69.751  1.00  0.00    -0.150 A  
HETATM   13  C   UNL     1      -8.413   7.687  67.672  1.00  0.00    -0.117 A  
HETATM   14  C   UNL     1      -8.794   8.824  68.386  1.00  0.00    -0.138 A  
BRANCH  12  15
HETATM   15  C   UNL     1      -9.777   9.799  70.507  1.00  0.00    -0.131 C  
HETATM   16  O   UNL     1      -9.851   9.709  71.728  1.00  0.00     0.071 OA 
HETATM   17  N   UNL     1     -10.268  10.862  69.765  1.00  0.00    -0.438 N  
HETATM   18  H   UNL     1     -10.141  10.867  68.752  1.00  0.00     0.000 HD 
BRANCH  17  19
HETATM   19  C   UNL     1     -10.941  11.936  70.382  1.00  0.00     1.227 A  
HETATM   20  C   UNL     1     -10.919  13.165  69.735  1.00  0.00     0.232 A  
HETATM   21  C   UNL     1     -11.338  14.345  70.378  1.00  0.00    -0.094 A  
HETATM   22  C   UNL     1     -11.555  11.822  71.622  1.00  0.00     2.371 A  
HETATM   23  C   UNL     1     -11.952  14.229  71.643  1.00  0.00    -0.168 A  
HETATM   24  C   UNL     1     -12.459  15.397  72.443  1.00  0.00    -0.463 C  
HETATM   25  C   UNL     1     -12.092  12.956  72.231  1.00  0.00     1.594 A  
BRANCH  21  26
HETATM   26  N   UNL     1     -11.025  15.590  69.804  1.00  0.00    -0.268 NA 
HETATM   27  H   UNL     1     -10.760  16.324  70.461  1.00  0.00     0.000 HD 
BRANCH  26  28
HETATM   28  C   UNL     1     -11.029  15.958  68.457  1.00  0.00    -0.324 A  
HETATM   29  N   UNL     1     -10.952  17.265  68.185  1.00  0.00    -0.288 NA 
HETATM   30  C   UNL     1     -10.915  17.612  66.886  1.00  0.00     0.120 A  
HETATM   31  C   UNL     1     -10.932  16.709  65.847  1.00  0.00     0.060 A  
HETATM   32  C   UNL     1     -11.016  15.382  66.204  1.00  0.00    -0.279 A  
HETATM   33  N   UNL     1     -11.067  15.020  67.498  1.00  0.00    -0.308 NA 
BRANCH  32  34
HETATM   34  C   UNL     1     -11.052  14.257  65.250  1.00  0.00    -0.335 A  
HETATM   35  C   UNL     1     -11.892  14.231  64.137  1.00  0.00    -0.312 A  
HETATM   36  N   UNL     1     -11.975  13.211  63.244  1.00  0.00    -0.507 NA 
HETATM   37  C   UNL     1     -11.175  12.143  63.465  1.00  0.00    -0.458 A  
HETATM   38  C   UNL     1     -10.306  12.049  64.533  1.00  0.00    -0.334 A  
HETATM   39  C   UNL     1     -10.248  13.116  65.428  1.00  0.00    -0.301 A  
ENDBRANCH  32  34
ENDBRANCH  26  28
ENDBRANCH  21  26
ENDBRANCH  17  19
ENDBRANCH  12  15
ENDBRANCH   8   9
ENDBRANCH   5   8
TORSDOF 7
ENDMDL
MODEL      180
REMARK 921   NORMALIZED FREE ENERGY PREDICTED BY IDOCK:   13.82 KCAL/MOL
REMARK 922        TOTAL FREE ENERGY PREDICTED BY IDOCK:   18.32 KCAL/MOL
REMARK 923 INTER-LIGAND FREE ENERGY PREDICTED BY IDOCK:   11.93 KCAL/MOL
REMARK 924 INTRA-LIGAND FREE ENERGY PREDICTED BY IDOCK:    6.39 KCAL/MOL
REMARK 927      BINDING AFFINITY PREDICTED BY RF-SCORE:    0.00 PKD
ROOT
HETATM    1  C   UNL     1      -6.150   4.842  63.742  1.00  0.00    -0.022 C  
HETATM    2  N   UNL     1      -7.099   4.802  64.855  1.00  0.00    -0.061 NA 
HETATM    3  C   UNL     1      -7.953   6.006  64.866  1.00  0.00    -0.126 C  
HETATM    4  C   UNL     1      -9.074   6.010  63.801  1.00  0.00     0.912 C  
HETATM    5  N   UNL     1      -9.939   4.807  63.820  1.00  0.00     0.339 NA 
HETATM    6  C   UNL     1      -7.937   3.585  64.798  1.00  0.00    -0.089 C  
HETATM    7  C   UNL     1      -9.075   3.615  63.747  1.00  0.00    -0.107 C  
ENDROOT
BRANCH   5   8
HETATM    8  C   UNL     1     -10.834   4.748  64.998  1.00  0.00     0.189 C  
BRANCH   8   9
HETATM    9  C   UNL     1     -10.342   5.647  66.114  1.00  0.00    -0.091 A  
HETATM   10  C   UNL     1     -10.975   6.876  66.338  1.00  0.00     0.583 A  
HETATM   11  C   UNL     1     -10.346   7.849  67.108  1.00  0.00    -0.398 A  
HETATM   12  C   UNL     1      -9.084   7.602  67.665  1.00  0.00    -0.133 A  
HETATM   13  C   UNL     1      -9.149   5.351  66.787  1.00  0.00    -0.116 A  
HETATM   14  C   UNL     1      -8.513   6.328  67.555  1.00  0.00    -0.108 A  
BRANCH  12  15
HETATM   15  C   UNL     1      -8.339   8.768  68.211  1.00  0.00    -0.126 C  
HETATM   16  O   UNL     1      -8.349   8.960  69.423  1.00  0.00    -0.108 OA 
HETATM   17  N   UNL     1      -7.653   9.552  67.296  1.00  0.00    -0.091 N  
HETATM   18  H   UNL     1      -7.679   9.305  66.306  1.00  0.00     0.000 HD 
BRANCH  17  19
HETATM   19  C   UNL     1      -6.920  10.684  67.706  1.00  0.00    -0.078 A  
HETATM   20  C   UNL     1      -7.320  11.319  68.876  1.00  0.00    -0.115 A  
HETATM   21  C   UNL     1      -6.822  12.585  69.234  1.00  0.00    -0.019 A  
HETATM   22  C   UNL     1      -5.875  11.210  66.960  1.00  0.00    -0.079 A  
HETATM   23  C   UNL     1      -5.768  13.125  68.468  1.00  0.00    -0.078 A  
HETATM   24  C   UNL     1      -5.128  14.460  68.738  1.00  0.00    -0.089 C  
HETATM   25  C   UNL     1      -5.276  12.405  67.362  1.00  0.00    -0.092 A  
BRANCH  21  26
HETATM   26  N   UNL     1      -7.463  13.314  70.251  1.00  0.00     0.961 NA 
HETATM   27  H   UNL     1      -8.279  12.865  70.669  1.00  0.00     0.000 HD 
BRANCH  26  28
HETATM   28  C   UNL     1      -7.135  14.570  70.768  1.00  0.00     0.835 A  
HETATM   29  N   UNL     1      -6.359  14.594  71.856  1.00  0.00     0.546 NA 
HETATM   30  C   UNL     1      -6.012  15.806  72.326  1.00  0.00     1.557 A  
HETATM   31  C   UNL     1      -6.393  16.994  71.745  1.00  0.00     3.258 A  
HETATM   32  C   UNL     1      -7.195  16.890  70.631  1.00  0.00     2.808 A  
HETATM   33  N   UNL     1      -7.561  15.686  70.157  1.00  0.00     0.297 NA 
BRANCH  32  34
HETATM   34  C   UNL     1      -7.717  18.036  69.863  1.00  0.00     1.240 A  
HETATM   35  C   UNL     1      -7.202  19.327  69.979  1.00  0.00     0.348 A  
HETATM   36  N   UNL     1      -7.660  20.416  69.309  1.00  0.00     0.347 NA 
HETATM   37  C   UNL     1      -8.701  20.217  68.467  1.00  0.00     0.243 A  
HETATM   38  C   UNL     1      -9.300  18.990  68.271  1.00  0.00    -0.393 A  
HETATM   39  C   UNL     1      -8.800  17.896  68.976  1.00  0.00    -0.008 A  
ENDBRANCH  32  34
ENDBRANCH  26  28
ENDBRANCH  21  26
ENDBRANCH  17  19
ENDBRANCH  12  15
ENDBRANCH   8   9
ENDBRANCH   5   8
TORSDOF 7
ENDMDL
MODEL      181
REMARK 921   NORMALIZED FREE ENERGY PREDICTED BY IDOCK:   14.76 KCAL/MOL
REMARK 922        TOTAL FREE ENERGY PREDICTED BY IDOCK:   19.65 KCAL/MOL
REMARK 923 INTER-LIGAND FREE ENERGY PREDICTED BY IDOCK:    6.58 KCAL/MOL
REMARK 924 INTRA-LIGAND FREE ENERGY PREDICTED BY IDOCK:   13.07 KCAL/MOL
REMARK 927      BINDING AFFINITY PREDICTED BY RF-SCORE:    0.00 PKD
ROOT
HETATM    1  C   UNL     1      -6.959  16.507  70.967  1.00  0.00     3.080 C  
HETATM    2  N   UNL     1      -7.885  16.033  69.937  1.00  0.00     0.282 NA 
HETATM    3  C   UNL     1      -9.175  15.631  70.531  1.00  0.00     1.316 C  
HETATM    4  C   UNL     1     -10.093  16.808  70.935  1.00  0.00     2.300 C  
HETATM    5  N   UNL     1     -10.347  17.785  69.849  1.00  0.00     0.415 NA 
HETATM    6  C   UNL     1      -8.103  17.064  68.900  1.00  0.00    -0.210 C  
HETATM    7  C   UNL     1      -9.048  18.222  69.307  1.00  0.00     0.233 C  
ENDROOT
BRANCH   5   8
HETATM    8  C   UNL     1     -11.222  17.255  68.779  1.00  0.00     0.282 C  
BRANCH   8   9
HETATM    9  C   UNL     1     -10.932  15.796  68.496  1.00  0.00    -0.312 A  
HETATM   10  C   UNL     1     -11.786  15.074  67.653  1.00  0.00    -0.205 A  
HETATM   11  C   UNL     1     -11.744  13.683  67.650  1.00  0.00    -0.398 A  
HETATM   12  C   UNL     1     -10.845  13.002  68.482  1.00  0.00    -0.282 A  
HETATM   13  C   UNL     1      -9.941  15.119  69.220  1.00  0.00    -0.243 A  
HETATM   14  C   UNL     1      -9.900  13.723  69.222  1.00  0.00     0.349 A  
BRANCH  12  15
HETATM   15  C   UNL     1     -11.053  11.540  68.660  1.00  0.00    -0.238 C  
HETATM   16  O   UNL     1     -11.532  11.137  69.716  1.00  0.00    -0.265 OA 
HETATM   17  N   UNL     1     -10.710  10.727  67.591  1.00  0.00    -0.238 N  
HETATM   18  H   UNL     1     -10.341  11.150  66.739  1.00  0.00     0.000 HD 
BRANCH  17  19
HETATM   19  C   UNL     1     -10.862   9.327  67.658  1.00  0.00    -0.119 A  
HETATM   20  C   UNL     1     -10.525   8.701  68.852  1.00  0.00    -0.211 A  
HETATM   21  C   UNL     1     -10.402   7.302  68.942  1.00  0.00    -0.201 A  
HETATM   22  C   UNL     1     -11.266   8.565  66.571  1.00  0.00     1.785 A  
HETATM   23  C   UNL     1     -10.802   6.528  67.832  1.00  0.00    -0.383 A  
HETATM   24  C   UNL     1     -10.738   5.026  67.786  1.00  0.00     0.178 C  
HETATM   25  C   UNL     1     -11.273   7.173  66.671  1.00  0.00     0.639 A  
BRANCH  21  26
HETATM   26  N   UNL     1      -9.779   6.736  70.068  1.00  0.00    -0.163 NA 
HETATM   27  H   UNL     1     -10.059   7.125  70.969  1.00  0.00     0.000 HD 
BRANCH  26  28
HETATM   28  C   UNL     1      -8.829   5.714  70.122  1.00  0.00    -0.138 A  
HETATM   29  N   UNL     1      -8.376   5.369  71.331  1.00  0.00    -0.120 NA 
HETATM   30  C   UNL     1      -7.492   4.357  71.380  1.00  0.00    -0.060 A  
HETATM   31  C   UNL     1      -7.054   3.662  70.275  1.00  0.00    -0.041 A  
HETATM   32  C   UNL     1      -7.561   4.076  69.064  1.00  0.00    -0.054 A  
HETATM   33  N   UNL     1      -8.436   5.096  68.997  1.00  0.00    -0.090 NA 
BRANCH  32  34
HETATM   34  C   UNL     1      -7.221   3.473  67.762  1.00  0.00    -0.058 A  
HETATM   35  C   UNL     1      -8.082   3.496  66.665  1.00  0.00    -0.092 A  
HETATM   36  N   UNL     1      -7.822   2.938  65.454  1.00  0.00    -0.081 NA 
HETATM   37  C   UNL     1      -6.630   2.314  65.316  1.00  0.00    -0.031 A  
HETATM   38  C   UNL     1      -5.697   2.219  66.329  1.00  0.00    -0.021 A  
HETATM   39  C   UNL     1      -5.999   2.805  67.557  1.00  0.00    -0.023 A  
ENDBRANCH  32  34
ENDBRANCH  26  28
ENDBRANCH  21  26
ENDBRANCH  17  19
ENDBRANCH  12  15
ENDBRANCH   8   9
ENDBRANCH   5   8
TORSDOF 7
ENDMDL
MODEL      182
REMARK 921   NORMALIZED FREE ENERGY PREDICTED BY IDOCK:   14.96 KCAL/MOL
REMARK 922        TOTAL FREE ENERGY PREDICTED BY IDOCK:   19.93 KCAL/MOL
REMARK 923 INTER-LIGAND FREE ENERGY PREDICTED BY IDOCK:   17.61 KCAL/MOL
REMARK 924 INTRA-LIGAND FREE ENERGY PREDICTED BY IDOCK:    2.32 KCAL/MOL
REMARK 927      BINDING AFFINITY PREDICTED BY RF-SCORE:    0.00 PKD
ROOT
HETATM    1  C   UNL     1     -10.904   3.150  67.121  1.00  0.00     4.548 C  
HETATM    2  N   UNL     1      -9.469   3.125  67.406  1.00  0.00    -0.187 NA 
HETATM    3  C   UNL     1      -8.723   2.474  66.311  1.00  0.00    -0.126 C  
HETATM    4  C   UNL     1      -8.542   3.346  65.048  1.00  0.00    -0.107 C  
HETATM    5  N   UNL     1      -7.950   4.680  65.305  1.00  0.00    -0.094 NA 
HETATM    6  C   UNL     1      -8.947   4.489  67.635  1.00  0.00    -0.115 C  
HETATM    7  C   UNL     1      -8.742   5.341  66.358  1.00  0.00    -0.118 C  
ENDROOT
BRANCH   5   8
HETATM    8  C   UNL     1      -6.516   4.623  65.671  1.00  0.00    -0.040 C  
BRANCH   8   9
HETATM    9  C   UNL     1      -6.111   5.813  66.518  1.00  0.00    -0.026 A  
HETATM   10  C   UNL     1      -6.642   5.955  67.806  1.00  0.00    -0.056 A  
HETATM   11  C   UNL     1      -6.561   7.182  68.457  1.00  0.00    -0.048 A  
HETATM   12  C   UNL     1      -5.945   8.274  67.832  1.00  0.00    -0.047 A  
HETATM   13  C   UNL     1      -5.374   6.863  65.954  1.00  0.00    -0.023 A  
HETATM   14  C   UNL     1      -5.296   8.096  66.603  1.00  0.00    -0.028 A  
BRANCH  12  15
HETATM   15  C   UNL     1      -6.156   9.616  68.437  1.00  0.00    -0.043 C  
HETATM   16  O   UNL     1      -5.188  10.214  68.898  1.00  0.00    -0.036 OA 
HETATM   17  N   UNL     1      -7.450  10.113  68.412  1.00  0.00    -0.084 N  
HETATM   18  H   UNL     1      -8.192   9.557  67.987  1.00  0.00     0.000 HD 
BRANCH  17  19
HETATM   19  C   UNL     1      -7.760  11.372  68.965  1.00  0.00    -0.064 A  
HETATM   20  C   UNL     1      -7.756  12.468  68.111  1.00  0.00    -0.141 A  
HETATM   21  C   UNL     1      -7.805  13.786  68.602  1.00  0.00    -0.108 A  
HETATM   22  C   UNL     1      -8.000  11.556  70.320  1.00  0.00     2.593 A  
HETATM   23  C   UNL     1      -8.037  13.972  69.980  1.00  0.00     1.373 A  
HETATM   24  C   UNL     1      -8.125  15.319  70.646  1.00  0.00     1.613 C  
HETATM   25  C   UNL     1      -8.177  12.848  70.818  1.00  0.00     7.097 A  
BRANCH  21  26
HETATM   26  N   UNL     1      -7.501  14.854  67.739  1.00  0.00    -0.146 NA 
HETATM   27  H   UNL     1      -6.871  14.632  66.968  1.00  0.00     0.000 HD 
BRANCH  26  28
HETATM   28  C   UNL     1      -7.946  16.177  67.793  1.00  0.00    -0.142 A  
HETATM   29  N   UNL     1      -8.977  16.503  67.008  1.00  0.00    -0.197 NA 
HETATM   30  C   UNL     1      -9.428  17.767  67.094  1.00  0.00    -0.265 A  
HETATM   31  C   UNL     1      -8.904  18.715  67.944  1.00  0.00    -0.308 A  
HETATM   32  C   UNL     1      -7.842  18.307  68.719  1.00  0.00    -0.260 A  
HETATM   33  N   UNL     1      -7.372  17.050  68.635  1.00  0.00    -0.217 NA 
BRANCH  32  34
HETATM   34  C   UNL     1      -7.135  19.163  69.690  1.00  0.00    -0.075 A  
HETATM   35  C   UNL     1      -7.522  20.473  69.973  1.00  0.00     1.170 A  
HETATM   36  N   UNL     1      -6.892  21.305  70.842  1.00  0.00     2.570 NA 
HETATM   37  C   UNL     1      -5.803  20.811  71.475  1.00  0.00     0.139 A  
HETATM   38  C   UNL     1      -5.318  19.534  71.274  1.00  0.00    -0.329 A  
HETATM   39  C   UNL     1      -5.993  18.710  70.376  1.00  0.00    -0.064 A  
ENDBRANCH  32  34
ENDBRANCH  26  28
ENDBRANCH  21  26
ENDBRANCH  17  19
ENDBRANCH  12  15
ENDBRANCH   8   9
ENDBRANCH   5   8
TORSDOF 7
ENDMDL
MODEL      183
REMARK 921   NORMALIZED FREE ENERGY PREDICTED BY IDOCK:   18.64 KCAL/MOL
REMARK 922        TOTAL FREE ENERGY PREDICTED BY IDOCK:   25.12 KCAL/MOL
REMARK 923 INTER-LIGAND FREE ENERGY PREDICTED BY IDOCK:   17.98 KCAL/MOL
REMARK 924 INTRA-LIGAND FREE ENERGY PREDICTED BY IDOCK:    7.14 KCAL/MOL
REMARK 927      BINDING AFFINITY PREDICTED BY RF-SCORE:    0.00 PKD
ROOT
HETATM    1  C   UNL     1      -6.952  16.542  71.019  1.00  0.00     3.080 C  
HETATM    2  N   UNL     1      -8.080  16.123  70.186  1.00  0.00     0.975 NA 
HETATM    3  C   UNL     1      -9.251  15.778  71.016  1.00  0.00     2.834 C  
HETATM    4  C   UNL     1     -10.016  16.994  71.587  1.00  0.00     5.472 C  
HETATM    5  N   UNL     1     -10.425  17.992  70.570  1.00  0.00     1.418 NA 
HETATM    6  C   UNL     1      -8.441  17.172  69.210  1.00  0.00     0.149 C  
HETATM    7  C   UNL     1      -9.233  18.371  69.790  1.00  0.00     1.020 C  
ENDROOT
BRANCH   5   8
HETATM    8  C   UNL     1     -11.513  17.515  69.687  1.00  0.00     1.973 C  
BRANCH   8   9
HETATM    9  C   UNL     1     -11.354  16.045  69.354  1.00  0.00    -0.355 A  
HETATM   10  C   UNL     1     -11.990  15.085  70.151  1.00  0.00    -0.366 A  
HETATM   11  C   UNL     1     -11.594  13.753  70.082  1.00  0.00    -0.230 A  
HETATM   12  C   UNL     1     -10.566  13.367  69.212  1.00  0.00     0.054 A  
HETATM   13  C   UNL     1     -10.426  15.635  68.387  1.00  0.00    -0.242 A  
HETATM   14  C   UNL     1     -10.024  14.300  68.319  1.00  0.00    -0.239 A  
BRANCH  12  15
HETATM   15  C   UNL     1      -9.986  12.011  69.401  1.00  0.00     0.629 C  
HETATM   16  O   UNL     1      -8.878  11.909  69.920  1.00  0.00     1.744 OA 
HETATM   17  N   UNL     1     -10.764  10.938  68.992  1.00  0.00    -0.211 N  
HETATM   18  H   UNL     1     -11.686  11.113  68.591  1.00  0.00     0.000 HD 
BRANCH  17  19
HETATM   19  C   UNL     1     -10.306   9.612  69.120  1.00  0.00    -0.207 A  
HETATM   20  C   UNL     1      -8.973   9.360  68.821  1.00  0.00    -0.132 A  
HETATM   21  C   UNL     1      -8.484   8.049  68.675  1.00  0.00    -0.128 A  
HETATM   22  C   UNL     1     -11.144   8.560  69.464  1.00  0.00     0.039 A  
HETATM   23  C   UNL     1      -9.340   6.980  69.014  1.00  0.00    -0.136 A  
HETATM   24  C   UNL     1      -8.955   5.529  68.920  1.00  0.00    -0.122 C  
HETATM   25  C   UNL     1     -10.652   7.254  69.448  1.00  0.00    -0.238 A  
BRANCH  21  26
HETATM   26  N   UNL     1      -7.222   7.845  68.088  1.00  0.00    -0.088 NA 
HETATM   27  H   UNL     1      -6.477   8.457  68.422  1.00  0.00     0.000 HD 
BRANCH  26  28
HETATM   28  C   UNL     1      -6.851   6.919  67.111  1.00  0.00    -0.072 A  
HETATM   29  N   UNL     1      -5.573   6.931  66.719  1.00  0.00    -0.017 NA 
HETATM   30  C   UNL     1      -5.211   6.010  65.807  1.00  0.00    -0.013 A  
HETATM   31  C   UNL     1      -6.066   5.066  65.285  1.00  0.00    -0.030 A  
HETATM   32  C   UNL     1      -7.367   5.118  65.734  1.00  0.00    -0.077 A  
HETATM   33  N   UNL     1      -7.747   6.041  66.635  1.00  0.00    -0.101 NA 
BRANCH  32  34
HETATM   34  C   UNL     1      -8.441   4.205  65.300  1.00  0.00    -0.114 A  
HETATM   35  C   UNL     1      -9.546   3.899  66.095  1.00  0.00    -0.183 A  
HETATM   36  N   UNL     1     -10.548   3.050  65.748  1.00  0.00     1.600 NA 
HETATM   37  C   UNL     1     -10.453   2.462  64.533  1.00  0.00     0.490 A  
HETATM   38  C   UNL     1      -9.406   2.679  63.661  1.00  0.00    -0.102 A  
HETATM   39  C   UNL     1      -8.398   3.557  64.051  1.00  0.00    -0.090 A  
ENDBRANCH  32  34
ENDBRANCH  26  28
ENDBRANCH  21  26
ENDBRANCH  17  19
ENDBRANCH  12  15
ENDBRANCH   8   9
ENDBRANCH   5   8
TORSDOF 7
ENDMDL
MODEL      184
REMARK 921   NORMALIZED FREE ENERGY PREDICTED BY IDOCK:   26.14 KCAL/MOL
REMARK 922        TOTAL FREE ENERGY PREDICTED BY IDOCK:   35.69 KCAL/MOL
REMARK 923 INTER-LIGAND FREE ENERGY PREDICTED BY IDOCK:   31.03 KCAL/MOL
REMARK 924 INTRA-LIGAND FREE ENERGY PREDICTED BY IDOCK:    4.66 KCAL/MOL
REMARK 927      BINDING AFFINITY PREDICTED BY RF-SCORE:    0.00 PKD
ROOT
HETATM    1  C   UNL     1      -9.208   9.199  64.160  1.00  0.00     0.256 C  
HETATM    2  N   UNL     1      -9.203   9.484  65.595  1.00  0.00    -0.205 NA 
HETATM    3  C   UNL     1     -10.388  10.276  65.981  1.00  0.00    -0.178 C  
HETATM    4  C   UNL     1     -11.704   9.469  66.060  1.00  0.00     4.597 C  
HETATM    5  N   UNL     1     -11.632   8.263  66.919  1.00  0.00     2.164 NA 
HETATM    6  C   UNL     1      -9.147   8.237  66.387  1.00  0.00    -0.182 C  
HETATM    7  C   UNL     1     -10.480   7.454  66.483  1.00  0.00     0.039 C  
ENDROOT
BRANCH   5   8
HETATM    8  C   UNL     1     -11.547   8.579  68.363  1.00  0.00     1.508 C  
BRANCH   8   9
HETATM    9  C   UNL     1     -11.237  10.044  68.594  1.00  0.00    -0.175 A  
HETATM   10  C   UNL     1     -10.799  10.465  69.856  1.00  0.00    -0.353 A  
HETATM   11  C   UNL     1     -10.838  11.816  70.188  1.00  0.00     0.727 A  
HETATM   12  C   UNL     1     -11.308  12.757  69.262  1.00  0.00    -0.307 A  
HETATM   13  C   UNL     1     -11.573  10.999  67.624  1.00  0.00    -0.228 A  
HETATM   14  C   UNL     1     -11.618  12.354  67.957  1.00  0.00    -0.403 A  
BRANCH  12  15
HETATM   15  C   UNL     1     -11.611  14.122  69.770  1.00  0.00    -0.290 C  
HETATM   16  O   UNL     1     -12.395  14.825  69.140  1.00  0.00    -0.203 OA 
HETATM   17  N   UNL     1     -10.995  14.497  70.954  1.00  0.00    -0.396 N  
HETATM   18  H   UNL     1     -10.375  13.838  71.426  1.00  0.00     0.000 HD 
BRANCH  17  19
HETATM   19  C   UNL     1     -11.209  15.770  71.519  1.00  0.00    -0.244 A  
HETATM   20  C   UNL     1     -10.586  16.855  70.912  1.00  0.00     1.172 A  
HETATM   21  C   UNL     1     -10.531  18.116  71.534  1.00  0.00     3.434 A  
HETATM   22  C   UNL     1     -11.952  15.962  72.675  1.00  0.00    -0.610 A  
HETATM   23  C   UNL     1     -11.278  18.306  72.716  1.00  0.00     2.745 A  
HETATM   24  C   UNL     1     -11.324  19.599  73.484  1.00  0.00     7.014 C  
HETATM   25  C   UNL     1     -12.018  17.232  73.248  1.00  0.00     0.586 A  
BRANCH  21  26
HETATM   26  N   UNL     1      -9.650  19.091  71.036  1.00  0.00     2.744 NA 
HETATM   27  H   UNL     1     -10.023  20.039  70.986  1.00  0.00     0.000 HD 
BRANCH  26  28
HETATM   28  C   UNL     1      -8.332  18.939  70.599  1.00  0.00     3.349 A  
HETATM   29  N   UNL     1      -7.475  18.361  71.446  1.00  0.00     5.186 NA 
HETATM   30  C   UNL     1      -6.217  18.179  71.005  1.00  0.00     1.190 A  
HETATM   31  C   UNL     1      -5.783  18.535  69.748  1.00  0.00    -0.250 A  
HETATM   32  C   UNL     1      -6.720  19.128  68.933  1.00  0.00    -0.301 A  
HETATM   33  N   UNL     1      -7.978  19.328  69.364  1.00  0.00    -0.084 NA 
BRANCH  32  34
HETATM   34  C   UNL     1      -6.464  19.587  67.555  1.00  0.00    -0.224 A  
HETATM   35  C   UNL     1      -6.650  20.908  67.146  1.00  0.00    -0.334 A  
HETATM   36  N   UNL     1      -6.446  21.373  65.887  1.00  0.00    -0.031 NA 
HETATM   37  C   UNL     1      -6.031  20.473  64.966  1.00  0.00    -0.241 A  
HETATM   38  C   UNL     1      -5.818  19.138  65.246  1.00  0.00    -0.258 A  
HETATM   39  C   UNL     1      -6.036  18.699  66.550  1.00  0.00    -0.182 A  
ENDBRANCH  32  34
ENDBRANCH  26  28
ENDBRANCH  21  26
ENDBRANCH  17  19
ENDBRANCH  12  15
ENDBRANCH   8   9
ENDBRANCH   5   8
TORSDOF 7
ENDMDL
MODEL      185
REMARK 921   NORMALIZED FREE ENERGY PREDICTED BY IDOCK:   31.10 KCAL/MOL
REMARK 922        TOTAL FREE ENERGY PREDICTED BY IDOCK:   42.68 KCAL/MOL
REMARK 923 INTER-LIGAND FREE ENERGY PREDICTED BY IDOCK:   37.94 KCAL/MOL
REMARK 924 INTRA-LIGAND FREE ENERGY PREDICTED BY IDOCK:    4.74 KCAL/MOL
REMARK 927      BINDING AFFINITY PREDICTED BY RF-SCORE:    0.00 PKD
ROOT
HETATM    1  C   UNL     1     -10.905   3.150  67.121  1.00  0.00     4.548 C  
HETATM    2  N   UNL     1      -9.464   3.124  67.378  1.00  0.00    -0.187 NA 
HETATM    3  C   UNL     1      -8.738   2.499  66.255  1.00  0.00    -0.126 C  
HETATM    4  C   UNL     1      -8.584   3.399  65.007  1.00  0.00    -0.107 C  
HETATM    5  N   UNL     1      -7.991   4.730  65.282  1.00  0.00    -0.094 NA 
HETATM    6  C   UNL     1      -8.942   4.484  67.626  1.00  0.00    -0.115 C  
HETATM    7  C   UNL     1      -8.764   5.365  66.364  1.00  0.00    -0.121 C  
ENDROOT
BRANCH   5   8
HETATM    8  C   UNL     1      -6.550   4.670  65.619  1.00  0.00    -0.041 C  
BRANCH   8   9
HETATM    9  C   UNL     1      -6.133   5.841  66.484  1.00  0.00    -0.026 A  
HETATM   10  C   UNL     1      -6.638   5.950  67.786  1.00  0.00    -0.056 A  
HETATM   11  C   UNL     1      -6.549   7.162  68.464  1.00  0.00    -0.048 A  
HETATM   12  C   UNL     1      -5.950   8.271  67.853  1.00  0.00    -0.047 A  
HETATM   13  C   UNL     1      -5.411   6.907  65.931  1.00  0.00    -0.026 A  
HETATM   14  C   UNL     1      -5.325   8.125  66.607  1.00  0.00    -0.028 A  
BRANCH  12  15
HETATM   15  C   UNL     1      -6.154   9.598  68.493  1.00  0.00    -0.043 C  
HETATM   16  O   UNL     1      -5.207  10.377  68.552  1.00  0.00    -0.039 OA 
HETATM   17  N   UNL     1      -7.429   9.873  68.963  1.00  0.00    -0.078 N  
HETATM   18  H   UNL     1      -8.165   9.175  68.851  1.00  0.00     0.000 HD 
BRANCH  17  19
HETATM   19  C   UNL     1      -7.729  11.097  69.593  1.00  0.00     0.245 A  
HETATM   20  C   UNL     1      -8.240  12.119  68.802  1.00  0.00     0.055 A  
HETATM   21  C   UNL     1      -8.335  13.441  69.275  1.00  0.00     0.699 A  
HETATM   22  C   UNL     1      -7.472  11.330  70.937  1.00  0.00     3.476 A  
HETATM   23  C   UNL     1      -8.063  13.679  70.638  1.00  0.00     4.083 A  
HETATM   24  C   UNL     1      -8.134  15.034  71.288  1.00  0.00     3.240 C  
HETATM   25  C   UNL     1      -7.676  12.606  71.465  1.00  0.00     9.799 A  
BRANCH  21  26
HETATM   26  N   UNL     1      -8.573  14.483  68.362  1.00  0.00    -0.167 NA 
HETATM   27  H   UNL     1      -8.248  14.317  67.409  1.00  0.00     0.000 HD 
BRANCH  26  28
HETATM   28  C   UNL     1      -9.193  15.716  68.582  1.00  0.00    -0.205 A  
HETATM   29  N   UNL     1      -9.230  16.159  69.842  1.00  0.00     0.250 NA 
HETATM   30  C   UNL     1      -9.792  17.364  70.043  1.00  0.00     1.013 A  
HETATM   31  C   UNL     1     -10.302  18.154  69.037  1.00  0.00    -0.135 A  
HETATM   32  C   UNL     1     -10.232  17.629  67.766  1.00  0.00    -0.354 A  
HETATM   33  N   UNL     1      -9.685  16.420  67.551  1.00  0.00    -0.229 NA 
BRANCH  32  34
HETATM   34  C   UNL     1     -10.722  18.306  66.551  1.00  0.00    -0.199 A  
HETATM   35  C   UNL     1     -11.253  19.596  66.561  1.00  0.00     0.182 A  
HETATM   36  N   UNL     1     -11.734  20.253  65.473  1.00  0.00     1.182 NA 
HETATM   37  C   UNL     1     -11.690  19.589  64.295  1.00  0.00     6.013 A  
HETATM   38  C   UNL     1     -11.195  18.308  64.158  1.00  0.00     5.474 A  
HETATM   39  C   UNL     1     -10.709  17.668  65.297  1.00  0.00     0.151 A  
ENDBRANCH  32  34
ENDBRANCH  26  28
ENDBRANCH  21  26
ENDBRANCH  17  19
ENDBRANCH  12  15
ENDBRANCH   8   9
ENDBRANCH   5   8
TORSDOF 7
ENDMDL
MODEL      186
REMARK 921   NORMALIZED FREE ENERGY PREDICTED BY IDOCK:   33.60 KCAL/MOL
REMARK 922        TOTAL FREE ENERGY PREDICTED BY IDOCK:   46.19 KCAL/MOL
REMARK 923 INTER-LIGAND FREE ENERGY PREDICTED BY IDOCK:   36.97 KCAL/MOL
REMARK 924 INTRA-LIGAND FREE ENERGY PREDICTED BY IDOCK:    9.22 KCAL/MOL
REMARK 927      BINDING AFFINITY PREDICTED BY RF-SCORE:    0.00 PKD
ROOT
HETATM    1  C   UNL     1      -6.942  16.576  71.082  1.00  0.00     3.482 C  
HETATM    2  N   UNL     1      -8.210  16.330  70.393  1.00  0.00     1.867 NA 
HETATM    3  C   UNL     1      -9.291  16.048  71.358  1.00  0.00     4.439 C  
HETATM    4  C   UNL     1      -9.837  17.292  72.096  1.00  0.00     8.245 C  
HETATM    5  N   UNL     1     -10.266  18.393  71.202  1.00  0.00     2.791 NA 
HETATM    6  C   UNL     1      -8.582  17.475  69.535  1.00  0.00     0.694 C  
HETATM    7  C   UNL     1      -9.155  18.704  70.285  1.00  0.00     2.288 C  
ENDROOT
BRANCH   5   8
HETATM    8  C   UNL     1     -11.507  18.090  70.455  1.00  0.00     4.026 C  
BRANCH   8   9
HETATM    9  C   UNL     1     -11.550  16.641  70.014  1.00  0.00     0.387 A  
HETATM   10  C   UNL     1     -12.595  15.817  70.453  1.00  0.00    -0.279 A  
HETATM   11  C   UNL     1     -12.477  14.435  70.351  1.00  0.00    -0.420 A  
HETATM   12  C   UNL     1     -11.320  13.863  69.804  1.00  0.00    -0.219 A  
HETATM   13  C   UNL     1     -10.459  16.074  69.342  1.00  0.00    -0.271 A  
HETATM   14  C   UNL     1     -10.336  14.687  69.243  1.00  0.00    -0.183 A  
BRANCH  12  15
HETATM   15  C   UNL     1     -11.123  12.402  70.000  1.00  0.00     0.461 C  
HETATM   16  O   UNL     1     -10.328  12.023  70.854  1.00  0.00     3.860 OA 
HETATM   17  N   UNL     1     -11.886  11.559  69.206  1.00  0.00    -0.329 N  
HETATM   18  H   UNL     1     -12.543  11.960  68.536  1.00  0.00     0.000 HD 
BRANCH  17  19
HETATM   19  C   UNL     1     -11.772  10.158  69.307  1.00  0.00     0.003 A  
HETATM   20  C   UNL     1     -10.503   9.629  69.510  1.00  0.00    -0.240 A  
HETATM   21  C   UNL     1     -10.248   8.252  69.375  1.00  0.00    -0.204 A  
HETATM   22  C   UNL     1     -12.856   9.305  69.146  1.00  0.00     3.776 A  
HETATM   23  C   UNL     1     -11.348   7.387  69.201  1.00  0.00     0.251 A  
HETATM   24  C   UNL     1     -11.232   5.894  69.053  1.00  0.00    -0.173 C  
HETATM   25  C   UNL     1     -12.648   7.925  69.133  1.00  0.00     3.824 A  
BRANCH  21  26
HETATM   26  N   UNL     1      -8.918   7.803  69.295  1.00  0.00    -0.139 NA 
HETATM   27  H   UNL     1      -8.274   8.209  69.975  1.00  0.00     0.000 HD 
BRANCH  26  28
HETATM   28  C   UNL     1      -8.358   6.877  68.412  1.00  0.00    -0.120 A  
HETATM   29  N   UNL     1      -8.282   5.610  68.830  1.00  0.00    -0.100 NA 
HETATM   30  C   UNL     1      -7.780   4.714  67.961  1.00  0.00    -0.081 A  
HETATM   31  C   UNL     1      -7.367   5.027  66.686  1.00  0.00    -0.086 A  
HETATM   32  C   UNL     1      -7.472   6.352  66.327  1.00  0.00    -0.085 A  
HETATM   33  N   UNL     1      -7.960   7.261  67.190  1.00  0.00    -0.109 NA 
BRANCH  32  34
HETATM   34  C   UNL     1      -7.083   6.900  65.014  1.00  0.00    -0.064 A  
HETATM   35  C   UNL     1      -7.495   6.339  63.804  1.00  0.00    -0.080 A  
HETATM   36  N   UNL     1      -7.148   6.794  62.573  1.00  0.00    -0.048 NA 
HETATM   37  C   UNL     1      -6.337   7.877  62.531  1.00  0.00    -0.077 A  
HETATM   38  C   UNL     1      -5.858   8.515  63.658  1.00  0.00    -0.072 A  
HETATM   39  C   UNL     1      -6.238   8.019  64.904  1.00  0.00    -0.048 A  
ENDBRANCH  32  34
ENDBRANCH  26  28
ENDBRANCH  21  26
ENDBRANCH  17  19
ENDBRANCH  12  15
ENDBRANCH   8   9
ENDBRANCH   5   8
TORSDOF 7
ENDMDL
MODEL      187
REMARK 921   NORMALIZED FREE ENERGY PREDICTED BY IDOCK:   42.59 KCAL/MOL
REMARK 922        TOTAL FREE ENERGY PREDICTED BY IDOCK:   58.86 KCAL/MOL
REMARK 923 INTER-LIGAND FREE ENERGY PREDICTED BY IDOCK:   59.06 KCAL/MOL
REMARK 924 INTRA-LIGAND FREE ENERGY PREDICTED BY IDOCK:   -0.20 KCAL/MOL
REMARK 927      BINDING AFFINITY PREDICTED BY RF-SCORE:    0.00 PKD
ROOT
HETATM    1  C   UNL     1      -8.544  18.620  64.066  1.00  0.00    10.526 C  
HETATM    2  N   UNL     1      -9.189  18.069  65.259  1.00  0.00     0.884 NA 
HETATM    3  C   UNL     1     -10.044  16.916  64.914  1.00  0.00     1.136 C  
HETATM    4  C   UNL     1      -9.273  15.607  64.623  1.00  0.00     3.315 C  
HETATM    5  N   UNL     1      -8.330  15.203  65.692  1.00  0.00     1.593 NA 
HETATM    6  C   UNL     1      -8.188  17.673  66.272  1.00  0.00    -0.229 C  
HETATM    7  C   UNL     1      -7.445  16.345  65.983  1.00  0.00     0.539 C  
ENDROOT
BRANCH   5   8
HETATM    8  C   UNL     1      -9.007  14.725  66.919  1.00  0.00    -0.253 C  
BRANCH   8   9
HETATM    9  C   UNL     1      -9.878  13.518  66.638  1.00  0.00    -0.279 A  
HETATM   10  C   UNL     1     -10.365  12.755  67.707  1.00  0.00    -0.222 A  
HETATM   11  C   UNL     1     -10.866  11.478  67.476  1.00  0.00    -0.285 A  
HETATM   12  C   UNL     1     -10.892  10.954  66.176  1.00  0.00    -0.166 A  
HETATM   13  C   UNL     1     -10.035  13.048  65.326  1.00  0.00    -0.186 A  
HETATM   14  C   UNL     1     -10.532  11.765  65.093  1.00  0.00    -0.330 A  
BRANCH  12  15
HETATM   15  C   UNL     1     -11.147   9.496  66.033  1.00  0.00     1.422 C  
HETATM   16  O   UNL     1     -12.308   9.106  65.953  1.00  0.00     8.142 OA 
HETATM   17  N   UNL     1     -10.034   8.672  65.973  1.00  0.00    -0.460 N  
HETATM   18  H   UNL     1      -9.103   9.084  66.023  1.00  0.00     0.000 HD 
BRANCH  17  19
HETATM   19  C   UNL     1     -10.165   7.274  65.844  1.00  0.00     1.034 A  
HETATM   20  C   UNL     1      -9.952   6.501  66.979  1.00  0.00    -0.216 A  
HETATM   21  C   UNL     1      -9.813   5.103  66.904  1.00  0.00    -0.181 A  
HETATM   22  C   UNL     1     -10.429   6.655  64.630  1.00  0.00     5.481 A  
HETATM   23  C   UNL     1     -10.071   4.476  65.667  1.00  0.00    -0.261 A  
HETATM   24  C   UNL     1      -9.973   2.992  65.438  1.00  0.00     0.304 C  
HETATM   25  C   UNL     1     -10.421   5.262  64.551  1.00  0.00     1.462 A  
BRANCH  21  26
HETATM   26  N   UNL     1      -9.310   4.401  68.013  1.00  0.00    -0.137 NA 
HETATM   27  H   UNL     1      -8.691   3.619  67.796  1.00  0.00     0.000 HD 
BRANCH  26  28
HETATM   28  C   UNL     1      -9.541   4.628  69.372  1.00  0.00    -0.187 A  
HETATM   29  N   UNL     1      -8.735   5.498  69.987  1.00  0.00    -0.126 NA 
HETATM   30  C   UNL     1      -8.988   5.744  71.285  1.00  0.00    -0.140 A  
HETATM   31  C   UNL     1     -10.023   5.171  71.990  1.00  0.00    -0.240 A  
HETATM   32  C   UNL     1     -10.808   4.283  71.291  1.00  0.00     0.811 A  
HETATM   33  N   UNL     1     -10.560   4.017  69.996  1.00  0.00     1.089 NA 
BRANCH  32  34
HETATM   34  C   UNL     1     -11.961   3.558  71.856  1.00  0.00     3.979 A  
HETATM   35  C   UNL     1     -12.444   3.783  73.145  1.00  0.00     0.940 A  
HETATM   36  N   UNL     1     -13.488   3.128  73.716  1.00  0.00     2.078 NA 
HETATM   37  C   UNL     1     -14.098   2.184  72.962  1.00  0.00     0.867 A  
HETATM   38  C   UNL     1     -13.709   1.866  71.677  1.00  0.00     6.029 A  
HETATM   39  C   UNL     1     -12.634   2.560  71.125  1.00  0.00    11.331 A  
ENDBRANCH  32  34
ENDBRANCH  26  28
ENDBRANCH  21  26
ENDBRANCH  17  19
ENDBRANCH  12  15
ENDBRANCH   8   9
ENDBRANCH   5   8
TORSDOF 7
ENDMDL
MODEL      188
REMARK 921   NORMALIZED FREE ENERGY PREDICTED BY IDOCK:   75.25 KCAL/MOL
REMARK 922        TOTAL FREE ENERGY PREDICTED BY IDOCK:  104.89 KCAL/MOL
REMARK 923 INTER-LIGAND FREE ENERGY PREDICTED BY IDOCK:  105.25 KCAL/MOL
REMARK 924 INTRA-LIGAND FREE ENERGY PREDICTED BY IDOCK:   -0.36 KCAL/MOL
REMARK 927      BINDING AFFINITY PREDICTED BY RF-SCORE:    0.00 PKD
ROOT
HETATM    1  C   UNL     1      -8.138  18.492  63.055  1.00  0.00    17.809 C  
HETATM    2  N   UNL     1      -8.947  17.622  63.911  1.00  0.00    10.744 NA 
HETATM    3  C   UNL     1      -9.406  16.431  63.171  1.00  0.00    16.828 C  
HETATM    4  C   UNL     1      -8.322  15.349  62.955  1.00  0.00    24.394 C  
HETATM    5  N   UNL     1      -7.640  14.912  64.196  1.00  0.00    14.542 NA 
HETATM    6  C   UNL     1      -8.197  17.214  65.117  1.00  0.00     2.833 C  
HETATM    7  C   UNL     1      -7.135  16.109  64.893  1.00  0.00     8.378 C  
ENDROOT
BRANCH   5   8
HETATM    8  C   UNL     1      -8.504  14.101  65.084  1.00  0.00     4.251 C  
BRANCH   8   9
HETATM    9  C   UNL     1      -8.727  12.711  64.524  1.00  0.00     2.256 A  
HETATM   10  C   UNL     1      -9.598  11.834  65.183  1.00  0.00    -0.173 A  
HETATM   11  C   UNL     1      -9.559  10.473  64.896  1.00  0.00    -0.334 A  
HETATM   12  C   UNL     1      -8.657   9.978  63.946  1.00  0.00    -0.196 A  
HETATM   13  C   UNL     1      -7.927  12.234  63.476  1.00  0.00     3.853 A  
HETATM   14  C   UNL     1      -7.883  10.868  63.191  1.00  0.00     0.188 A  
BRANCH  12  15
HETATM   15  C   UNL     1      -8.449   8.506  63.904  1.00  0.00    -0.023 C  
HETATM   16  O   UNL     1      -9.223   7.819  63.243  1.00  0.00     1.244 OA 
HETATM   17  N   UNL     1      -7.361   8.010  64.606  1.00  0.00    -0.079 N  
HETATM   18  H   UNL     1      -6.754   8.656  65.111  1.00  0.00     0.000 HD 
BRANCH  17  19
HETATM   19  C   UNL     1      -7.079   6.629  64.638  1.00  0.00    -0.057 A  
HETATM   20  C   UNL     1      -6.791   6.060  65.873  1.00  0.00    -0.057 A  
HETATM   21  C   UNL     1      -6.257   4.763  65.980  1.00  0.00    -0.035 A  
HETATM   22  C   UNL     1      -7.015   5.852  63.490  1.00  0.00    -0.042 A  
HETATM   23  C   UNL     1      -6.182   3.977  64.811  1.00  0.00    -0.023 A  
HETATM   24  C   UNL     1      -5.646   2.572  64.773  1.00  0.00    -0.009 C  
HETATM   25  C   UNL     1      -6.606   4.521  63.583  1.00  0.00    -0.038 A  
BRANCH  21  26
HETATM   26  N   UNL     1      -5.709   4.343  67.206  1.00  0.00    -0.021 NA 
HETATM   27  H   UNL     1      -5.048   3.568  67.151  1.00  0.00     0.000 HD 
BRANCH  26  28
HETATM   28  C   UNL     1      -5.947   4.844  68.488  1.00  0.00    -0.026 A  
HETATM   29  N   UNL     1      -5.256   5.927  68.853  1.00  0.00    -0.004 NA 
HETATM   30  C   UNL     1      -5.518   6.430  70.073  1.00  0.00    -0.014 A  
HETATM   31  C   UNL     1      -6.454   5.906  70.937  1.00  0.00    -0.040 A  
HETATM   32  C   UNL     1      -7.123   4.788  70.493  1.00  0.00    -0.048 A  
HETATM   33  N   UNL     1      -6.863   4.267  69.281  1.00  0.00    -0.045 NA 
BRANCH  32  34
HETATM   34  C   UNL     1      -8.159   4.070  71.260  1.00  0.00    -0.072 A  
HETATM   35  C   UNL     1      -8.537   4.434  72.553  1.00  0.00    -0.109 A  
HETATM   36  N   UNL     1      -9.469   3.794  73.305  1.00  0.00    -0.104 NA 
HETATM   37  C   UNL     1     -10.069   2.719  72.743  1.00  0.00    -0.149 A  
HETATM   38  C   UNL     1      -9.777   2.258  71.475  1.00  0.00    -0.224 A  
HETATM   39  C   UNL     1      -8.816   2.942  70.734  1.00  0.00    -0.147 A  
ENDBRANCH  32  34
ENDBRANCH  26  28
ENDBRANCH  21  26
ENDBRANCH  17  19
ENDBRANCH  12  15
ENDBRANCH   8   9
ENDBRANCH   5   8
TORSDOF 7
ENDMDL
