MODEL        1
REMARK 921   NORMALIZED FREE ENERGY PREDICTED BY IDOCK:   -7.26 KCAL/MOL
REMARK 922        TOTAL FREE ENERGY PREDICTED BY IDOCK:  -13.51 KCAL/MOL
REMARK 923 INTER-LIGAND FREE ENERGY PREDICTED BY IDOCK:  -11.51 KCAL/MOL
REMARK 924 INTRA-LIGAND FREE ENERGY PREDICTED BY IDOCK:   -2.00 KCAL/MOL
REMARK 927      BINDING AFFINITY PREDICTED BY RF-SCORE:    0.00 PKD
ROOT
HETATM    1  O   UNL     1     -11.543  16.481  63.874  1.00  0.00    -1.598 OA 
HETATM    2  C   UNL     1     -10.823  15.604  64.707  1.00  0.00    -0.355 C  
HETATM    3  H   UNL     1     -10.933  17.059  63.433  1.00  0.00     0.000 HD 
ENDROOT
BRANCH   2   4
HETATM    4  N   UNL     1     -11.745  14.733  65.373  1.00  0.00    -0.324 N  
HETATM    5  C   UNL     1     -11.447  14.224  66.696  1.00  0.00    -0.364 C  
HETATM    6  O   UNL     1     -12.655  13.866  63.418  1.00  0.00    -0.853 OA 
HETATM    7  C   UNL     1     -11.967  12.777  66.534  1.00  0.00    -0.358 C  
HETATM    8  N   UNL     1     -12.679  12.710  65.377  1.00  0.00    -0.582 NA 
HETATM    9  O   UNL     1     -11.848  11.847  67.318  1.00  0.00    -0.576 OA 
HETATM   10  C   UNL     1     -12.420  13.794  64.614  1.00  0.00    -0.315 C  
BRANCH   5  11
HETATM   11  N   UNL     1     -12.219  14.909  67.704  1.00  0.00    -0.477 N  
HETATM   12  H   UNL     1     -13.140  15.277  67.468  1.00  0.00     0.000 HD 
BRANCH  11  13
HETATM   13  C   UNL     1     -11.733  15.071  68.969  1.00  0.00    -0.325 C  
HETATM   14  O   UNL     1     -10.556  15.293  69.222  1.00  0.00    -0.232 OA 
BRANCH  13  15
HETATM   15  N   UNL     1     -12.723  15.039  69.916  1.00  0.00    -0.602 N  
HETATM   16  H   UNL     1     -13.478  15.723  69.887  1.00  0.00     0.000 HD 
BRANCH  15  17
HETATM   17  C   UNL     1     -12.694  14.045  70.947  1.00  0.00    -0.350 C  
BRANCH  17  18
HETATM   18  N   UNL     1     -12.140  12.799  70.485  1.00  0.00    -0.508 N  
HETATM   19  H   UNL     1     -11.410  12.793  69.772  1.00  0.00     0.000 HD 
BRANCH  18  20
HETATM   20  C   UNL     1     -12.599  11.621  71.012  1.00  0.00    -0.331 C  
HETATM   21  O   UNL     1     -13.188  11.537  72.082  1.00  0.00    -0.505 OA 
BRANCH  20  22
HETATM   22  N   UNL     1     -12.338  10.543  70.199  1.00  0.00    -0.451 N  
HETATM   23  H   UNL     1     -12.800  10.423  69.298  1.00  0.00     0.000 HD 
BRANCH  22  24
HETATM   24  C   UNL     1     -11.376   9.596  70.692  1.00  0.00    -0.312 C  
HETATM   25  N   UNL     1     -11.902   8.350  71.195  1.00  0.00    -0.287 N  
HETATM   26  O   UNL     1      -9.984   9.564  68.625  1.00  0.00    -0.158 OA 
HETATM   27  C   UNL     1     -11.067   7.295  70.887  1.00  0.00    -0.261 C  
HETATM   28  N   UNL     1     -10.163   7.717  69.968  1.00  0.00    -0.206 NA 
HETATM   29  O   UNL     1     -11.143   6.158  71.319  1.00  0.00    -0.273 OA 
HETATM   30  C   UNL     1     -10.433   9.006  69.614  1.00  0.00    -0.222 C  
BRANCH  25  31
HETATM   31  C   UNL     1     -12.975   8.266  72.135  1.00  0.00    -0.299 C  
HETATM   32  H   UNL     1     -14.906   8.320  72.062  1.00  0.00     0.000 HD 
HETATM   33  O   UNL     1     -14.192   8.376  71.437  1.00  0.00    -0.388 OA 
ENDBRANCH  25  31
ENDBRANCH  22  24
ENDBRANCH  20  22
ENDBRANCH  18  20
ENDBRANCH  17  18
ENDBRANCH  15  17
ENDBRANCH  13  15
ENDBRANCH  11  13
ENDBRANCH   5  11
ENDBRANCH   2   4
TORSDOF 10
ENDMDL
MODEL        2
REMARK 921   NORMALIZED FREE ENERGY PREDICTED BY IDOCK:   -7.04 KCAL/MOL
REMARK 922        TOTAL FREE ENERGY PREDICTED BY IDOCK:  -13.15 KCAL/MOL
REMARK 923 INTER-LIGAND FREE ENERGY PREDICTED BY IDOCK:  -10.75 KCAL/MOL
REMARK 924 INTRA-LIGAND FREE ENERGY PREDICTED BY IDOCK:   -2.40 KCAL/MOL
REMARK 927      BINDING AFFINITY PREDICTED BY RF-SCORE:    0.00 PKD
ROOT
HETATM    1  O   UNL     1     -10.309  10.489  63.884  1.00  0.00    -0.452 OA 
HETATM    2  C   UNL     1     -10.088  11.754  63.309  1.00  0.00    -0.420 C  
HETATM    3  H   UNL     1      -9.637   9.890  63.580  1.00  0.00     0.000 HD 
ENDROOT
BRANCH   2   4
HETATM    4  N   UNL     1     -11.101  12.657  63.767  1.00  0.00    -0.432 N  
HETATM    5  C   UNL     1     -10.884  13.467  64.948  1.00  0.00    -0.352 C  
HETATM    6  O   UNL     1     -12.873  11.441  62.881  1.00  0.00    -0.078 OA 
HETATM    7  C   UNL     1     -12.290  13.373  65.582  1.00  0.00    -0.470 C  
HETATM    8  N   UNL     1     -13.134  12.829  64.664  1.00  0.00    -0.810 NA 
HETATM    9  O   UNL     1     -12.644  13.773  66.681  1.00  0.00    -0.330 OA 
HETATM   10  C   UNL     1     -12.423  12.259  63.666  1.00  0.00    -0.541 C  
BRANCH   5  11
HETATM   11  N   UNL     1     -10.598  14.836  64.597  1.00  0.00    -0.590 N  
HETATM   12  H   UNL     1     -10.738  15.148  63.637  1.00  0.00     0.000 HD 
BRANCH  11  13
HETATM   13  C   UNL     1     -10.142  15.719  65.532  1.00  0.00    -0.351 C  
HETATM   14  O   UNL     1     -10.174  16.934  65.391  1.00  0.00    -0.605 OA 
BRANCH  13  15
HETATM   15  N   UNL     1      -9.722  15.096  66.677  1.00  0.00    -0.246 N  
HETATM   16  H   UNL     1      -9.268  14.184  66.625  1.00  0.00     0.000 HD 
BRANCH  15  17
HETATM   17  C   UNL     1      -9.919  15.726  67.949  1.00  0.00    -0.227 C  
BRANCH  17  18
HETATM   18  N   UNL     1     -11.313  15.819  68.298  1.00  0.00    -0.358 N  
HETATM   19  H   UNL     1     -12.010  16.029  67.584  1.00  0.00     0.000 HD 
BRANCH  18  20
HETATM   20  C   UNL     1     -11.695  15.624  69.599  1.00  0.00    -0.361 C  
HETATM   21  O   UNL     1     -11.336  16.334  70.529  1.00  0.00    -0.378 OA 
BRANCH  20  22
HETATM   22  N   UNL     1     -12.538  14.547  69.744  1.00  0.00    -0.548 N  
HETATM   23  H   UNL     1     -13.463  14.526  69.315  1.00  0.00     0.000 HD 
BRANCH  22  24
HETATM   24  C   UNL     1     -12.041  13.454  70.534  1.00  0.00    -0.323 C  
HETATM   25  N   UNL     1     -13.007  12.764  71.354  1.00  0.00    -0.329 N  
HETATM   26  O   UNL     1     -10.993  12.235  68.629  1.00  0.00    -0.218 OA 
HETATM   27  C   UNL     1     -12.743  11.410  71.404  1.00  0.00    -0.384 C  
HETATM   28  N   UNL     1     -11.833  11.115  70.443  1.00  0.00    -0.353 NA 
HETATM   29  O   UNL     1     -13.265  10.595  72.145  1.00  0.00    -0.464 OA 
HETATM   30  C   UNL     1     -11.548  12.234  69.718  1.00  0.00    -0.243 C  
BRANCH  25  31
HETATM   31  C   UNL     1     -13.921  13.428  72.229  1.00  0.00    -0.507 C  
HETATM   32  H   UNL     1     -13.998  15.131  73.141  1.00  0.00     0.000 HD 
HETATM   33  O   UNL     1     -13.390  14.689  72.559  1.00  0.00    -0.378 OA 
ENDBRANCH  25  31
ENDBRANCH  22  24
ENDBRANCH  20  22
ENDBRANCH  18  20
ENDBRANCH  17  18
ENDBRANCH  15  17
ENDBRANCH  13  15
ENDBRANCH  11  13
ENDBRANCH   5  11
ENDBRANCH   2   4
TORSDOF 10
ENDMDL
MODEL        3
REMARK 921   NORMALIZED FREE ENERGY PREDICTED BY IDOCK:   -6.97 KCAL/MOL
REMARK 922        TOTAL FREE ENERGY PREDICTED BY IDOCK:  -13.04 KCAL/MOL
REMARK 923 INTER-LIGAND FREE ENERGY PREDICTED BY IDOCK:  -11.04 KCAL/MOL
REMARK 924 INTRA-LIGAND FREE ENERGY PREDICTED BY IDOCK:   -2.00 KCAL/MOL
REMARK 927      BINDING AFFINITY PREDICTED BY RF-SCORE:    0.00 PKD
ROOT
HETATM    1  O   UNL     1     -11.619  16.376  63.830  1.00  0.00    -1.564 OA 
HETATM    2  C   UNL     1     -10.879  15.583  64.727  1.00  0.00    -0.363 C  
HETATM    3  H   UNL     1     -11.040  17.017  63.435  1.00  0.00     0.000 HD 
ENDROOT
BRANCH   2   4
HETATM    4  N   UNL     1     -11.752  14.616  65.323  1.00  0.00    -0.356 N  
HETATM    5  C   UNL     1     -11.420  14.016  66.599  1.00  0.00    -0.364 C  
HETATM    6  O   UNL     1     -12.634  13.867  63.306  1.00  0.00    -0.824 OA 
HETATM    7  C   UNL     1     -11.870  12.563  66.321  1.00  0.00    -0.390 C  
HETATM    8  N   UNL     1     -12.587  12.556  65.164  1.00  0.00    -0.650 NA 
HETATM    9  O   UNL     1     -11.700  11.579  67.025  1.00  0.00    -0.556 OA 
HETATM   10  C   UNL     1     -12.387  13.710  64.491  1.00  0.00    -0.356 C  
BRANCH   5  11
HETATM   11  N   UNL     1     -12.217  14.577  67.662  1.00  0.00    -0.614 N  
HETATM   12  H   UNL     1     -13.180  14.854  67.476  1.00  0.00     0.000 HD 
BRANCH  11  13
HETATM   13  C   UNL     1     -11.698  14.744  68.913  1.00  0.00    -0.309 C  
HETATM   14  O   UNL     1     -11.715  15.807  69.519  1.00  0.00    -0.340 OA 
BRANCH  13  15
HETATM   15  N   UNL     1     -11.232  13.571  69.445  1.00  0.00    -0.407 N  
HETATM   16  H   UNL     1     -10.270  13.279  69.272  1.00  0.00     0.000 HD 
BRANCH  15  17
HETATM   17  C   UNL     1     -12.096  12.754  70.245  1.00  0.00    -0.297 C  
BRANCH  17  18
HETATM   18  N   UNL     1     -11.750  11.359  70.169  1.00  0.00    -0.389 N  
HETATM   19  H   UNL     1     -11.194  11.009  69.388  1.00  0.00     0.000 HD 
BRANCH  18  20
HETATM   20  C   UNL     1     -12.172  10.506  71.154  1.00  0.00    -0.391 C  
HETATM   21  O   UNL     1     -13.234  10.626  71.751  1.00  0.00    -0.438 OA 
BRANCH  20  22
HETATM   22  N   UNL     1     -11.275   9.491  71.391  1.00  0.00    -0.375 N  
HETATM   23  H   UNL     1     -10.663   9.492  72.207  1.00  0.00     0.000 HD 
BRANCH  22  24
HETATM   24  C   UNL     1     -11.250   8.428  70.423  1.00  0.00    -0.213 C  
HETATM   25  N   UNL     1      -9.947   7.937  70.044  1.00  0.00    -0.189 N  
HETATM   26  O   UNL     1     -12.784   6.919  71.680  1.00  0.00    -0.365 OA 
HETATM   27  C   UNL     1      -9.970   6.573  69.836  1.00  0.00    -0.167 C  
HETATM   28  N   UNL     1     -11.136   6.083  70.327  1.00  0.00    -0.347 NA 
HETATM   29  O   UNL     1      -9.083   5.899  69.342  1.00  0.00    -0.126 OA 
HETATM   30  C   UNL     1     -11.846   7.087  70.916  1.00  0.00    -0.356 C  
BRANCH  25  31
HETATM   31  C   UNL     1      -8.867   8.783  69.649  1.00  0.00    -0.141 C  
HETATM   32  H   UNL     1      -8.665  10.405  68.616  1.00  0.00     0.000 HD 
HETATM   33  O   UNL     1      -9.384   9.842  68.879  1.00  0.00    -0.156 OA 
ENDBRANCH  25  31
ENDBRANCH  22  24
ENDBRANCH  20  22
ENDBRANCH  18  20
ENDBRANCH  17  18
ENDBRANCH  15  17
ENDBRANCH  13  15
ENDBRANCH  11  13
ENDBRANCH   5  11
ENDBRANCH   2   4
TORSDOF 10
ENDMDL
MODEL        4
REMARK 921   NORMALIZED FREE ENERGY PREDICTED BY IDOCK:   -6.74 KCAL/MOL
REMARK 922        TOTAL FREE ENERGY PREDICTED BY IDOCK:  -12.68 KCAL/MOL
REMARK 923 INTER-LIGAND FREE ENERGY PREDICTED BY IDOCK:  -10.33 KCAL/MOL
REMARK 924 INTRA-LIGAND FREE ENERGY PREDICTED BY IDOCK:   -2.35 KCAL/MOL
REMARK 927      BINDING AFFINITY PREDICTED BY RF-SCORE:    0.00 PKD
ROOT
HETATM    1  O   UNL     1     -12.063   6.606  72.679  1.00  0.00    -0.496 OA 
HETATM    2  C   UNL     1     -11.451   7.871  72.752  1.00  0.00    -0.368 C  
HETATM    3  H   UNL     1     -11.632   6.018  73.288  1.00  0.00     0.000 HD 
ENDROOT
BRANCH   2   4
HETATM    4  N   UNL     1     -12.102   8.757  71.834  1.00  0.00    -0.337 N  
HETATM    5  C   UNL     1     -11.324   9.640  70.989  1.00  0.00    -0.374 C  
HETATM    6  O   UNL     1     -14.061   8.932  73.074  1.00  0.00    -0.396 OA 
HETATM    7  C   UNL     1     -12.209  10.905  71.061  1.00  0.00    -0.358 C  
HETATM    8  N   UNL     1     -13.396  10.560  71.631  1.00  0.00    -0.359 NA 
HETATM    9  O   UNL     1     -11.959  12.019  70.627  1.00  0.00    -0.331 OA 
HETATM   10  C   UNL     1     -13.285   9.355  72.232  1.00  0.00    -0.446 C  
BRANCH   5  11
HETATM   11  N   UNL     1     -11.277   9.155  69.632  1.00  0.00    -0.431 N  
HETATM   12  H   UNL     1     -12.141   9.064  69.100  1.00  0.00     0.000 HD 
BRANCH  11  13
HETATM   13  C   UNL     1     -10.089   8.817  69.049  1.00  0.00    -0.198 C  
HETATM   14  O   UNL     1      -9.454   7.812  69.337  1.00  0.00    -0.156 OA 
BRANCH  13  15
HETATM   15  N   UNL     1      -9.732   9.685  68.052  1.00  0.00    -0.144 N  
HETATM   16  H   UNL     1      -9.933   9.455  67.079  1.00  0.00     0.000 HD 
BRANCH  15  17
HETATM   17  C   UNL     1      -9.074  10.916  68.376  1.00  0.00    -0.164 C  
BRANCH  17  18
HETATM   18  N   UNL     1      -9.900  12.062  68.106  1.00  0.00    -0.196 N  
HETATM   19  H   UNL     1      -9.688  12.963  68.535  1.00  0.00     0.000 HD 
BRANCH  18  20
HETATM   20  C   UNL     1     -10.976  11.934  67.267  1.00  0.00    -0.268 C  
HETATM   21  O   UNL     1     -12.024  11.385  67.581  1.00  0.00    -0.630 OA 
BRANCH  20  22
HETATM   22  N   UNL     1     -10.753  12.501  66.034  1.00  0.00    -0.257 N  
HETATM   23  H   UNL     1     -10.007  12.176  65.419  1.00  0.00     0.000 HD 
BRANCH  22  24
HETATM   24  C   UNL     1     -11.631  13.577  65.662  1.00  0.00    -0.325 C  
HETATM   25  N   UNL     1     -11.002  14.831  65.328  1.00  0.00    -0.350 N  
HETATM   26  O   UNL     1     -12.819  12.313  63.873  1.00  0.00    -0.720 OA 
HETATM   27  C   UNL     1     -11.670  15.466  64.300  1.00  0.00    -0.206 C  
HETATM   28  N   UNL     1     -12.533  14.582  63.740  1.00  0.00    -0.764 NA 
HETATM   29  O   UNL     1     -11.493  16.608  63.914  1.00  0.00    -1.186 OA 
HETATM   30  C   UNL     1     -12.394  13.362  64.333  1.00  0.00    -0.341 C  
BRANCH  25  31
HETATM   31  C   UNL     1     -10.015  15.464  66.143  1.00  0.00    -0.307 C  
HETATM   32  H   UNL     1      -8.301  14.979  66.896  1.00  0.00     0.000 HD 
HETATM   33  O   UNL     1      -8.958  14.559  66.354  1.00  0.00    -0.222 OA 
ENDBRANCH  25  31
ENDBRANCH  22  24
ENDBRANCH  20  22
ENDBRANCH  18  20
ENDBRANCH  17  18
ENDBRANCH  15  17
ENDBRANCH  13  15
ENDBRANCH  11  13
ENDBRANCH   5  11
ENDBRANCH   2   4
TORSDOF 10
ENDMDL
MODEL        5
REMARK 921   NORMALIZED FREE ENERGY PREDICTED BY IDOCK:   -6.74 KCAL/MOL
REMARK 922        TOTAL FREE ENERGY PREDICTED BY IDOCK:  -12.68 KCAL/MOL
REMARK 923 INTER-LIGAND FREE ENERGY PREDICTED BY IDOCK:  -10.91 KCAL/MOL
REMARK 924 INTRA-LIGAND FREE ENERGY PREDICTED BY IDOCK:   -1.77 KCAL/MOL
REMARK 927      BINDING AFFINITY PREDICTED BY RF-SCORE:    0.00 PKD
ROOT
HETATM    1  O   UNL     1     -11.533  16.420  63.924  1.00  0.00    -1.569 OA 
HETATM    2  C   UNL     1     -10.866  15.579  64.834  1.00  0.00    -0.427 C  
HETATM    3  H   UNL     1     -10.923  17.074  63.605  1.00  0.00     0.000 HD 
ENDROOT
BRANCH   2   4
HETATM    4  N   UNL     1     -11.786  14.592  65.316  1.00  0.00    -0.347 N  
HETATM    5  C   UNL     1     -11.508  13.864  66.538  1.00  0.00    -0.348 C  
HETATM    6  O   UNL     1     -12.640  14.067  63.219  1.00  0.00    -0.801 OA 
HETATM    7  C   UNL     1     -11.999  12.461  66.114  1.00  0.00    -0.327 C  
HETATM    8  N   UNL     1     -12.685  12.587  64.946  1.00  0.00    -0.754 NA 
HETATM    9  O   UNL     1     -11.881  11.410  66.726  1.00  0.00    -0.443 OA 
HETATM   10  C   UNL     1     -12.429  13.791  64.389  1.00  0.00    -0.270 C  
BRANCH   5  11
HETATM   11  N   UNL     1     -12.313  14.352  67.630  1.00  0.00    -0.601 N  
HETATM   12  H   UNL     1     -13.222  14.772  67.437  1.00  0.00     0.000 HD 
BRANCH  11  13
HETATM   13  C   UNL     1     -11.875  14.261  68.920  1.00  0.00    -0.336 C  
HETATM   14  O   UNL     1     -12.043  15.136  69.758  1.00  0.00    -0.310 OA 
BRANCH  13  15
HETATM   15  N   UNL     1     -11.297  13.048  69.190  1.00  0.00    -0.292 N  
HETATM   16  H   UNL     1     -10.418  12.791  68.743  1.00  0.00     0.000 HD 
BRANCH  15  17
HETATM   17  C   UNL     1     -11.932  12.141  70.100  1.00  0.00    -0.314 C  
BRANCH  17  18
HETATM   18  N   UNL     1     -12.081  10.824  69.539  1.00  0.00    -0.469 N  
HETATM   19  H   UNL     1     -12.914  10.586  68.999  1.00  0.00     0.000 HD 
BRANCH  18  20
HETATM   20  C   UNL     1     -11.096   9.892  69.736  1.00  0.00    -0.254 C  
HETATM   21  O   UNL     1      -9.902  10.124  69.602  1.00  0.00    -0.224 OA 
BRANCH  20  22
HETATM   22  N   UNL     1     -11.598   8.669  70.114  1.00  0.00    -0.458 N  
HETATM   23  H   UNL     1     -12.592   8.525  70.292  1.00  0.00     0.000 HD 
BRANCH  22  24
HETATM   24  C   UNL     1     -10.641   7.604  70.244  1.00  0.00    -0.230 C  
HETATM   25  N   UNL     1     -10.695   6.839  71.466  1.00  0.00    -0.223 N  
HETATM   26  O   UNL     1     -11.233   6.483  68.098  1.00  0.00    -0.275 OA 
HETATM   27  C   UNL     1     -10.421   5.506  71.234  1.00  0.00    -0.239 C  
HETATM   28  N   UNL     1     -10.467   5.286  69.896  1.00  0.00    -0.307 NA 
HETATM   29  O   UNL     1     -10.218   4.648  72.075  1.00  0.00    -0.190 OA 
HETATM   30  C   UNL     1     -10.836   6.431  69.253  1.00  0.00    -0.327 C  
BRANCH  25  31
HETATM   31  C   UNL     1     -10.728   7.427  72.768  1.00  0.00    -0.314 C  
HETATM   32  H   UNL     1      -9.925   8.960  73.631  1.00  0.00     0.000 HD 
HETATM   33  O   UNL     1      -9.904   8.569  72.766  1.00  0.00    -0.258 OA 
ENDBRANCH  25  31
ENDBRANCH  22  24
ENDBRANCH  20  22
ENDBRANCH  18  20
ENDBRANCH  17  18
ENDBRANCH  15  17
ENDBRANCH  13  15
ENDBRANCH  11  13
ENDBRANCH   5  11
ENDBRANCH   2   4
TORSDOF 10
ENDMDL
MODEL        6
REMARK 921   NORMALIZED FREE ENERGY PREDICTED BY IDOCK:   -6.71 KCAL/MOL
REMARK 922        TOTAL FREE ENERGY PREDICTED BY IDOCK:  -12.64 KCAL/MOL
REMARK 923 INTER-LIGAND FREE ENERGY PREDICTED BY IDOCK:  -10.81 KCAL/MOL
REMARK 924 INTRA-LIGAND FREE ENERGY PREDICTED BY IDOCK:   -1.82 KCAL/MOL
REMARK 927      BINDING AFFINITY PREDICTED BY RF-SCORE:    0.00 PKD
ROOT
HETATM    1  O   UNL     1     -11.712  16.273  63.791  1.00  0.00    -1.511 OA 
HETATM    2  C   UNL     1     -10.990  15.533  64.745  1.00  0.00    -0.399 C  
HETATM    3  H   UNL     1     -11.167  16.982  63.472  1.00  0.00     0.000 HD 
ENDROOT
BRANCH   2   4
HETATM    4  N   UNL     1     -11.814  14.464  65.227  1.00  0.00    -0.363 N  
HETATM    5  C   UNL     1     -11.543  13.850  66.511  1.00  0.00    -0.369 C  
HETATM    6  O   UNL     1     -12.428  13.713  63.115  1.00  0.00    -0.786 OA 
HETATM    7  C   UNL     1     -11.818  12.373  66.149  1.00  0.00    -0.376 C  
HETATM    8  N   UNL     1     -12.421  12.341  64.930  1.00  0.00    -0.520 NA 
HETATM    9  O   UNL     1     -11.617  11.384  66.838  1.00  0.00    -0.492 OA 
HETATM   10  C   UNL     1     -12.276  13.534  64.313  1.00  0.00    -0.396 C  
BRANCH   5  11
HETATM   11  N   UNL     1     -12.485  14.292  67.509  1.00  0.00    -0.524 N  
HETATM   12  H   UNL     1     -13.408  14.615  67.221  1.00  0.00     0.000 HD 
BRANCH  11  13
HETATM   13  C   UNL     1     -12.159  14.283  68.835  1.00  0.00    -0.279 C  
HETATM   14  O   UNL     1     -11.913  13.265  69.467  1.00  0.00    -0.307 OA 
BRANCH  13  15
HETATM   15  N   UNL     1     -12.059  15.546  69.355  1.00  0.00    -0.518 N  
HETATM   16  H   UNL     1     -12.789  16.234  69.170  1.00  0.00     0.000 HD 
BRANCH  15  17
HETATM   17  C   UNL     1     -10.928  15.900  70.160  1.00  0.00    -0.364 C  
BRANCH  17  18
HETATM   18  N   UNL     1      -9.691  15.422  69.600  1.00  0.00    -0.355 N  
HETATM   19  H   UNL     1      -9.512  14.420  69.527  1.00  0.00     0.000 HD 
BRANCH  18  20
HETATM   20  C   UNL     1      -8.756  16.324  69.165  1.00  0.00    -0.212 C  
HETATM   21  O   UNL     1      -7.582  16.310  69.511  1.00  0.00    -0.190 OA 
BRANCH  20  22
HETATM   22  N   UNL     1      -9.279  17.241  68.284  1.00  0.00    -0.257 N  
HETATM   23  H   UNL     1     -10.146  17.067  67.776  1.00  0.00     0.000 HD 
BRANCH  22  24
HETATM   24  C   UNL     1      -8.535  18.460  68.119  1.00  0.00    -0.285 C  
HETATM   25  N   UNL     1      -7.915  18.664  66.833  1.00  0.00    -0.235 N  
HETATM   26  O   UNL     1     -10.389  19.973  68.814  1.00  0.00    -0.433 OA 
HETATM   27  C   UNL     1      -7.955  19.994  66.465  1.00  0.00    -0.313 C  
HETATM   28  N   UNL     1      -8.812  20.643  67.293  1.00  0.00    -0.298 NA 
HETATM   29  O   UNL     1      -7.367  20.508  65.529  1.00  0.00    -0.167 OA 
HETATM   30  C   UNL     1      -9.388  19.751  68.150  1.00  0.00    -0.340 C  
BRANCH  25  31
HETATM   31  C   UNL     1      -7.110  17.683  66.177  1.00  0.00    -0.312 C  
HETATM   32  H   UNL     1      -7.406  15.973  65.325  1.00  0.00     0.000 HD 
HETATM   33  O   UNL     1      -7.941  16.626  65.762  1.00  0.00    -0.213 OA 
ENDBRANCH  25  31
ENDBRANCH  22  24
ENDBRANCH  20  22
ENDBRANCH  18  20
ENDBRANCH  17  18
ENDBRANCH  15  17
ENDBRANCH  13  15
ENDBRANCH  11  13
ENDBRANCH   5  11
ENDBRANCH   2   4
TORSDOF 10
ENDMDL
MODEL        7
REMARK 921   NORMALIZED FREE ENERGY PREDICTED BY IDOCK:   -6.69 KCAL/MOL
REMARK 922        TOTAL FREE ENERGY PREDICTED BY IDOCK:  -12.60 KCAL/MOL
REMARK 923 INTER-LIGAND FREE ENERGY PREDICTED BY IDOCK:   -9.82 KCAL/MOL
REMARK 924 INTRA-LIGAND FREE ENERGY PREDICTED BY IDOCK:   -2.77 KCAL/MOL
REMARK 927      BINDING AFFINITY PREDICTED BY RF-SCORE:    0.00 PKD
ROOT
HETATM    1  O   UNL     1     -12.192  15.260  68.411  1.00  0.00    -0.556 OA 
HETATM    2  C   UNL     1     -11.834  15.895  69.615  1.00  0.00    -0.290 C  
HETATM    3  H   UNL     1     -12.182  15.900  67.710  1.00  0.00     0.000 HD 
ENDROOT
BRANCH   2   4
HETATM    4  N   UNL     1     -11.849  14.930  70.673  1.00  0.00    -0.282 N  
HETATM    5  C   UNL     1     -12.436  13.622  70.465  1.00  0.00    -0.324 C  
HETATM    6  O   UNL     1     -11.846  16.503  72.384  1.00  0.00    -0.532 OA 
HETATM    7  C   UNL     1     -13.139  13.439  71.829  1.00  0.00    -0.388 C  
HETATM    8  N   UNL     1     -12.693  14.412  72.669  1.00  0.00    -0.352 NA 
HETATM    9  O   UNL     1     -13.907  12.549  72.162  1.00  0.00    -0.343 OA 
HETATM   10  C   UNL     1     -12.069  15.380  71.963  1.00  0.00    -0.399 C  
BRANCH   5  11
HETATM   11  N   UNL     1     -11.418  12.614  70.303  1.00  0.00    -0.487 N  
HETATM   12  H   UNL     1     -10.538  12.700  70.811  1.00  0.00     0.000 HD 
BRANCH  11  13
HETATM   13  C   UNL     1     -11.615  11.544  69.477  1.00  0.00    -0.333 C  
HETATM   14  O   UNL     1     -12.533  11.468  68.673  1.00  0.00    -0.335 OA 
BRANCH  13  15
HETATM   15  N   UNL     1     -10.623  10.606  69.594  1.00  0.00    -0.341 N  
HETATM   16  H   UNL     1     -10.164  10.458  70.492  1.00  0.00     0.000 HD 
BRANCH  15  17
HETATM   17  C   UNL     1     -10.232   9.833  68.453  1.00  0.00    -0.185 C  
BRANCH  17  18
HETATM   18  N   UNL     1      -9.662  10.649  67.413  1.00  0.00    -0.165 N  
HETATM   19  H   UNL     1      -8.826  11.205  67.596  1.00  0.00     0.000 HD 
BRANCH  18  20
HETATM   20  C   UNL     1     -10.250  10.672  66.176  1.00  0.00    -0.248 C  
HETATM   21  O   UNL     1     -10.085   9.807  65.327  1.00  0.00    -0.286 OA 
BRANCH  20  22
HETATM   22  N   UNL     1     -11.058  11.771  65.998  1.00  0.00    -0.319 N  
HETATM   23  H   UNL     1     -12.056  11.745  66.203  1.00  0.00     0.000 HD 
BRANCH  22  24
HETATM   24  C   UNL     1     -10.414  12.959  65.507  1.00  0.00    -0.289 C  
HETATM   25  N   UNL     1     -11.219  13.834  64.690  1.00  0.00    -0.363 N  
HETATM   26  O   UNL     1      -9.652  13.763  67.740  1.00  0.00    -0.207 OA 
HETATM   27  C   UNL     1     -10.916  15.159  64.930  1.00  0.00    -0.419 C  
HETATM   28  N   UNL     1     -10.163  15.230  66.056  1.00  0.00    -0.295 NA 
HETATM   29  O   UNL     1     -11.292  16.120  64.281  1.00  0.00    -0.628 OA 
HETATM   30  C   UNL     1     -10.026  13.986  66.599  1.00  0.00    -0.278 C  
BRANCH  25  31
HETATM   31  C   UNL     1     -11.998  13.385  63.580  1.00  0.00    -0.446 C  
HETATM   32  H   UNL     1     -13.538  12.245  63.321  1.00  0.00     0.000 HD 
HETATM   33  O   UNL     1     -13.019  12.544  64.059  1.00  0.00    -0.733 OA 
ENDBRANCH  25  31
ENDBRANCH  22  24
ENDBRANCH  20  22
ENDBRANCH  18  20
ENDBRANCH  17  18
ENDBRANCH  15  17
ENDBRANCH  13  15
ENDBRANCH  11  13
ENDBRANCH   5  11
ENDBRANCH   2   4
TORSDOF 10
ENDMDL
MODEL        8
REMARK 921   NORMALIZED FREE ENERGY PREDICTED BY IDOCK:   -6.69 KCAL/MOL
REMARK 922        TOTAL FREE ENERGY PREDICTED BY IDOCK:  -12.59 KCAL/MOL
REMARK 923 INTER-LIGAND FREE ENERGY PREDICTED BY IDOCK:  -11.01 KCAL/MOL
REMARK 924 INTRA-LIGAND FREE ENERGY PREDICTED BY IDOCK:   -1.58 KCAL/MOL
REMARK 927      BINDING AFFINITY PREDICTED BY RF-SCORE:    0.00 PKD
ROOT
HETATM    1  O   UNL     1     -10.512  10.549  63.834  1.00  0.00    -0.449 OA 
HETATM    2  C   UNL     1     -10.243  11.819  63.290  1.00  0.00    -0.416 C  
HETATM    3  H   UNL     1      -9.892   9.924  63.478  1.00  0.00     0.000 HD 
ENDROOT
BRANCH   2   4
HETATM    4  N   UNL     1     -11.179  12.762  63.826  1.00  0.00    -0.433 N  
HETATM    5  C   UNL     1     -10.833  13.562  64.983  1.00  0.00    -0.340 C  
HETATM    6  O   UNL     1     -13.065  11.620  63.090  1.00  0.00    -0.497 OA 
HETATM    7  C   UNL     1     -12.186  13.525  65.730  1.00  0.00    -0.461 C  
HETATM    8  N   UNL     1     -13.123  13.017  64.884  1.00  0.00    -0.765 NA 
HETATM    9  O   UNL     1     -12.433  13.940  66.852  1.00  0.00    -0.357 OA 
HETATM   10  C   UNL     1     -12.519  12.419  63.834  1.00  0.00    -0.476 C  
BRANCH   5  11
HETATM   11  N   UNL     1     -10.521  14.918  64.606  1.00  0.00    -0.547 N  
HETATM   12  H   UNL     1     -10.577  15.193  63.626  1.00  0.00     0.000 HD 
BRANCH  11  13
HETATM   13  C   UNL     1     -10.151  15.839  65.543  1.00  0.00    -0.351 C  
HETATM   14  O   UNL     1     -10.454  17.023  65.489  1.00  0.00    -0.572 OA 
BRANCH  13  15
HETATM   15  N   UNL     1      -9.472  15.274  66.591  1.00  0.00    -0.242 N  
HETATM   16  H   UNL     1      -9.404  14.259  66.666  1.00  0.00     0.000 HD 
BRANCH  15  17
HETATM   17  C   UNL     1      -8.860  16.110  67.580  1.00  0.00    -0.186 C  
BRANCH  17  18
HETATM   18  N   UNL     1      -9.212  15.715  68.919  1.00  0.00    -0.209 N  
HETATM   19  H   UNL     1      -8.501  15.346  69.551  1.00  0.00     0.000 HD 
BRANCH  18  20
HETATM   20  C   UNL     1     -10.511  15.837  69.338  1.00  0.00    -0.257 C  
HETATM   21  O   UNL     1     -11.391  16.378  68.680  1.00  0.00    -0.355 OA 
BRANCH  20  22
HETATM   22  N   UNL     1     -10.721  15.274  70.574  1.00  0.00    -0.484 N  
HETATM   23  H   UNL     1      -9.950  14.932  71.148  1.00  0.00     0.000 HD 
BRANCH  22  24
HETATM   24  C   UNL     1     -12.088  15.196  71.012  1.00  0.00    -0.333 C  
HETATM   25  N   UNL     1     -12.628  13.871  71.194  1.00  0.00    -0.353 N  
HETATM   26  O   UNL     1     -11.786  16.655  73.011  1.00  0.00    -0.496 OA 
HETATM   27  C   UNL     1     -13.488  13.826  72.273  1.00  0.00    -0.541 C  
HETATM   28  N   UNL     1     -13.335  14.967  72.991  1.00  0.00    -0.474 NA 
HETATM   29  O   UNL     1     -14.230  12.907  72.574  1.00  0.00    -0.526 OA 
HETATM   30  C   UNL     1     -12.342  15.726  72.445  1.00  0.00    -0.456 C  
BRANCH  25  31
HETATM   31  C   UNL     1     -12.524  12.833  70.218  1.00  0.00    -0.105 C  
HETATM   32  H   UNL     1     -11.862  11.017  70.172  1.00  0.00     0.000 HD 
HETATM   33  O   UNL     1     -11.932  11.708  70.821  1.00  0.00    -0.334 OA 
ENDBRANCH  25  31
ENDBRANCH  22  24
ENDBRANCH  20  22
ENDBRANCH  18  20
ENDBRANCH  17  18
ENDBRANCH  15  17
ENDBRANCH  13  15
ENDBRANCH  11  13
ENDBRANCH   5  11
ENDBRANCH   2   4
TORSDOF 10
ENDMDL
MODEL        9
REMARK 921   NORMALIZED FREE ENERGY PREDICTED BY IDOCK:   -6.62 KCAL/MOL
REMARK 922        TOTAL FREE ENERGY PREDICTED BY IDOCK:  -12.49 KCAL/MOL
REMARK 923 INTER-LIGAND FREE ENERGY PREDICTED BY IDOCK:  -10.29 KCAL/MOL
REMARK 924 INTRA-LIGAND FREE ENERGY PREDICTED BY IDOCK:   -2.20 KCAL/MOL
REMARK 927      BINDING AFFINITY PREDICTED BY RF-SCORE:    0.00 PKD
ROOT
HETATM    1  O   UNL     1     -13.545  16.010  73.559  1.00  0.00    -0.800 OA 
HETATM    2  C   UNL     1     -13.953  15.718  72.245  1.00  0.00    -0.386 C  
HETATM    3  H   UNL     1     -14.186  16.583  73.961  1.00  0.00     0.000 HD 
ENDROOT
BRANCH   2   4
HETATM    4  N   UNL     1     -12.985  14.853  71.638  1.00  0.00    -0.314 N  
HETATM    5  C   UNL     1     -12.396  15.193  70.359  1.00  0.00    -0.363 C  
HETATM    6  O   UNL     1     -13.785  12.915  72.643  1.00  0.00    -0.573 OA 
HETATM    7  C   UNL     1     -12.371  13.791  69.710  1.00  0.00    -0.255 C  
HETATM    8  N   UNL     1     -12.645  12.872  70.675  1.00  0.00    -0.231 NA 
HETATM    9  O   UNL     1     -12.085  13.505  68.557  1.00  0.00    -0.359 OA 
HETATM   10  C   UNL     1     -13.164  13.486  71.761  1.00  0.00    -0.404 C  
BRANCH   5  11
HETATM   11  N   UNL     1     -11.048  15.680  70.519  1.00  0.00    -0.331 N  
HETATM   12  H   UNL     1     -10.570  15.552  71.411  1.00  0.00     0.000 HD 
BRANCH  11  13
HETATM   13  C   UNL     1     -10.403  16.310  69.494  1.00  0.00    -0.284 C  
HETATM   14  O   UNL     1      -9.186  16.384  69.401  1.00  0.00    -0.201 OA 
BRANCH  13  15
HETATM   15  N   UNL     1     -11.270  16.779  68.542  1.00  0.00    -0.265 N  
HETATM   16  H   UNL     1     -12.277  16.699  68.686  1.00  0.00     0.000 HD 
BRANCH  15  17
HETATM   17  C   UNL     1     -10.762  17.379  67.345  1.00  0.00    -0.251 C  
BRANCH  17  18
HETATM   18  N   UNL     1     -10.133  16.416  66.479  1.00  0.00    -0.282 N  
HETATM   19  H   UNL     1      -9.168  16.129  66.644  1.00  0.00     0.000 HD 
BRANCH  18  20
HETATM   20  C   UNL     1     -10.842  15.889  65.432  1.00  0.00    -0.349 C  
HETATM   21  O   UNL     1     -11.096  16.503  64.404  1.00  0.00    -0.894 OA 
BRANCH  20  22
HETATM   22  N   UNL     1     -11.225  14.588  65.657  1.00  0.00    -0.327 N  
HETATM   23  H   UNL     1     -11.889  14.342  66.391  1.00  0.00     0.000 HD 
BRANCH  22  24
HETATM   24  C   UNL     1     -10.636  13.596  64.800  1.00  0.00    -0.422 C  
HETATM   25  N   UNL     1     -10.195  12.379  65.437  1.00  0.00    -0.276 N  
HETATM   26  O   UNL     1     -12.545  13.492  63.202  1.00  0.00    -0.762 OA 
HETATM   27  C   UNL     1     -10.416  11.283  64.627  1.00  0.00    -0.325 C  
HETATM   28  N   UNL     1     -11.234  11.658  63.612  1.00  0.00    -0.421 NA 
HETATM   29  O   UNL     1      -9.998  10.152  64.805  1.00  0.00    -0.331 OA 
HETATM   30  C   UNL     1     -11.610  12.959  63.780  1.00  0.00    -0.475 C  
BRANCH  25  31
HETATM   31  C   UNL     1      -9.374  12.349  66.606  1.00  0.00    -0.227 C  
HETATM   32  H   UNL     1      -8.188  13.577  67.514  1.00  0.00     0.000 HD 
HETATM   33  O   UNL     1      -8.735  13.596  66.737  1.00  0.00    -0.187 OA 
ENDBRANCH  25  31
ENDBRANCH  22  24
ENDBRANCH  20  22
ENDBRANCH  18  20
ENDBRANCH  17  18
ENDBRANCH  15  17
ENDBRANCH  13  15
ENDBRANCH  11  13
ENDBRANCH   5  11
ENDBRANCH   2   4
TORSDOF 10
ENDMDL
MODEL       10
REMARK 921   NORMALIZED FREE ENERGY PREDICTED BY IDOCK:   -6.62 KCAL/MOL
REMARK 922        TOTAL FREE ENERGY PREDICTED BY IDOCK:  -12.49 KCAL/MOL
REMARK 923 INTER-LIGAND FREE ENERGY PREDICTED BY IDOCK:  -10.01 KCAL/MOL
REMARK 924 INTRA-LIGAND FREE ENERGY PREDICTED BY IDOCK:   -2.48 KCAL/MOL
REMARK 927      BINDING AFFINITY PREDICTED BY RF-SCORE:    0.00 PKD
ROOT
HETATM    1  O   UNL     1     -11.039  19.603  65.041  1.00  0.00    -0.276 OA 
HETATM    2  C   UNL     1      -9.894  19.801  65.834  1.00  0.00    -0.332 C  
HETATM    3  H   UNL     1     -11.190  20.380  64.517  1.00  0.00     0.000 HD 
ENDROOT
BRANCH   2   4
HETATM    4  N   UNL     1      -9.666  18.629  66.625  1.00  0.00    -0.326 N  
HETATM    5  C   UNL     1     -10.656  17.573  66.674  1.00  0.00    -0.198 C  
HETATM    6  O   UNL     1      -8.276  19.686  68.160  1.00  0.00    -0.307 OA 
HETATM    7  C   UNL     1     -10.567  17.211  68.175  1.00  0.00    -0.380 C  
HETATM    8  N   UNL     1      -9.467  17.823  68.693  1.00  0.00    -0.291 NA 
HETATM    9  O   UNL     1     -11.288  16.454  68.806  1.00  0.00    -0.336 OA 
HETATM   10  C   UNL     1      -9.029  18.779  67.844  1.00  0.00    -0.295 C  
BRANCH   5  11
HETATM   11  N   UNL     1     -10.253  16.442  65.876  1.00  0.00    -0.350 N  
HETATM   12  H   UNL     1      -9.409  15.927  66.124  1.00  0.00     0.000 HD 
BRANCH  11  13
HETATM   13  C   UNL     1     -10.985  16.053  64.791  1.00  0.00    -0.356 C  
HETATM   14  O   UNL     1     -11.503  16.834  64.005  1.00  0.00    -1.198 OA 
BRANCH  13  15
HETATM   15  N   UNL     1     -11.007  14.691  64.638  1.00  0.00    -0.582 N  
HETATM   16  H   UNL     1     -10.271  14.226  64.108  1.00  0.00     0.000 HD 
BRANCH  15  17
HETATM   17  C   UNL     1     -12.065  13.923  65.224  1.00  0.00    -0.410 C  
BRANCH  17  18
HETATM   18  N   UNL     1     -11.578  12.974  66.190  1.00  0.00    -0.347 N  
HETATM   19  H   UNL     1     -11.730  11.975  66.052  1.00  0.00     0.000 HD 
BRANCH  18  20
HETATM   20  C   UNL     1     -10.907  13.424  67.296  1.00  0.00    -0.269 C  
HETATM   21  O   UNL     1      -9.712  13.688  67.308  1.00  0.00    -0.231 OA 
BRANCH  20  22
HETATM   22  N   UNL     1     -11.728  13.560  68.391  1.00  0.00    -0.338 N  
HETATM   23  H   UNL     1     -12.424  14.303  68.454  1.00  0.00     0.000 HD 
BRANCH  22  24
HETATM   24  C   UNL     1     -11.551  12.593  69.440  1.00  0.00    -0.306 C  
HETATM   25  N   UNL     1     -12.358  12.775  70.622  1.00  0.00    -0.345 N  
HETATM   26  O   UNL     1     -11.956  10.598  68.003  1.00  0.00    -0.457 OA 
HETATM   27  C   UNL     1     -12.756  11.561  71.146  1.00  0.00    -0.356 C  
HETATM   28  N   UNL     1     -12.504  10.595  70.228  1.00  0.00    -0.326 NA 
HETATM   29  O   UNL     1     -13.291  11.376  72.225  1.00  0.00    -0.410 OA 
HETATM   30  C   UNL     1     -12.014  11.159  69.087  1.00  0.00    -0.343 C  
BRANCH  25  31
HETATM   31  C   UNL     1     -12.473  14.016  71.319  1.00  0.00    -0.369 C  
HETATM   32  H   UNL     1     -13.538  15.622  71.151  1.00  0.00     0.000 HD 
HETATM   33  O   UNL     1     -13.461  14.795  70.688  1.00  0.00    -0.278 OA 
ENDBRANCH  25  31
ENDBRANCH  22  24
ENDBRANCH  20  22
ENDBRANCH  18  20
ENDBRANCH  17  18
ENDBRANCH  15  17
ENDBRANCH  13  15
ENDBRANCH  11  13
ENDBRANCH   5  11
ENDBRANCH   2   4
TORSDOF 10
ENDMDL
MODEL       11
REMARK 921   NORMALIZED FREE ENERGY PREDICTED BY IDOCK:   -6.57 KCAL/MOL
REMARK 922        TOTAL FREE ENERGY PREDICTED BY IDOCK:  -12.41 KCAL/MOL
REMARK 923 INTER-LIGAND FREE ENERGY PREDICTED BY IDOCK:  -11.04 KCAL/MOL
REMARK 924 INTRA-LIGAND FREE ENERGY PREDICTED BY IDOCK:   -1.36 KCAL/MOL
REMARK 927      BINDING AFFINITY PREDICTED BY RF-SCORE:    0.00 PKD
ROOT
HETATM    1  O   UNL     1     -11.483  16.496  63.939  1.00  0.00    -1.608 OA 
HETATM    2  C   UNL     1     -10.750  15.900  64.982  1.00  0.00    -0.404 C  
HETATM    3  H   UNL     1     -11.274  17.422  63.905  1.00  0.00     0.000 HD 
ENDROOT
BRANCH   2   4
HETATM    4  N   UNL     1     -11.065  14.504  65.034  1.00  0.00    -0.365 N  
HETATM    5  C   UNL     1     -10.079  13.514  64.651  1.00  0.00    -0.217 C  
HETATM    6  O   UNL     1     -13.348  14.797  64.708  1.00  0.00    -0.000 OA 
HETATM    7  C   UNL     1     -10.994  12.524  63.894  1.00  0.00    -0.424 C  
HETATM    8  N   UNL     1     -12.286  12.865  64.145  1.00  0.00    -0.553 NA 
HETATM    9  O   UNL     1     -10.660  11.549  63.238  1.00  0.00    -0.370 OA 
HETATM   10  C   UNL     1     -12.340  14.109  64.671  1.00  0.00    -0.410 C  
BRANCH   5  11
HETATM   11  N   UNL     1      -9.512  12.867  65.808  1.00  0.00    -0.466 N  
HETATM   12  H   UNL     1      -9.005  13.422  66.496  1.00  0.00     0.000 HD 
BRANCH  11  13
HETATM   13  C   UNL     1      -9.644  11.521  65.994  1.00  0.00    -0.228 C  
HETATM   14  O   UNL     1      -8.745  10.716  65.794  1.00  0.00    -0.170 OA 
BRANCH  13  15
HETATM   15  N   UNL     1     -10.869  11.183  66.506  1.00  0.00    -0.269 N  
HETATM   16  H   UNL     1     -11.704  11.259  65.924  1.00  0.00     0.000 HD 
BRANCH  15  17
HETATM   17  C   UNL     1     -10.977  10.724  67.858  1.00  0.00    -0.289 C  
BRANCH  17  18
HETATM   18  N   UNL     1     -12.001  11.422  68.590  1.00  0.00    -0.304 N  
HETATM   19  H   UNL     1     -12.810  10.918  68.952  1.00  0.00     0.000 HD 
BRANCH  18  20
HETATM   20  C   UNL     1     -11.879  12.771  68.797  1.00  0.00    -0.307 C  
HETATM   21  O   UNL     1     -11.876  13.601  67.897  1.00  0.00    -0.339 OA 
BRANCH  20  22
HETATM   22  N   UNL     1     -11.773  13.092  70.130  1.00  0.00    -0.532 N  
HETATM   23  H   UNL     1     -11.305  12.478  70.796  1.00  0.00     0.000 HD 
BRANCH  22  24
HETATM   24  C   UNL     1     -12.359  14.342  70.530  1.00  0.00    -0.345 C  
HETATM   25  N   UNL     1     -13.006  14.363  71.819  1.00  0.00    -0.328 N  
HETATM   26  O   UNL     1     -10.293  15.696  70.199  1.00  0.00    -0.303 OA 
HETATM   27  C   UNL     1     -12.810  15.572  72.456  1.00  0.00    -0.420 C  
HETATM   28  N   UNL     1     -11.838  16.252  71.796  1.00  0.00    -0.490 NA 
HETATM   29  O   UNL     1     -13.368  15.960  73.467  1.00  0.00    -0.542 OA 
HETATM   30  C   UNL     1     -11.344  15.483  70.784  1.00  0.00    -0.355 C  
BRANCH  25  31
HETATM   31  C   UNL     1     -13.961  13.389  72.242  1.00  0.00    -0.507 C  
HETATM   32  H   UNL     1     -13.959  11.487  72.591  1.00  0.00     0.000 HD 
HETATM   33  O   UNL     1     -13.324  12.136  72.309  1.00  0.00    -0.500 OA 
ENDBRANCH  25  31
ENDBRANCH  22  24
ENDBRANCH  20  22
ENDBRANCH  18  20
ENDBRANCH  17  18
ENDBRANCH  15  17
ENDBRANCH  13  15
ENDBRANCH  11  13
ENDBRANCH   5  11
ENDBRANCH   2   4
TORSDOF 10
ENDMDL
MODEL       12
REMARK 921   NORMALIZED FREE ENERGY PREDICTED BY IDOCK:   -6.43 KCAL/MOL
REMARK 922        TOTAL FREE ENERGY PREDICTED BY IDOCK:  -12.19 KCAL/MOL
REMARK 923 INTER-LIGAND FREE ENERGY PREDICTED BY IDOCK:   -9.87 KCAL/MOL
REMARK 924 INTRA-LIGAND FREE ENERGY PREDICTED BY IDOCK:   -2.32 KCAL/MOL
REMARK 927      BINDING AFFINITY PREDICTED BY RF-SCORE:    0.00 PKD
ROOT
HETATM    1  O   UNL     1     -10.135   9.160  68.389  1.00  0.00    -0.182 OA 
HETATM    2  C   UNL     1      -9.774   7.953  69.016  1.00  0.00    -0.162 C  
HETATM    3  H   UNL     1      -9.493   9.363  67.718  1.00  0.00     0.000 HD 
ENDROOT
BRANCH   2   4
HETATM    4  N   UNL     1     -10.741   7.647  70.028  1.00  0.00    -0.239 N  
HETATM    5  C   UNL     1     -10.998   8.583  71.104  1.00  0.00    -0.253 C  
HETATM    6  O   UNL     1     -10.509   5.342  69.841  1.00  0.00    -0.283 OA 
HETATM    7  C   UNL     1     -11.143   7.586  72.277  1.00  0.00    -0.273 C  
HETATM    8  N   UNL     1     -11.230   6.331  71.758  1.00  0.00    -0.271 NA 
HETATM    9  O   UNL     1     -11.243   7.841  73.468  1.00  0.00    -0.248 OA 
HETATM   10  C   UNL     1     -10.834   6.339  70.467  1.00  0.00    -0.288 C  
BRANCH   5  11
HETATM   11  N   UNL     1     -12.243   9.281  70.902  1.00  0.00    -0.434 N  
HETATM   12  H   UNL     1     -13.082   8.754  70.658  1.00  0.00     0.000 HD 
BRANCH  11  13
HETATM   13  C   UNL     1     -12.315  10.638  71.031  1.00  0.00    -0.403 C  
HETATM   14  O   UNL     1     -13.086  11.208  71.791  1.00  0.00    -0.467 OA 
BRANCH  13  15
HETATM   15  N   UNL     1     -11.373  11.285  70.275  1.00  0.00    -0.491 N  
HETATM   16  H   UNL     1     -10.602  10.760  69.863  1.00  0.00     0.000 HD 
BRANCH  15  17
HETATM   17  C   UNL     1     -11.472  12.699  70.066  1.00  0.00    -0.013 C  
BRANCH  17  18
HETATM   18  N   UNL     1     -12.037  13.020  68.782  1.00  0.00    -0.244 N  
HETATM   19  H   UNL     1     -12.680  13.807  68.685  1.00  0.00     0.000 HD 
BRANCH  18  20
HETATM   20  C   UNL     1     -11.705  12.261  67.691  1.00  0.00    -0.334 C  
HETATM   21  O   UNL     1     -11.968  11.071  67.583  1.00  0.00    -0.583 OA 
BRANCH  20  22
HETATM   22  N   UNL     1     -11.053  12.988  66.723  1.00  0.00    -0.279 N  
HETATM   23  H   UNL     1     -10.069  12.833  66.503  1.00  0.00     0.000 HD 
BRANCH  22  24
HETATM   24  C   UNL     1     -11.838  13.979  66.038  1.00  0.00    -0.388 C  
HETATM   25  N   UNL     1     -11.169  15.214  65.711  1.00  0.00    -0.321 N  
HETATM   26  O   UNL     1     -12.560  12.477  64.184  1.00  0.00    -0.588 OA 
HETATM   27  C   UNL     1     -11.591  15.703  64.491  1.00  0.00    -0.262 C  
HETATM   28  N   UNL     1     -12.287  14.728  63.856  1.00  0.00    -0.733 NA 
HETATM   29  O   UNL     1     -11.347  16.803  64.025  1.00  0.00    -1.153 OA 
HETATM   30  C   UNL     1     -12.270  13.587  64.603  1.00  0.00    -0.406 C  
BRANCH  25  31
HETATM   31  C   UNL     1     -10.407  15.974  66.650  1.00  0.00    -0.298 C  
HETATM   32  H   UNL     1     -10.243  16.060  68.575  1.00  0.00     0.000 HD 
HETATM   33  O   UNL     1     -10.749  15.555  67.950  1.00  0.00    -0.276 OA 
ENDBRANCH  25  31
ENDBRANCH  22  24
ENDBRANCH  20  22
ENDBRANCH  18  20
ENDBRANCH  17  18
ENDBRANCH  15  17
ENDBRANCH  13  15
ENDBRANCH  11  13
ENDBRANCH   5  11
ENDBRANCH   2   4
TORSDOF 10
ENDMDL
MODEL       13
REMARK 921   NORMALIZED FREE ENERGY PREDICTED BY IDOCK:   -6.43 KCAL/MOL
REMARK 922        TOTAL FREE ENERGY PREDICTED BY IDOCK:  -12.18 KCAL/MOL
REMARK 923 INTER-LIGAND FREE ENERGY PREDICTED BY IDOCK:   -9.93 KCAL/MOL
REMARK 924 INTRA-LIGAND FREE ENERGY PREDICTED BY IDOCK:   -2.25 KCAL/MOL
REMARK 927      BINDING AFFINITY PREDICTED BY RF-SCORE:    0.00 PKD
ROOT
HETATM    1  O   UNL     1      -9.386  10.166  68.827  1.00  0.00    -0.152 OA 
HETATM    2  C   UNL     1      -9.677   8.802  68.638  1.00  0.00    -0.162 C  
HETATM    3  H   UNL     1      -8.620  10.392  68.314  1.00  0.00     0.000 HD 
ENDROOT
BRANCH   2   4
HETATM    4  N   UNL     1     -10.833   8.461  69.412  1.00  0.00    -0.145 N  
HETATM    5  C   UNL     1     -11.215   9.265  70.555  1.00  0.00    -0.265 C  
HETATM    6  O   UNL     1     -10.741   6.190  68.926  1.00  0.00    -0.244 OA 
HETATM    7  C   UNL     1     -11.645   8.139  71.524  1.00  0.00    -0.275 C  
HETATM    8  N   UNL     1     -11.727   6.980  70.817  1.00  0.00    -0.336 NA 
HETATM    9  O   UNL     1     -11.942   8.242  72.705  1.00  0.00    -0.399 OA 
HETATM   10  C   UNL     1     -11.101   7.121  69.628  1.00  0.00    -0.179 C  
BRANCH   5  11
HETATM   11  N   UNL     1     -12.347  10.103  70.249  1.00  0.00    -0.487 N  
HETATM   12  H   UNL     1     -13.018   9.804  69.543  1.00  0.00     0.000 HD 
BRANCH  11  13
HETATM   13  C   UNL     1     -12.533  11.293  70.892  1.00  0.00    -0.394 C  
HETATM   14  O   UNL     1     -13.200  11.418  71.910  1.00  0.00    -0.484 OA 
BRANCH  13  15
HETATM   15  N   UNL     1     -11.823  12.313  70.316  1.00  0.00    -0.524 N  
HETATM   16  H   UNL     1     -10.984  12.109  69.773  1.00  0.00     0.000 HD 
BRANCH  15  17
HETATM   17  C   UNL     1     -12.259  13.668  70.479  1.00  0.00    -0.368 C  
BRANCH  17  18
HETATM   18  N   UNL     1     -12.455  14.331  69.216  1.00  0.00    -0.528 N  
HETATM   19  H   UNL     1     -13.337  14.230  68.713  1.00  0.00     0.000 HD 
BRANCH  18  20
HETATM   20  C   UNL     1     -11.448  15.100  68.696  1.00  0.00    -0.325 C  
HETATM   21  O   UNL     1     -10.999  16.098  69.244  1.00  0.00    -0.271 OA 
BRANCH  20  22
HETATM   22  N   UNL     1     -10.987  14.619  67.492  1.00  0.00    -0.290 N  
HETATM   23  H   UNL     1      -9.999  14.653  67.242  1.00  0.00     0.000 HD 
BRANCH  22  24
HETATM   24  C   UNL     1     -11.977  14.067  66.609  1.00  0.00    -0.445 C  
HETATM   25  N   UNL     1     -11.780  14.300  65.199  1.00  0.00    -0.352 N  
HETATM   26  O   UNL     1     -11.804  11.737  67.477  1.00  0.00    -0.577 OA 
HETATM   27  C   UNL     1     -12.172  13.207  64.453  1.00  0.00    -0.398 C  
HETATM   28  N   UNL     1     -12.351  12.156  65.292  1.00  0.00    -0.477 NA 
HETATM   29  O   UNL     1     -12.294  13.160  63.241  1.00  0.00    -0.712 OA 
HETATM   30  C   UNL     1     -12.016  12.520  66.563  1.00  0.00    -0.296 C  
BRANCH  25  31
HETATM   31  C   UNL     1     -11.505  15.586  64.640  1.00  0.00    -0.324 C  
HETATM   32  H   UNL     1     -10.123  16.925  64.825  1.00  0.00     0.000 HD 
HETATM   33  O   UNL     1     -10.306  16.070  65.196  1.00  0.00    -0.523 OA 
ENDBRANCH  25  31
ENDBRANCH  22  24
ENDBRANCH  20  22
ENDBRANCH  18  20
ENDBRANCH  17  18
ENDBRANCH  15  17
ENDBRANCH  13  15
ENDBRANCH  11  13
ENDBRANCH   5  11
ENDBRANCH   2   4
TORSDOF 10
ENDMDL
MODEL       14
REMARK 921   NORMALIZED FREE ENERGY PREDICTED BY IDOCK:   -6.43 KCAL/MOL
REMARK 922        TOTAL FREE ENERGY PREDICTED BY IDOCK:  -12.18 KCAL/MOL
REMARK 923 INTER-LIGAND FREE ENERGY PREDICTED BY IDOCK:   -9.93 KCAL/MOL
REMARK 924 INTRA-LIGAND FREE ENERGY PREDICTED BY IDOCK:   -2.24 KCAL/MOL
REMARK 927      BINDING AFFINITY PREDICTED BY RF-SCORE:    0.00 PKD
ROOT
HETATM    1  O   UNL     1     -11.633  15.763  63.932  1.00  0.00    -0.981 OA 
HETATM    2  C   UNL     1     -12.527  14.781  64.398  1.00  0.00    -0.252 C  
HETATM    3  H   UNL     1     -12.118  16.557  63.744  1.00  0.00     0.000 HD 
ENDROOT
BRANCH   2   4
HETATM    4  N   UNL     1     -11.796  13.582  64.683  1.00  0.00    -0.376 N  
HETATM    5  C   UNL     1     -10.371  13.515  64.431  1.00  0.00    -0.281 C  
HETATM    6  O   UNL     1     -13.611  12.161  64.386  1.00  0.00    -0.513 OA 
HETATM    7  C   UNL     1     -10.280  12.077  63.872  1.00  0.00    -0.398 C  
HETATM    8  N   UNL     1     -11.467  11.455  64.106  1.00  0.00    -0.221 NA 
HETATM    9  O   UNL     1      -9.309  11.530  63.370  1.00  0.00    -0.242 OA 
HETATM   10  C   UNL     1     -12.409  12.368  64.428  1.00  0.00    -0.447 C  
BRANCH   5  11
HETATM   11  N   UNL     1      -9.620  13.609  65.658  1.00  0.00    -0.506 N  
HETATM   12  H   UNL     1      -9.144  12.784  66.021  1.00  0.00     0.000 HD 
BRANCH  11  13
HETATM   13  C   UNL     1      -9.537  14.788  66.341  1.00  0.00    -0.301 C  
HETATM   14  O   UNL     1      -9.198  15.847  65.830  1.00  0.00    -0.337 OA 
BRANCH  13  15
HETATM   15  N   UNL     1      -9.953  14.668  67.641  1.00  0.00    -0.226 N  
HETATM   16  H   UNL     1      -9.275  14.477  68.378  1.00  0.00     0.000 HD 
BRANCH  15  17
HETATM   17  C   UNL     1     -11.342  14.811  67.963  1.00  0.00    -0.316 C  
BRANCH  17  18
HETATM   18  N   UNL     1     -11.759  13.893  68.990  1.00  0.00    -0.314 N  
HETATM   19  H   UNL     1     -12.256  14.233  69.814  1.00  0.00     0.000 HD 
BRANCH  18  20
HETATM   20  C   UNL     1     -11.483  12.558  68.852  1.00  0.00    -0.307 C  
HETATM   21  O   UNL     1     -11.406  11.986  67.773  1.00  0.00    -0.260 OA 
BRANCH  20  22
HETATM   22  N   UNL     1     -11.289  11.932  70.061  1.00  0.00    -0.510 N  
HETATM   23  H   UNL     1     -10.542  12.209  70.697  1.00  0.00     0.000 HD 
BRANCH  22  24
HETATM   24  C   UNL     1     -12.201  10.867  70.377  1.00  0.00    -0.365 C  
HETATM   25  N   UNL     1     -11.608   9.602  70.739  1.00  0.00    -0.299 N  
HETATM   26  O   UNL     1     -13.469  12.137  72.106  1.00  0.00    -0.494 OA 
HETATM   27  C   UNL     1     -12.340   8.972  71.725  1.00  0.00    -0.367 C  
HETATM   28  N   UNL     1     -13.222   9.864  72.241  1.00  0.00    -0.403 NA 
HETATM   29  O   UNL     1     -12.200   7.825  72.113  1.00  0.00    -0.301 OA 
HETATM   30  C   UNL     1     -13.034  11.085  71.664  1.00  0.00    -0.456 C  
BRANCH  25  31
HETATM   31  C   UNL     1     -10.586   8.960  69.976  1.00  0.00    -0.220 C  
HETATM   32  H   UNL     1      -8.658   9.056  69.858  1.00  0.00     0.000 HD 
HETATM   33  O   UNL     1      -9.339   9.483  70.366  1.00  0.00    -0.242 OA 
ENDBRANCH  25  31
ENDBRANCH  22  24
ENDBRANCH  20  22
ENDBRANCH  18  20
ENDBRANCH  17  18
ENDBRANCH  15  17
ENDBRANCH  13  15
ENDBRANCH  11  13
ENDBRANCH   5  11
ENDBRANCH   2   4
TORSDOF 10
ENDMDL
MODEL       15
REMARK 921   NORMALIZED FREE ENERGY PREDICTED BY IDOCK:   -6.42 KCAL/MOL
REMARK 922        TOTAL FREE ENERGY PREDICTED BY IDOCK:  -12.17 KCAL/MOL
REMARK 923 INTER-LIGAND FREE ENERGY PREDICTED BY IDOCK:   -9.62 KCAL/MOL
REMARK 924 INTRA-LIGAND FREE ENERGY PREDICTED BY IDOCK:   -2.55 KCAL/MOL
REMARK 927      BINDING AFFINITY PREDICTED BY RF-SCORE:    0.00 PKD
ROOT
HETATM    1  O   UNL     1     -11.213  16.706  64.142  1.00  0.00    -1.410 OA 
HETATM    2  C   UNL     1     -10.583  15.695  64.892  1.00  0.00    -0.316 C  
HETATM    3  H   UNL     1     -10.549  17.275  63.771  1.00  0.00     0.000 HD 
ENDROOT
BRANCH   2   4
HETATM    4  N   UNL     1     -11.585  14.837  65.451  1.00  0.00    -0.338 N  
HETATM    5  C   UNL     1     -11.268  13.969  66.567  1.00  0.00    -0.322 C  
HETATM    6  O   UNL     1     -12.812  14.648  63.486  1.00  0.00    -0.570 OA 
HETATM    7  C   UNL     1     -12.056  12.710  66.140  1.00  0.00    -0.333 C  
HETATM    8  N   UNL     1     -12.870  13.050  65.104  1.00  0.00    -0.748 NA 
HETATM    9  O   UNL     1     -12.039  11.604  66.660  1.00  0.00    -0.441 OA 
HETATM   10  C   UNL     1     -12.487  14.239  64.589  1.00  0.00    -0.351 C  
BRANCH   5  11
HETATM   11  N   UNL     1     -11.806  14.486  67.800  1.00  0.00    -0.468 N  
HETATM   12  H   UNL     1     -12.703  14.970  67.793  1.00  0.00     0.000 HD 
BRANCH  11  13
HETATM   13  C   UNL     1     -11.131  14.337  68.977  1.00  0.00    -0.259 C  
HETATM   14  O   UNL     1     -10.719  15.274  69.647  1.00  0.00    -0.250 OA 
BRANCH  13  15
HETATM   15  N   UNL     1     -11.040  13.026  69.363  1.00  0.00    -0.453 N  
HETATM   16  H   UNL     1     -10.236  12.465  69.081  1.00  0.00     0.000 HD 
BRANCH  15  17
HETATM   17  C   UNL     1     -12.075  12.443  70.165  1.00  0.00    -0.290 C  
BRANCH  17  18
HETATM   18  N   UNL     1     -12.346  11.079  69.793  1.00  0.00    -0.319 N  
HETATM   19  H   UNL     1     -13.302  10.778  69.602  1.00  0.00     0.000 HD 
BRANCH  18  20
HETATM   20  C   UNL     1     -11.310  10.188  69.698  1.00  0.00    -0.235 C  
HETATM   21  O   UNL     1     -10.506   9.979  70.597  1.00  0.00    -0.276 OA 
BRANCH  20  22
HETATM   22  N   UNL     1     -11.280   9.543  68.484  1.00  0.00    -0.486 N  
HETATM   23  H   UNL     1     -12.112   9.453  67.901  1.00  0.00     0.000 HD 
BRANCH  22  24
HETATM   24  C   UNL     1     -10.009   9.002  68.084  1.00  0.00    -0.175 C  
HETATM   25  N   UNL     1     -10.036   8.010  67.038  1.00  0.00    -0.227 N  
HETATM   26  O   UNL     1      -8.942  11.206  67.623  1.00  0.00    -0.137 OA 
HETATM   27  C   UNL     1      -8.945   8.137  66.202  1.00  0.00    -0.178 C  
HETATM   28  N   UNL     1      -8.345   9.327  66.457  1.00  0.00    -0.124 NA 
HETATM   29  O   UNL     1      -8.593   7.349  65.341  1.00  0.00    -0.127 OA 
HETATM   30  C   UNL     1      -9.062  10.013  67.393  1.00  0.00    -0.134 C  
BRANCH  25  31
HETATM   31  C   UNL     1     -10.901   6.873  67.046  1.00  0.00    -0.366 C  
HETATM   32  H   UNL     1     -11.776   5.790  68.387  1.00  0.00     0.000 HD 
HETATM   33  O   UNL     1     -11.200   6.546  68.381  1.00  0.00    -0.283 OA 
ENDBRANCH  25  31
ENDBRANCH  22  24
ENDBRANCH  20  22
ENDBRANCH  18  20
ENDBRANCH  17  18
ENDBRANCH  15  17
ENDBRANCH  13  15
ENDBRANCH  11  13
ENDBRANCH   5  11
ENDBRANCH   2   4
TORSDOF 10
ENDMDL
MODEL       16
REMARK 921   NORMALIZED FREE ENERGY PREDICTED BY IDOCK:   -6.40 KCAL/MOL
REMARK 922        TOTAL FREE ENERGY PREDICTED BY IDOCK:  -12.14 KCAL/MOL
REMARK 923 INTER-LIGAND FREE ENERGY PREDICTED BY IDOCK:  -10.29 KCAL/MOL
REMARK 924 INTRA-LIGAND FREE ENERGY PREDICTED BY IDOCK:   -1.86 KCAL/MOL
REMARK 927      BINDING AFFINITY PREDICTED BY RF-SCORE:    0.00 PKD
ROOT
HETATM    1  O   UNL     1     -12.013  16.300  63.904  1.00  0.00    -1.357 OA 
HETATM    2  C   UNL     1     -11.154  15.610  64.780  1.00  0.00    -0.412 C  
HETATM    3  H   UNL     1     -11.578  17.090  63.604  1.00  0.00     0.000 HD 
ENDROOT
BRANCH   2   4
HETATM    4  N   UNL     1     -11.809  14.420  65.233  1.00  0.00    -0.363 N  
HETATM    5  C   UNL     1     -11.372  13.757  66.445  1.00  0.00    -0.317 C  
HETATM    6  O   UNL     1     -12.492  13.745  63.116  1.00  0.00    -0.786 OA 
HETATM    7  C   UNL     1     -11.502  12.286  65.990  1.00  0.00    -0.381 C  
HETATM    8  N   UNL     1     -12.189  12.264  64.816  1.00  0.00    -0.399 NA 
HETATM    9  O   UNL     1     -11.136  11.283  66.586  1.00  0.00    -0.289 OA 
HETATM   10  C   UNL     1     -12.230  13.505  64.284  1.00  0.00    -0.396 C  
BRANCH   5  11
HETATM   11  N   UNL     1     -12.280  14.012  67.535  1.00  0.00    -0.535 N  
HETATM   12  H   UNL     1     -13.234  14.311  67.336  1.00  0.00     0.000 HD 
BRANCH  11  13
HETATM   13  C   UNL     1     -11.880  13.859  68.831  1.00  0.00    -0.358 C  
HETATM   14  O   UNL     1     -11.034  13.052  69.190  1.00  0.00    -0.222 OA 
BRANCH  13  15
HETATM   15  N   UNL     1     -12.473  14.766  69.671  1.00  0.00    -0.552 N  
HETATM   16  H   UNL     1     -13.488  14.862  69.683  1.00  0.00     0.000 HD 
BRANCH  15  17
HETATM   17  C   UNL     1     -11.665  15.579  70.530  1.00  0.00    -0.349 C  
BRANCH  17  18
HETATM   18  N   UNL     1     -10.487  16.071  69.864  1.00  0.00    -0.298 N  
HETATM   19  H   UNL     1      -9.562  15.751  70.151  1.00  0.00     0.000 HD 
BRANCH  18  20
HETATM   20  C   UNL     1     -10.620  16.972  68.841  1.00  0.00    -0.328 C  
HETATM   21  O   UNL     1     -11.520  16.936  68.013  1.00  0.00    -0.072 OA 
BRANCH  20  22
HETATM   22  N   UNL     1      -9.634  17.931  68.854  1.00  0.00    -0.258 N  
HETATM   23  H   UNL     1      -9.598  18.657  69.569  1.00  0.00     0.000 HD 
BRANCH  22  24
HETATM   24  C   UNL     1      -8.658  17.852  67.802  1.00  0.00    -0.242 C  
HETATM   25  N   UNL     1      -8.804  18.793  66.719  1.00  0.00    -0.295 N  
HETATM   26  O   UNL     1      -6.673  18.040  69.298  1.00  0.00    -0.254 OA 
HETATM   27  C   UNL     1      -7.575  19.219  66.258  1.00  0.00    -0.277 C  
HETATM   28  N   UNL     1      -6.627  18.839  67.151  1.00  0.00    -0.195 NA 
HETATM   29  O   UNL     1      -7.362  19.870  65.249  1.00  0.00    -0.362 OA 
HETATM   30  C   UNL     1      -7.218  18.235  68.222  1.00  0.00    -0.259 C  
BRANCH  25  31
HETATM   31  C   UNL     1     -10.033  19.018  66.026  1.00  0.00    -0.288 C  
HETATM   32  H   UNL     1     -11.618  20.090  66.302  1.00  0.00     0.000 HD 
HETATM   33  O   UNL     1     -10.801  19.940  66.762  1.00  0.00    -0.442 OA 
ENDBRANCH  25  31
ENDBRANCH  22  24
ENDBRANCH  20  22
ENDBRANCH  18  20
ENDBRANCH  17  18
ENDBRANCH  15  17
ENDBRANCH  13  15
ENDBRANCH  11  13
ENDBRANCH   5  11
ENDBRANCH   2   4
TORSDOF 10
ENDMDL
MODEL       17
REMARK 921   NORMALIZED FREE ENERGY PREDICTED BY IDOCK:   -6.38 KCAL/MOL
REMARK 922        TOTAL FREE ENERGY PREDICTED BY IDOCK:  -12.11 KCAL/MOL
REMARK 923 INTER-LIGAND FREE ENERGY PREDICTED BY IDOCK:  -10.77 KCAL/MOL
REMARK 924 INTRA-LIGAND FREE ENERGY PREDICTED BY IDOCK:   -1.34 KCAL/MOL
REMARK 927      BINDING AFFINITY PREDICTED BY RF-SCORE:    0.00 PKD
ROOT
HETATM    1  O   UNL     1     -11.603  16.437  63.888  1.00  0.00    -1.564 OA 
HETATM    2  C   UNL     1     -10.879  15.637  64.791  1.00  0.00    -0.355 C  
HETATM    3  H   UNL     1     -11.026  17.105  63.536  1.00  0.00     0.000 HD 
ENDROOT
BRANCH   2   4
HETATM    4  N   UNL     1     -11.748  14.631  65.322  1.00  0.00    -0.356 N  
HETATM    5  C   UNL     1     -11.427  13.966  66.569  1.00  0.00    -0.348 C  
HETATM    6  O   UNL     1     -12.596  13.982  63.258  1.00  0.00    -0.801 OA 
HETATM    7  C   UNL     1     -11.857  12.526  66.208  1.00  0.00    -0.390 C  
HETATM    8  N   UNL     1     -12.559  12.574  65.043  1.00  0.00    -0.640 NA 
HETATM    9  O   UNL     1     -11.686  11.508  66.861  1.00  0.00    -0.533 OA 
HETATM   10  C   UNL     1     -12.363  13.764  64.435  1.00  0.00    -0.344 C  
BRANCH   5  11
HETATM   11  N   UNL     1     -12.243  14.462  67.650  1.00  0.00    -0.623 N  
HETATM   12  H   UNL     1     -13.097  14.977  67.439  1.00  0.00     0.000 HD 
BRANCH  11  13
HETATM   13  C   UNL     1     -11.887  14.251  68.951  1.00  0.00    -0.336 C  
HETATM   14  O   UNL     1     -12.593  14.548  69.904  1.00  0.00    -0.296 OA 
BRANCH  13  15
HETATM   15  N   UNL     1     -10.688  13.598  69.065  1.00  0.00    -0.377 N  
HETATM   16  H   UNL     1     -10.648  12.679  69.506  1.00  0.00     0.000 HD 
BRANCH  15  17
HETATM   17  C   UNL     1      -9.492  14.206  68.564  1.00  0.00    -0.202 C  
BRANCH  17  18
HETATM   18  N   UNL     1      -8.946  15.169  69.484  1.00  0.00    -0.421 N  
HETATM   19  H   UNL     1      -9.479  15.456  70.305  1.00  0.00     0.000 HD 
BRANCH  18  20
HETATM   20  C   UNL     1      -7.703  15.697  69.248  1.00  0.00    -0.223 C  
HETATM   21  O   UNL     1      -6.664  15.057  69.337  1.00  0.00    -0.132 OA 
BRANCH  20  22
HETATM   22  N   UNL     1      -7.755  17.023  68.887  1.00  0.00    -0.247 N  
HETATM   23  H   UNL     1      -7.539  17.769  69.548  1.00  0.00     0.000 HD 
BRANCH  22  24
HETATM   24  C   UNL     1      -8.129  17.296  67.526  1.00  0.00    -0.186 C  
HETATM   25  N   UNL     1      -9.016  18.414  67.318  1.00  0.00    -0.260 N  
HETATM   26  O   UNL     1      -5.798  17.432  66.656  1.00  0.00    -0.163 OA 
HETATM   27  C   UNL     1      -8.704  19.088  66.154  1.00  0.00    -0.187 C  
HETATM   28  N   UNL     1      -7.491  18.660  65.722  1.00  0.00    -0.498 NA 
HETATM   29  O   UNL     1      -9.369  19.957  65.616  1.00  0.00    -0.312 OA 
HETATM   30  C   UNL     1      -6.970  17.773  66.617  1.00  0.00    -0.213 C  
BRANCH  25  31
HETATM   31  C   UNL     1     -10.226  18.612  68.050  1.00  0.00    -0.385 C  
HETATM   32  H   UNL     1     -11.712  17.514  68.621  1.00  0.00     0.000 HD 
HETATM   33  O   UNL     1     -10.906  17.383  68.134  1.00  0.00    -0.373 OA 
ENDBRANCH  25  31
ENDBRANCH  22  24
ENDBRANCH  20  22
ENDBRANCH  18  20
ENDBRANCH  17  18
ENDBRANCH  15  17
ENDBRANCH  13  15
ENDBRANCH  11  13
ENDBRANCH   5  11
ENDBRANCH   2   4
TORSDOF 10
ENDMDL
MODEL       18
REMARK 921   NORMALIZED FREE ENERGY PREDICTED BY IDOCK:   -6.33 KCAL/MOL
REMARK 922        TOTAL FREE ENERGY PREDICTED BY IDOCK:  -12.03 KCAL/MOL
REMARK 923 INTER-LIGAND FREE ENERGY PREDICTED BY IDOCK:   -9.69 KCAL/MOL
REMARK 924 INTRA-LIGAND FREE ENERGY PREDICTED BY IDOCK:   -2.34 KCAL/MOL
REMARK 927      BINDING AFFINITY PREDICTED BY RF-SCORE:    0.00 PKD
ROOT
HETATM    1  O   UNL     1     -11.574  14.227  68.287  1.00  0.00    -0.288 OA 
HETATM    2  C   UNL     1     -12.123  13.417  67.275  1.00  0.00    -0.304 C  
HETATM    3  H   UNL     1     -11.895  13.928  69.130  1.00  0.00     0.000 HD 
ENDROOT
BRANCH   2   4
HETATM    4  N   UNL     1     -11.639  13.868  66.004  1.00  0.00    -0.338 N  
HETATM    5  C   UNL     1     -10.993  15.159  65.881  1.00  0.00    -0.339 C  
HETATM    6  O   UNL     1     -13.170  12.642  64.757  1.00  0.00    -0.846 OA 
HETATM    7  C   UNL     1     -11.592  15.613  64.530  1.00  0.00    -0.262 C  
HETATM    8  N   UNL     1     -12.211  14.544  63.960  1.00  0.00    -0.656 NA 
HETATM    9  O   UNL     1     -11.487  16.707  63.995  1.00  0.00    -1.192 OA 
HETATM   10  C   UNL     1     -12.386  13.570  64.879  1.00  0.00    -0.407 C  
BRANCH   5  11
HETATM   11  N   UNL     1      -9.563  15.017  65.757  1.00  0.00    -0.419 N  
HETATM   12  H   UNL     1      -9.114  15.214  64.863  1.00  0.00     0.000 HD 
BRANCH  11  13
HETATM   13  C   UNL     1      -8.803  14.622  66.819  1.00  0.00    -0.241 C  
HETATM   14  O   UNL     1      -8.760  15.223  67.884  1.00  0.00    -0.160 OA 
BRANCH  13  15
HETATM   15  N   UNL     1      -8.158  13.436  66.588  1.00  0.00    -0.297 N  
HETATM   16  H   UNL     1      -7.835  13.206  65.648  1.00  0.00     0.000 HD 
BRANCH  15  17
HETATM   17  C   UNL     1      -7.940  12.518  67.666  1.00  0.00    -0.170 C  
BRANCH  17  18
HETATM   18  N   UNL     1      -9.158  12.200  68.365  1.00  0.00    -0.283 N  
HETATM   19  H   UNL     1      -9.740  12.945  68.749  1.00  0.00     0.000 HD 
BRANCH  18  20
HETATM   20  C   UNL     1      -9.529  10.889  68.509  1.00  0.00    -0.185 C  
HETATM   21  O   UNL     1      -9.475  10.063  67.608  1.00  0.00    -0.143 OA 
BRANCH  20  22
HETATM   22  N   UNL     1      -9.957  10.600  69.783  1.00  0.00    -0.440 N  
HETATM   23  H   UNL     1      -9.333  10.661  70.588  1.00  0.00     0.000 HD 
BRANCH  22  24
HETATM   24  C   UNL     1     -11.334  10.209  69.916  1.00  0.00    -0.275 C  
HETATM   25  N   UNL     1     -11.592   9.031  70.707  1.00  0.00    -0.278 N  
HETATM   26  O   UNL     1     -12.133  12.417  70.753  1.00  0.00    -0.333 OA 
HETATM   27  C   UNL     1     -12.758   9.163  71.433  1.00  0.00    -0.318 C  
HETATM   28  N   UNL     1     -13.143  10.463  71.394  1.00  0.00    -0.406 NA 
HETATM   29  O   UNL     1     -13.333   8.284  72.052  1.00  0.00    -0.330 OA 
HETATM   30  C   UNL     1     -12.215  11.198  70.717  1.00  0.00    -0.385 C  
BRANCH  25  31
HETATM   31  C   UNL     1     -10.902   7.793  70.531  1.00  0.00    -0.241 C  
HETATM   32  H   UNL     1      -9.177   7.070  71.021  1.00  0.00     0.000 HD 
HETATM   33  O   UNL     1      -9.636   7.894  71.138  1.00  0.00    -0.157 OA 
ENDBRANCH  25  31
ENDBRANCH  22  24
ENDBRANCH  20  22
ENDBRANCH  18  20
ENDBRANCH  17  18
ENDBRANCH  15  17
ENDBRANCH  13  15
ENDBRANCH  11  13
ENDBRANCH   5  11
ENDBRANCH   2   4
TORSDOF 10
ENDMDL
MODEL       19
REMARK 921   NORMALIZED FREE ENERGY PREDICTED BY IDOCK:   -6.33 KCAL/MOL
REMARK 922        TOTAL FREE ENERGY PREDICTED BY IDOCK:  -12.03 KCAL/MOL
REMARK 923 INTER-LIGAND FREE ENERGY PREDICTED BY IDOCK:   -9.93 KCAL/MOL
REMARK 924 INTRA-LIGAND FREE ENERGY PREDICTED BY IDOCK:   -2.10 KCAL/MOL
REMARK 927      BINDING AFFINITY PREDICTED BY RF-SCORE:    0.00 PKD
ROOT
HETATM    1  O   UNL     1     -11.663  11.682  67.027  1.00  0.00    -0.564 OA 
HETATM    2  C   UNL     1     -10.677  10.699  66.825  1.00  0.00    -0.210 C  
HETATM    3  H   UNL     1     -12.167  11.460  67.801  1.00  0.00     0.000 HD 
ENDROOT
BRANCH   2   4
HETATM    4  N   UNL     1      -9.918  11.033  65.657  1.00  0.00    -0.235 N  
HETATM    5  C   UNL     1     -10.532  10.993  64.346  1.00  0.00    -0.354 C  
HETATM    6  O   UNL     1      -7.869  10.408  66.560  1.00  0.00    -0.115 OA 
HETATM    7  C   UNL     1      -9.362  10.388  63.536  1.00  0.00    -0.297 C  
HETATM    8  N   UNL     1      -8.248  10.416  64.317  1.00  0.00    -0.151 NA 
HETATM    9  O   UNL     1      -9.372  10.011  62.374  1.00  0.00    -0.287 OA 
HETATM   10  C   UNL     1      -8.594  10.636  65.605  1.00  0.00    -0.182 C  
BRANCH   5  11
HETATM   11  N   UNL     1     -10.823  12.320  63.865  1.00  0.00    -0.373 N  
HETATM   12  H   UNL     1     -10.076  13.012  63.815  1.00  0.00     0.000 HD 
BRANCH  11  13
HETATM   13  C   UNL     1     -12.085  12.664  63.474  1.00  0.00    -0.561 C  
HETATM   14  O   UNL     1     -13.016  11.873  63.414  1.00  0.00    -0.730 OA 
BRANCH  13  15
HETATM   15  N   UNL     1     -12.209  14.008  63.236  1.00  0.00    -1.099 N  
HETATM   16  H   UNL     1     -12.215  14.358  62.278  1.00  0.00     0.000 HD 
BRANCH  15  17
HETATM   17  C   UNL     1     -12.332  14.920  64.334  1.00  0.00    -0.323 C  
BRANCH  17  18
HETATM   18  N   UNL     1     -11.151  15.724  64.506  1.00  0.00    -0.716 N  
HETATM   19  H   UNL     1     -10.996  16.544  63.919  1.00  0.00     0.000 HD 
BRANCH  18  20
HETATM   20  C   UNL     1     -10.235  15.380  65.466  1.00  0.00    -0.382 C  
HETATM   21  O   UNL     1     -10.175  14.272  65.983  1.00  0.00    -0.291 OA 
BRANCH  20  22
HETATM   22  N   UNL     1      -9.383  16.413  65.775  1.00  0.00    -0.211 N  
HETATM   23  H   UNL     1      -8.498  16.547  65.286  1.00  0.00     0.000 HD 
BRANCH  22  24
HETATM   24  C   UNL     1      -9.810  17.295  66.827  1.00  0.00    -0.294 C  
HETATM   25  N   UNL     1      -8.791  17.738  67.746  1.00  0.00    -0.245 N  
HETATM   26  O   UNL     1     -10.880  18.968  65.321  1.00  0.00    -0.540 OA 
HETATM   27  C   UNL     1      -9.002  19.046  68.134  1.00  0.00    -0.314 C  
HETATM   28  N   UNL     1      -9.935  19.591  67.313  1.00  0.00    -0.355 NA 
HETATM   29  O   UNL     1      -8.425  19.643  69.026  1.00  0.00    -0.304 OA 
HETATM   30  C   UNL     1     -10.287  18.690  66.352  1.00  0.00    -0.432 C  
BRANCH  25  31
HETATM   31  C   UNL     1      -7.872  16.857  68.394  1.00  0.00    -0.229 C  
HETATM   32  H   UNL     1      -6.300  15.854  67.883  1.00  0.00     0.000 HD 
HETATM   33  O   UNL     1      -6.912  16.440  67.453  1.00  0.00    -0.133 OA 
ENDBRANCH  25  31
ENDBRANCH  22  24
ENDBRANCH  20  22
ENDBRANCH  18  20
ENDBRANCH  17  18
ENDBRANCH  15  17
ENDBRANCH  13  15
ENDBRANCH  11  13
ENDBRANCH   5  11
ENDBRANCH   2   4
TORSDOF 10
ENDMDL
MODEL       20
REMARK 921   NORMALIZED FREE ENERGY PREDICTED BY IDOCK:   -6.33 KCAL/MOL
REMARK 922        TOTAL FREE ENERGY PREDICTED BY IDOCK:  -12.03 KCAL/MOL
REMARK 923 INTER-LIGAND FREE ENERGY PREDICTED BY IDOCK:   -9.54 KCAL/MOL
REMARK 924 INTRA-LIGAND FREE ENERGY PREDICTED BY IDOCK:   -2.49 KCAL/MOL
REMARK 927      BINDING AFFINITY PREDICTED BY RF-SCORE:    0.00 PKD
ROOT
HETATM    1  O   UNL     1     -12.932  11.671  71.597  1.00  0.00    -0.432 OA 
HETATM    2  C   UNL     1     -13.446  12.918  71.997  1.00  0.00    -0.473 C  
HETATM    3  H   UNL     1     -13.148  11.022  72.255  1.00  0.00     0.000 HD 
ENDROOT
BRANCH   2   4
HETATM    4  N   UNL     1     -13.119  13.897  71.004  1.00  0.00    -0.283 N  
HETATM    5  C   UNL     1     -11.915  13.764  70.210  1.00  0.00    -0.326 C  
HETATM    6  O   UNL     1     -14.236  15.640  72.061  1.00  0.00    -0.491 OA 
HETATM    7  C   UNL     1     -11.471  15.245  70.173  1.00  0.00    -0.292 C  
HETATM    8  N   UNL     1     -12.495  16.006  70.644  1.00  0.00    -0.251 NA 
HETATM    9  O   UNL     1     -10.425  15.701  69.736  1.00  0.00    -0.267 OA 
HETATM   10  C   UNL     1     -13.394  15.225  71.282  1.00  0.00    -0.510 C  
BRANCH   5  11
HETATM   11  N   UNL     1     -12.218  13.313  68.875  1.00  0.00    -0.203 N  
HETATM   12  H   UNL     1     -12.769  13.906  68.256  1.00  0.00     0.000 HD 
BRANCH  11  13
HETATM   13  C   UNL     1     -11.776  12.101  68.427  1.00  0.00    -0.332 C  
HETATM   14  O   UNL     1     -12.159  11.580  67.388  1.00  0.00    -0.593 OA 
BRANCH  13  15
HETATM   15  N   UNL     1     -10.799  11.573  69.229  1.00  0.00    -0.362 N  
HETATM   16  H   UNL     1     -10.926  11.551  70.241  1.00  0.00     0.000 HD 
BRANCH  15  17
HETATM   17  C   UNL     1      -9.598  11.053  68.645  1.00  0.00    -0.195 C  
BRANCH  17  18
HETATM   18  N   UNL     1      -9.239  11.745  67.435  1.00  0.00    -0.171 N  
HETATM   19  H   UNL     1      -9.356  11.291  66.529  1.00  0.00     0.000 HD 
BRANCH  18  20
HETATM   20  C   UNL     1      -8.739  13.018  67.510  1.00  0.00    -0.197 C  
HETATM   21  O   UNL     1      -8.244  13.497  68.522  1.00  0.00    -0.152 OA 
BRANCH  20  22
HETATM   22  N   UNL     1      -8.842  13.695  66.318  1.00  0.00    -0.433 N  
HETATM   23  H   UNL     1      -8.035  13.847  65.712  1.00  0.00     0.000 HD 
BRANCH  22  24
HETATM   24  C   UNL     1     -10.152  14.177  65.973  1.00  0.00    -0.316 C  
HETATM   25  N   UNL     1     -10.245  15.565  65.591  1.00  0.00    -0.346 N  
HETATM   26  O   UNL     1     -10.612  12.426  64.260  1.00  0.00    -0.313 OA 
HETATM   27  C   UNL     1     -11.175  15.745  64.588  1.00  0.00    -0.363 C  
HETATM   28  N   UNL     1     -11.501  14.529  64.082  1.00  0.00    -0.154 NA 
HETATM   29  O   UNL     1     -11.605  16.810  64.178  1.00  0.00    -1.106 OA 
HETATM   30  C   UNL     1     -10.751  13.563  64.685  1.00  0.00    -0.416 C  
BRANCH  25  31
HETATM   31  C   UNL     1      -9.678  16.634  66.350  1.00  0.00    -0.286 C  
HETATM   32  H   UNL     1      -7.900  17.203  66.854  1.00  0.00     0.000 HD 
HETATM   33  O   UNL     1      -8.277  16.492  66.349  1.00  0.00    -0.275 OA 
ENDBRANCH  25  31
ENDBRANCH  22  24
ENDBRANCH  20  22
ENDBRANCH  18  20
ENDBRANCH  17  18
ENDBRANCH  15  17
ENDBRANCH  13  15
ENDBRANCH  11  13
ENDBRANCH   5  11
ENDBRANCH   2   4
TORSDOF 10
ENDMDL
MODEL       21
REMARK 921   NORMALIZED FREE ENERGY PREDICTED BY IDOCK:   -6.33 KCAL/MOL
REMARK 922        TOTAL FREE ENERGY PREDICTED BY IDOCK:  -12.02 KCAL/MOL
REMARK 923 INTER-LIGAND FREE ENERGY PREDICTED BY IDOCK:  -10.01 KCAL/MOL
REMARK 924 INTRA-LIGAND FREE ENERGY PREDICTED BY IDOCK:   -2.01 KCAL/MOL
REMARK 927      BINDING AFFINITY PREDICTED BY RF-SCORE:    0.00 PKD
ROOT
HETATM    1  O   UNL     1     -13.177   8.200  71.293  1.00  0.00    -0.481 OA 
HETATM    2  C   UNL     1     -12.616   9.350  71.880  1.00  0.00    -0.401 C  
HETATM    3  H   UNL     1     -13.745   7.777  71.926  1.00  0.00     0.000 HD 
ENDROOT
BRANCH   2   4
HETATM    4  N   UNL     1     -11.759   9.988  70.927  1.00  0.00    -0.344 N  
HETATM    5  C   UNL     1     -12.281  11.002  70.033  1.00  0.00    -0.343 C  
HETATM    6  O   UNL     1     -10.291   8.196  70.740  1.00  0.00    -0.194 OA 
HETATM    7  C   UNL     1     -11.526  10.614  68.741  1.00  0.00    -0.262 C  
HETATM    8  N   UNL     1     -10.558   9.716  69.069  1.00  0.00    -0.215 NA 
HETATM    9  O   UNL     1     -11.686  11.065  67.617  1.00  0.00    -0.576 OA 
HETATM   10  C   UNL     1     -10.789   9.222  70.305  1.00  0.00    -0.246 C  
BRANCH   5  11
HETATM   11  N   UNL     1     -11.882  12.323  70.452  1.00  0.00    -0.532 N  
HETATM   12  H   UNL     1     -10.936  12.647  70.258  1.00  0.00     0.000 HD 
BRANCH  11  13
HETATM   13  C   UNL     1     -12.755  13.144  71.105  1.00  0.00    -0.300 C  
HETATM   14  O   UNL     1     -13.204  12.910  72.219  1.00  0.00    -0.476 OA 
BRANCH  13  15
HETATM   15  N   UNL     1     -13.008  14.297  70.409  1.00  0.00    -0.419 N  
HETATM   16  H   UNL     1     -13.148  14.262  69.399  1.00  0.00     0.000 HD 
BRANCH  15  17
HETATM   17  C   UNL     1     -13.074  15.550  71.100  1.00  0.00    -0.507 C  
BRANCH  17  18
HETATM   18  N   UNL     1     -11.784  16.179  71.209  1.00  0.00    -0.559 N  
HETATM   19  H   UNL     1     -11.531  16.692  72.054  1.00  0.00     0.000 HD 
BRANCH  18  20
HETATM   20  C   UNL     1     -10.898  16.084  70.168  1.00  0.00    -0.346 C  
HETATM   21  O   UNL     1      -9.878  15.409  70.201  1.00  0.00    -0.221 OA 
BRANCH  20  22
HETATM   22  N   UNL     1     -11.289  16.822  69.075  1.00  0.00    -0.204 N  
HETATM   23  H   UNL     1     -12.151  17.367  69.073  1.00  0.00     0.000 HD 
BRANCH  22  24
HETATM   24  C   UNL     1     -10.412  16.781  67.936  1.00  0.00    -0.335 C  
HETATM   25  N   UNL     1     -10.732  15.813  66.916  1.00  0.00    -0.315 N  
HETATM   26  O   UNL     1     -10.606  19.206  67.395  1.00  0.00    -0.433 OA 
HETATM   27  C   UNL     1     -10.462  16.309  65.656  1.00  0.00    -0.368 C  
HETATM   28  N   UNL     1     -10.251  17.645  65.757  1.00  0.00    -0.597 NA 
HETATM   29  O   UNL     1     -10.458  15.679  64.613  1.00  0.00    -0.398 OA 
HETATM   30  C   UNL     1     -10.447  18.047  67.045  1.00  0.00    -0.351 C  
BRANCH  25  31
HETATM   31  C   UNL     1     -11.002  14.437  67.187  1.00  0.00    -0.303 C  
HETATM   32  H   UNL     1     -12.552  13.381  67.656  1.00  0.00     0.000 HD 
HETATM   33  O   UNL     1     -12.372  14.296  67.475  1.00  0.00    -0.287 OA 
ENDBRANCH  25  31
ENDBRANCH  22  24
ENDBRANCH  20  22
ENDBRANCH  18  20
ENDBRANCH  17  18
ENDBRANCH  15  17
ENDBRANCH  13  15
ENDBRANCH  11  13
ENDBRANCH   5  11
ENDBRANCH   2   4
TORSDOF 10
ENDMDL
MODEL       22
REMARK 921   NORMALIZED FREE ENERGY PREDICTED BY IDOCK:   -6.32 KCAL/MOL
REMARK 922        TOTAL FREE ENERGY PREDICTED BY IDOCK:  -12.01 KCAL/MOL
REMARK 923 INTER-LIGAND FREE ENERGY PREDICTED BY IDOCK:   -9.59 KCAL/MOL
REMARK 924 INTRA-LIGAND FREE ENERGY PREDICTED BY IDOCK:   -2.41 KCAL/MOL
REMARK 927      BINDING AFFINITY PREDICTED BY RF-SCORE:    0.00 PKD
ROOT
HETATM    1  O   UNL     1     -11.375  11.633  70.053  1.00  0.00    -0.466 OA 
HETATM    2  C   UNL     1     -12.312  12.203  70.935  1.00  0.00    -0.273 C  
HETATM    3  H   UNL     1     -11.265  10.715  70.271  1.00  0.00     0.000 HD 
ENDROOT
BRANCH   2   4
HETATM    4  N   UNL     1     -12.479  13.587  70.607  1.00  0.00    -0.349 N  
HETATM    5  C   UNL     1     -11.632  14.213  69.612  1.00  0.00    -0.292 C  
HETATM    6  O   UNL     1     -13.336  14.187  72.683  1.00  0.00    -0.480 OA 
HETATM    7  C   UNL     1     -11.405  15.580  70.296  1.00  0.00    -0.332 C  
HETATM    8  N   UNL     1     -12.273  15.682  71.339  1.00  0.00    -0.382 NA 
HETATM    9  O   UNL     1     -10.646  16.473  69.950  1.00  0.00    -0.294 OA 
HETATM   10  C   UNL     1     -12.787  14.467  71.630  1.00  0.00    -0.338 C  
BRANCH   5  11
HETATM   11  N   UNL     1     -12.339  14.401  68.370  1.00  0.00    -0.599 N  
HETATM   12  H   UNL     1     -13.151  15.017  68.341  1.00  0.00     0.000 HD 
BRANCH  11  13
HETATM   13  C   UNL     1     -11.938  13.765  67.231  1.00  0.00    -0.401 C  
HETATM   14  O   UNL     1     -12.483  13.907  66.145  1.00  0.00    -0.459 OA 
BRANCH  13  15
HETATM   15  N   UNL     1     -10.807  13.015  67.423  1.00  0.00    -0.248 N  
HETATM   16  H   UNL     1     -10.638  12.570  68.325  1.00  0.00     0.000 HD 
BRANCH  15  17
HETATM   17  C   UNL     1      -9.864  12.857  66.357  1.00  0.00    -0.268 C  
BRANCH  17  18
HETATM   18  N   UNL     1      -9.318  14.117  65.923  1.00  0.00    -0.523 N  
HETATM   19  H   UNL     1      -9.462  14.437  64.965  1.00  0.00     0.000 HD 
BRANCH  18  20
HETATM   20  C   UNL     1      -8.605  14.882  66.807  1.00  0.00    -0.222 C  
HETATM   21  O   UNL     1      -8.199  14.475  67.887  1.00  0.00    -0.134 OA 
BRANCH  20  22
HETATM   22  N   UNL     1      -8.384  16.157  66.341  1.00  0.00    -0.312 N  
HETATM   23  H   UNL     1      -7.570  16.389  65.772  1.00  0.00     0.000 HD 
BRANCH  22  24
HETATM   24  C   UNL     1      -9.365  17.143  66.701  1.00  0.00    -0.260 C  
HETATM   25  N   UNL     1      -8.884  18.491  66.883  1.00  0.00    -0.275 N  
HETATM   26  O   UNL     1     -10.902  16.663  64.799  1.00  0.00    -0.732 OA 
HETATM   27  C   UNL     1      -9.803  19.415  66.430  1.00  0.00    -0.396 C  
HETATM   28  N   UNL     1     -10.743  18.763  65.700  1.00  0.00    -0.503 NA 
HETATM   29  O   UNL     1      -9.768  20.621  66.604  1.00  0.00    -0.336 OA 
HETATM   30  C   UNL     1     -10.418  17.442  65.606  1.00  0.00    -0.165 C  
BRANCH  25  31
HETATM   31  C   UNL     1      -7.753  18.825  67.690  1.00  0.00    -0.235 C  
HETATM   32  H   UNL     1      -7.447  19.318  69.535  1.00  0.00     0.000 HD 
HETATM   33  O   UNL     1      -8.199  19.095  68.998  1.00  0.00    -0.321 OA 
ENDBRANCH  25  31
ENDBRANCH  22  24
ENDBRANCH  20  22
ENDBRANCH  18  20
ENDBRANCH  17  18
ENDBRANCH  15  17
ENDBRANCH  13  15
ENDBRANCH  11  13
ENDBRANCH   5  11
ENDBRANCH   2   4
TORSDOF 10
ENDMDL
MODEL       23
REMARK 921   NORMALIZED FREE ENERGY PREDICTED BY IDOCK:   -6.31 KCAL/MOL
REMARK 922        TOTAL FREE ENERGY PREDICTED BY IDOCK:  -12.00 KCAL/MOL
REMARK 923 INTER-LIGAND FREE ENERGY PREDICTED BY IDOCK:  -10.40 KCAL/MOL
REMARK 924 INTRA-LIGAND FREE ENERGY PREDICTED BY IDOCK:   -1.59 KCAL/MOL
REMARK 927      BINDING AFFINITY PREDICTED BY RF-SCORE:    0.00 PKD
ROOT
HETATM    1  O   UNL     1     -12.279   6.655  70.571  1.00  0.00    -0.494 OA 
HETATM    2  C   UNL     1     -11.904   6.271  71.872  1.00  0.00    -0.305 C  
HETATM    3  H   UNL     1     -12.773   5.948  70.171  1.00  0.00     0.000 HD 
ENDROOT
BRANCH   2   4
HETATM    4  N   UNL     1     -11.159   7.336  72.475  1.00  0.00    -0.274 N  
HETATM    5  C   UNL     1     -10.606   8.398  71.659  1.00  0.00    -0.258 C  
HETATM    6  O   UNL     1     -10.434   6.076  74.288  1.00  0.00    -0.280 OA 
HETATM    7  C   UNL     1      -9.242   8.576  72.365  1.00  0.00    -0.258 C  
HETATM    8  N   UNL     1      -9.278   7.885  73.536  1.00  0.00    -0.280 NA 
HETATM    9  O   UNL     1      -8.300   9.267  72.008  1.00  0.00    -0.238 OA 
HETATM   10  C   UNL     1     -10.323   7.029  73.534  1.00  0.00    -0.356 C  
BRANCH   5  11
HETATM   11  N   UNL     1     -11.381   9.608  71.783  1.00  0.00    -0.271 N  
HETATM   12  H   UNL     1     -11.452  10.069  72.690  1.00  0.00     0.000 HD 
BRANCH  11  13
HETATM   13  C   UNL     1     -12.020  10.145  70.704  1.00  0.00    -0.332 C  
HETATM   14  O   UNL     1     -12.994  10.881  70.788  1.00  0.00    -0.314 OA 
BRANCH  13  15
HETATM   15  N   UNL     1     -11.402   9.832  69.522  1.00  0.00    -0.419 N  
HETATM   16  H   UNL     1     -11.106   8.874  69.339  1.00  0.00     0.000 HD 
BRANCH  15  17
HETATM   17  C   UNL     1     -11.171  10.853  68.544  1.00  0.00    -0.274 C  
BRANCH  17  18
HETATM   18  N   UNL     1     -11.024  12.155  69.141  1.00  0.00    -0.371 N  
HETATM   19  H   UNL     1     -10.498  12.268  70.008  1.00  0.00     0.000 HD 
BRANCH  18  20
HETATM   20  C   UNL     1     -11.597  13.242  68.535  1.00  0.00    -0.333 C  
HETATM   21  O   UNL     1     -12.338  14.030  69.108  1.00  0.00    -0.313 OA 
BRANCH  20  22
HETATM   22  N   UNL     1     -11.238  13.358  67.213  1.00  0.00    -0.285 N  
HETATM   23  H   UNL     1     -10.473  12.815  66.813  1.00  0.00     0.000 HD 
BRANCH  22  24
HETATM   24  C   UNL     1     -12.003  14.287  66.426  1.00  0.00    -0.419 C  
HETATM   25  N   UNL     1     -11.271  15.376  65.829  1.00  0.00    -0.255 N  
HETATM   26  O   UNL     1     -13.021  12.565  64.939  1.00  0.00    -0.821 OA 
HETATM   27  C   UNL     1     -11.768  15.686  64.579  1.00  0.00    -0.220 C  
HETATM   28  N   UNL     1     -12.600  14.688  64.189  1.00  0.00    -0.790 NA 
HETATM   29  O   UNL     1     -11.483  16.661  63.905  1.00  0.00    -1.186 OA 
HETATM   30  C   UNL     1     -12.602  13.697  65.126  1.00  0.00    -0.430 C  
BRANCH  25  31
HETATM   31  C   UNL     1     -10.362  16.209  66.551  1.00  0.00    -0.308 C  
HETATM   32  H   UNL     1     -10.391  17.202  68.210  1.00  0.00     0.000 HD 
HETATM   33  O   UNL     1     -10.995  16.648  67.729  1.00  0.00    -0.320 OA 
ENDBRANCH  25  31
ENDBRANCH  22  24
ENDBRANCH  20  22
ENDBRANCH  18  20
ENDBRANCH  17  18
ENDBRANCH  15  17
ENDBRANCH  13  15
ENDBRANCH  11  13
ENDBRANCH   5  11
ENDBRANCH   2   4
TORSDOF 10
ENDMDL
MODEL       24
REMARK 921   NORMALIZED FREE ENERGY PREDICTED BY IDOCK:   -6.29 KCAL/MOL
REMARK 922        TOTAL FREE ENERGY PREDICTED BY IDOCK:  -11.97 KCAL/MOL
REMARK 923 INTER-LIGAND FREE ENERGY PREDICTED BY IDOCK:  -10.08 KCAL/MOL
REMARK 924 INTRA-LIGAND FREE ENERGY PREDICTED BY IDOCK:   -1.89 KCAL/MOL
REMARK 927      BINDING AFFINITY PREDICTED BY RF-SCORE:    0.00 PKD
ROOT
HETATM    1  O   UNL     1     -11.299  11.125  63.107  1.00  0.00    -0.808 OA 
HETATM    2  C   UNL     1     -10.307  12.091  63.359  1.00  0.00    -0.434 C  
HETATM    3  H   UNL     1     -10.932  10.441  62.560  1.00  0.00     0.000 HD 
ENDROOT
BRANCH   2   4
HETATM    4  N   UNL     1     -10.860  13.123  64.183  1.00  0.00    -0.400 N  
HETATM    5  C   UNL     1     -10.546  13.182  65.596  1.00  0.00    -0.277 C  
HETATM    6  O   UNL     1     -12.765  13.422  62.884  1.00  0.00    -0.535 OA 
HETATM    7  C   UNL     1     -11.935  13.576  66.149  1.00  0.00    -0.412 C  
HETATM    8  N   UNL     1     -12.722  13.937  65.099  1.00  0.00    -0.689 NA 
HETATM    9  O   UNL     1     -12.285  13.639  67.318  1.00  0.00    -0.366 OA 
HETATM   10  C   UNL     1     -12.163  13.523  63.941  1.00  0.00    -0.399 C  
BRANCH   5  11
HETATM   11  N   UNL     1      -9.596  14.229  65.876  1.00  0.00    -0.488 N  
HETATM   12  H   UNL     1      -9.501  15.009  65.227  1.00  0.00     0.000 HD 
BRANCH  11  13
HETATM   13  C   UNL     1      -8.820  14.191  66.999  1.00  0.00    -0.221 C  
HETATM   14  O   UNL     1      -8.890  15.014  67.901  1.00  0.00    -0.165 OA 
BRANCH  13  15
HETATM   15  N   UNL     1      -8.013  13.084  67.038  1.00  0.00    -0.389 N  
HETATM   16  H   UNL     1      -7.441  12.842  66.230  1.00  0.00     0.000 HD 
BRANCH  15  17
HETATM   17  C   UNL     1      -7.976  12.268  68.215  1.00  0.00    -0.163 C  
BRANCH  17  18
HETATM   18  N   UNL     1      -9.278  12.108  68.807  1.00  0.00    -0.398 N  
HETATM   19  H   UNL     1      -9.723  12.889  69.290  1.00  0.00     0.000 HD 
BRANCH  18  20
HETATM   20  C   UNL     1      -9.915  10.899  68.717  1.00  0.00    -0.195 C  
HETATM   21  O   UNL     1     -10.182  10.346  67.658  1.00  0.00    -0.182 OA 
BRANCH  20  22
HETATM   22  N   UNL     1     -10.210  10.366  69.950  1.00  0.00    -0.415 N  
HETATM   23  H   UNL     1      -9.481  10.120  70.620  1.00  0.00     0.000 HD 
BRANCH  22  24
HETATM   24  C   UNL     1     -11.605  10.176  70.241  1.00  0.00    -0.302 C  
HETATM   25  N   UNL     1     -11.918   9.251  71.303  1.00  0.00    -0.319 N  
HETATM   26  O   UNL     1     -12.117  12.594  70.565  1.00  0.00    -0.363 OA 
HETATM   27  C   UNL     1     -13.008   9.680  72.034  1.00  0.00    -0.428 C  
HETATM   28  N   UNL     1     -13.264  10.971  71.704  1.00  0.00    -0.401 NA 
HETATM   29  O   UNL     1     -13.618   9.040  72.872  1.00  0.00    -0.356 OA 
HETATM   30  C   UNL     1     -12.321  11.418  70.826  1.00  0.00    -0.386 C  
BRANCH  25  31
HETATM   31  C   UNL     1     -11.370   7.936  71.394  1.00  0.00    -0.252 C  
HETATM   32  H   UNL     1     -11.769   6.198  70.645  1.00  0.00     0.000 HD 
HETATM   33  O   UNL     1     -12.134   7.074  70.585  1.00  0.00    -0.341 OA 
ENDBRANCH  25  31
ENDBRANCH  22  24
ENDBRANCH  20  22
ENDBRANCH  18  20
ENDBRANCH  17  18
ENDBRANCH  15  17
ENDBRANCH  13  15
ENDBRANCH  11  13
ENDBRANCH   5  11
ENDBRANCH   2   4
TORSDOF 10
ENDMDL
MODEL       25
REMARK 921   NORMALIZED FREE ENERGY PREDICTED BY IDOCK:   -6.28 KCAL/MOL
REMARK 922        TOTAL FREE ENERGY PREDICTED BY IDOCK:  -11.95 KCAL/MOL
REMARK 923 INTER-LIGAND FREE ENERGY PREDICTED BY IDOCK:   -9.66 KCAL/MOL
REMARK 924 INTRA-LIGAND FREE ENERGY PREDICTED BY IDOCK:   -2.29 KCAL/MOL
REMARK 927      BINDING AFFINITY PREDICTED BY RF-SCORE:    0.00 PKD
ROOT
HETATM    1  O   UNL     1     -11.387  15.658  64.311  1.00  0.00    -0.731 OA 
HETATM    2  C   UNL     1     -12.330  14.633  64.510  1.00  0.00    -0.398 C  
HETATM    3  H   UNL     1     -11.844  16.487  64.227  1.00  0.00     0.000 HD 
ENDROOT
BRANCH   2   4
HETATM    4  N   UNL     1     -11.641  13.384  64.636  1.00  0.00    -0.340 N  
HETATM    5  C   UNL     1     -10.203  13.319  64.472  1.00  0.00    -0.310 C  
HETATM    6  O   UNL     1     -13.454  12.084  63.983  1.00  0.00    -0.655 OA 
HETATM    7  C   UNL     1     -10.097  11.993  63.685  1.00  0.00    -0.415 C  
HETATM    8  N   UNL     1     -11.308  11.375  63.731  1.00  0.00    -0.326 NA 
HETATM    9  O   UNL     1      -9.103  11.510  63.163  1.00  0.00    -0.204 OA 
HETATM   10  C   UNL     1     -12.255  12.247  64.140  1.00  0.00    -0.446 C  
BRANCH   5  11
HETATM   11  N   UNL     1      -9.539  13.185  65.744  1.00  0.00    -0.478 N  
HETATM   12  H   UNL     1      -9.260  12.260  66.071  1.00  0.00     0.000 HD 
BRANCH  11  13
HETATM   13  C   UNL     1      -9.277  14.279  66.518  1.00  0.00    -0.235 C  
HETATM   14  O   UNL     1      -9.180  15.415  66.076  1.00  0.00    -0.316 OA 
BRANCH  13  15
HETATM   15  N   UNL     1      -9.217  13.972  67.852  1.00  0.00    -0.188 N  
HETATM   16  H   UNL     1      -9.038  14.707  68.536  1.00  0.00     0.000 HD 
BRANCH  15  17
HETATM   17  C   UNL     1      -9.405  12.619  68.284  1.00  0.00    -0.195 C  
BRANCH  17  18
HETATM   18  N   UNL     1     -10.526  12.485  69.177  1.00  0.00    -0.434 N  
HETATM   19  H   UNL     1     -10.374  12.296  70.168  1.00  0.00     0.000 HD 
BRANCH  18  20
HETATM   20  C   UNL     1     -11.798  12.612  68.685  1.00  0.00    -0.302 C  
HETATM   21  O   UNL     1     -12.217  11.999  67.712  1.00  0.00    -0.474 OA 
BRANCH  20  22
HETATM   22  N   UNL     1     -12.559  13.495  69.415  1.00  0.00    -0.073 N  
HETATM   23  H   UNL     1     -13.414  13.906  69.041  1.00  0.00     0.000 HD 
BRANCH  22  24
HETATM   24  C   UNL     1     -12.079  13.806  70.734  1.00  0.00    -0.319 C  
HETATM   25  N   UNL     1     -11.975  15.206  71.065  1.00  0.00    -0.304 N  
HETATM   26  O   UNL     1     -13.755  12.408  71.937  1.00  0.00    -0.240 OA 
HETATM   27  C   UNL     1     -12.309  15.433  72.385  1.00  0.00    -0.381 C  
HETATM   28  N   UNL     1     -12.902  14.315  72.876  1.00  0.00    -0.420 NA 
HETATM   29  O   UNL     1     -12.153  16.469  73.007  1.00  0.00    -0.513 OA 
HETATM   30  C   UNL     1     -13.026  13.387  71.885  1.00  0.00    -0.326 C  
BRANCH  25  31
HETATM   31  C   UNL     1     -11.329  16.170  70.233  1.00  0.00    -0.353 C  
HETATM   32  H   UNL     1      -9.607  16.347  69.372  1.00  0.00     0.000 HD 
HETATM   33  O   UNL     1     -10.037  15.705  69.926  1.00  0.00    -0.283 OA 
ENDBRANCH  25  31
ENDBRANCH  22  24
ENDBRANCH  20  22
ENDBRANCH  18  20
ENDBRANCH  17  18
ENDBRANCH  15  17
ENDBRANCH  13  15
ENDBRANCH  11  13
ENDBRANCH   5  11
ENDBRANCH   2   4
TORSDOF 10
ENDMDL
MODEL       26
REMARK 921   NORMALIZED FREE ENERGY PREDICTED BY IDOCK:   -6.28 KCAL/MOL
REMARK 922        TOTAL FREE ENERGY PREDICTED BY IDOCK:  -11.94 KCAL/MOL
REMARK 923 INTER-LIGAND FREE ENERGY PREDICTED BY IDOCK:   -9.80 KCAL/MOL
REMARK 924 INTRA-LIGAND FREE ENERGY PREDICTED BY IDOCK:   -2.14 KCAL/MOL
REMARK 927      BINDING AFFINITY PREDICTED BY RF-SCORE:    0.00 PKD
ROOT
HETATM    1  O   UNL     1      -9.027  14.033  66.271  1.00  0.00    -0.478 OA 
HETATM    2  C   UNL     1      -9.740  15.042  65.597  1.00  0.00    -0.309 C  
HETATM    3  H   UNL     1      -8.152  14.348  66.463  1.00  0.00     0.000 HD 
ENDROOT
BRANCH   2   4
HETATM    4  N   UNL     1     -11.059  14.566  65.307  1.00  0.00    -0.334 N  
HETATM    5  C   UNL     1     -11.370  13.155  65.412  1.00  0.00    -0.297 C  
HETATM    6  O   UNL     1     -11.573  16.281  63.825  1.00  0.00    -0.952 OA 
HETATM    7  C   UNL     1     -12.278  13.002  64.170  1.00  0.00    -0.401 C  
HETATM    8  N   UNL     1     -12.584  14.246  63.713  1.00  0.00    -0.782 NA 
HETATM    9  O   UNL     1     -12.728  11.970  63.695  1.00  0.00    -0.647 OA 
HETATM   10  C   UNL     1     -11.751  15.157  64.264  1.00  0.00    -0.224 C  
BRANCH   5  11
HETATM   11  N   UNL     1     -12.127  12.875  66.607  1.00  0.00    -0.358 N  
HETATM   12  H   UNL     1     -13.140  12.988  66.598  1.00  0.00     0.000 HD 
BRANCH  11  13
HETATM   13  C   UNL     1     -11.506  12.461  67.750  1.00  0.00    -0.324 C  
HETATM   14  O   UNL     1     -10.855  13.200  68.475  1.00  0.00    -0.246 OA 
BRANCH  13  15
HETATM   15  N   UNL     1     -11.761  11.145  68.034  1.00  0.00    -0.260 N  
HETATM   16  H   UNL     1     -12.656  10.731  67.773  1.00  0.00     0.000 HD 
BRANCH  15  17
HETATM   17  C   UNL     1     -10.771  10.353  68.701  1.00  0.00    -0.218 C  
BRANCH  17  18
HETATM   18  N   UNL     1     -10.758  10.581  70.122  1.00  0.00    -0.447 N  
HETATM   19  H   UNL     1      -9.901  10.880  70.588  1.00  0.00     0.000 HD 
BRANCH  18  20
HETATM   20  C   UNL     1     -11.908  10.395  70.844  1.00  0.00    -0.377 C  
HETATM   21  O   UNL     1     -12.984  10.899  70.553  1.00  0.00    -0.259 OA 
BRANCH  20  22
HETATM   22  N   UNL     1     -11.720   9.569  71.927  1.00  0.00    -0.334 N  
HETATM   23  H   UNL     1     -11.837   9.900  72.885  1.00  0.00     0.000 HD 
BRANCH  22  24
HETATM   24  C   UNL     1     -11.351   8.211  71.632  1.00  0.00    -0.264 C  
HETATM   25  N   UNL     1     -10.428   7.585  72.547  1.00  0.00    -0.228 N  
HETATM   26  O   UNL     1     -13.685   7.347  71.501  1.00  0.00    -0.385 OA 
HETATM   27  C   UNL     1     -10.728   6.249  72.722  1.00  0.00    -0.242 C  
HETATM   28  N   UNL     1     -11.960   6.014  72.204  1.00  0.00    -0.276 NA 
HETATM   29  O   UNL     1     -10.040   5.417  73.287  1.00  0.00    -0.165 OA 
HETATM   30  C   UNL     1     -12.502   7.183  71.757  1.00  0.00    -0.350 C  
BRANCH  25  31
HETATM   31  C   UNL     1      -9.204   8.186  72.972  1.00  0.00    -0.273 C  
HETATM   32  H   UNL     1      -7.950   9.468  72.250  1.00  0.00     0.000 HD 
HETATM   33  O   UNL     1      -8.764   9.068  71.968  1.00  0.00    -0.367 OA 
ENDBRANCH  25  31
ENDBRANCH  22  24
ENDBRANCH  20  22
ENDBRANCH  18  20
ENDBRANCH  17  18
ENDBRANCH  15  17
ENDBRANCH  13  15
ENDBRANCH  11  13
ENDBRANCH   5  11
ENDBRANCH   2   4
TORSDOF 10
ENDMDL
MODEL       27
REMARK 921   NORMALIZED FREE ENERGY PREDICTED BY IDOCK:   -6.26 KCAL/MOL
REMARK 922        TOTAL FREE ENERGY PREDICTED BY IDOCK:  -11.91 KCAL/MOL
REMARK 923 INTER-LIGAND FREE ENERGY PREDICTED BY IDOCK:  -10.24 KCAL/MOL
REMARK 924 INTRA-LIGAND FREE ENERGY PREDICTED BY IDOCK:   -1.67 KCAL/MOL
REMARK 927      BINDING AFFINITY PREDICTED BY RF-SCORE:    0.00 PKD
ROOT
HETATM    1  O   UNL     1     -13.746   8.656  71.493  1.00  0.00    -0.418 OA 
HETATM    2  C   UNL     1     -12.945   9.615  72.140  1.00  0.00    -0.406 C  
HETATM    3  H   UNL     1     -14.294   8.225  72.138  1.00  0.00     0.000 HD 
ENDROOT
BRANCH   2   4
HETATM    4  N   UNL     1     -12.119  10.265  71.167  1.00  0.00    -0.371 N  
HETATM    5  C   UNL     1     -12.630  11.380  70.397  1.00  0.00    -0.185 C  
HETATM    6  O   UNL     1     -10.813   8.393  70.726  1.00  0.00    -0.215 OA 
HETATM    7  C   UNL     1     -12.012  11.043  69.021  1.00  0.00    -0.293 C  
HETATM    8  N   UNL     1     -11.093  10.056  69.200  1.00  0.00    -0.215 NA 
HETATM    9  O   UNL     1     -12.224  11.593  67.951  1.00  0.00    -0.560 OA 
HETATM   10  C   UNL     1     -11.263   9.483  70.412  1.00  0.00    -0.270 C  
BRANCH   5  11
HETATM   11  N   UNL     1     -12.099  12.632  70.877  1.00  0.00    -0.445 N  
HETATM   12  H   UNL     1     -11.095  12.804  70.827  1.00  0.00     0.000 HD 
BRANCH  11  13
HETATM   13  C   UNL     1     -12.921  13.590  71.396  1.00  0.00    -0.339 C  
HETATM   14  O   UNL     1     -13.403  13.535  72.519  1.00  0.00    -0.522 OA 
BRANCH  13  15
HETATM   15  N   UNL     1     -13.080  14.656  70.550  1.00  0.00    -0.551 N  
HETATM   16  H   UNL     1     -14.011  14.914  70.224  1.00  0.00     0.000 HD 
BRANCH  15  17
HETATM   17  C   UNL     1     -11.937  15.407  70.124  1.00  0.00    -0.349 C  
BRANCH  17  18
HETATM   18  N   UNL     1     -11.867  15.524  68.691  1.00  0.00    -0.510 N  
HETATM   19  H   UNL     1     -12.457  14.940  68.098  1.00  0.00     0.000 HD 
BRANCH  18  20
HETATM   20  C   UNL     1     -11.001  16.426  68.131  1.00  0.00    -0.339 C  
HETATM   21  O   UNL     1     -10.653  17.465  68.675  1.00  0.00    -0.357 OA 
BRANCH  20  22
HETATM   22  N   UNL     1     -10.555  16.027  66.893  1.00  0.00    -0.314 N  
HETATM   23  H   UNL     1      -9.945  16.615  66.325  1.00  0.00     0.000 HD 
BRANCH  22  24
HETATM   24  C   UNL     1     -10.997  14.735  66.445  1.00  0.00    -0.331 C  
HETATM   25  N   UNL     1     -11.253  14.599  65.032  1.00  0.00    -0.365 N  
HETATM   26  O   UNL     1      -9.100  13.468  67.449  1.00  0.00    -0.199 OA 
HETATM   27  C   UNL     1     -10.879  13.352  64.574  1.00  0.00    -0.406 C  
HETATM   28  N   UNL     1     -10.129  12.751  65.531  1.00  0.00    -0.279 NA 
HETATM   29  O   UNL     1     -11.127  12.874  63.480  1.00  0.00    -0.398 OA 
HETATM   30  C   UNL     1      -9.945  13.607  66.577  1.00  0.00    -0.288 C  
BRANCH  25  31
HETATM   31  C   UNL     1     -12.056  15.512  64.282  1.00  0.00    -0.116 C  
HETATM   32  H   UNL     1     -11.907  17.348  63.692  1.00  0.00     0.000 HD 
HETATM   33  O   UNL     1     -11.374  16.740  64.191  1.00  0.00    -1.194 OA 
ENDBRANCH  25  31
ENDBRANCH  22  24
ENDBRANCH  20  22
ENDBRANCH  18  20
ENDBRANCH  17  18
ENDBRANCH  15  17
ENDBRANCH  13  15
ENDBRANCH  11  13
ENDBRANCH   5  11
ENDBRANCH   2   4
TORSDOF 10
ENDMDL
MODEL       28
REMARK 921   NORMALIZED FREE ENERGY PREDICTED BY IDOCK:   -6.24 KCAL/MOL
REMARK 922        TOTAL FREE ENERGY PREDICTED BY IDOCK:  -11.89 KCAL/MOL
REMARK 923 INTER-LIGAND FREE ENERGY PREDICTED BY IDOCK:   -9.53 KCAL/MOL
REMARK 924 INTRA-LIGAND FREE ENERGY PREDICTED BY IDOCK:   -2.37 KCAL/MOL
REMARK 927      BINDING AFFINITY PREDICTED BY RF-SCORE:    0.00 PKD
ROOT
HETATM    1  O   UNL     1     -12.092  14.878  63.756  1.00  0.00    -0.905 OA 
HETATM    2  C   UNL     1     -12.467  14.419  65.033  1.00  0.00    -0.359 C  
HETATM    3  H   UNL     1     -12.391  15.773  63.650  1.00  0.00     0.000 HD 
ENDROOT
BRANCH   2   4
HETATM    4  N   UNL     1     -12.017  13.069  65.194  1.00  0.00    -0.375 N  
HETATM    5  C   UNL     1     -10.807  12.782  65.939  1.00  0.00    -0.269 C  
HETATM    6  O   UNL     1     -12.989  12.295  63.230  1.00  0.00    -0.707 OA 
HETATM    7  C   UNL     1     -10.220  11.664  65.048  1.00  0.00    -0.275 C  
HETATM    8  N   UNL     1     -11.178  11.281  64.162  1.00  0.00    -0.258 NA 
HETATM    9  O   UNL     1      -9.122  11.135  65.137  1.00  0.00    -0.202 OA 
HETATM   10  C   UNL     1     -12.168  12.200  64.128  1.00  0.00    -0.413 C  
BRANCH   5  11
HETATM   11  N   UNL     1     -11.113  12.254  67.245  1.00  0.00    -0.259 N  
HETATM   12  H   UNL     1     -11.973  11.726  67.386  1.00  0.00     0.000 HD 
BRANCH  11  13
HETATM   13  C   UNL     1     -10.265  12.452  68.297  1.00  0.00    -0.229 C  
HETATM   14  O   UNL     1      -9.197  11.870  68.427  1.00  0.00    -0.191 OA 
BRANCH  13  15
HETATM   15  N   UNL     1     -10.708  13.431  69.147  1.00  0.00    -0.428 N  
HETATM   16  H   UNL     1     -10.042  13.943  69.726  1.00  0.00     0.000 HD 
BRANCH  15  17
HETATM   17  C   UNL     1     -12.106  13.736  69.221  1.00  0.00    -0.329 C  
BRANCH  17  18
HETATM   18  N   UNL     1     -12.389  15.089  68.822  1.00  0.00    -0.598 N  
HETATM   19  H   UNL     1     -13.312  15.338  68.465  1.00  0.00     0.000 HD 
BRANCH  18  20
HETATM   20  C   UNL     1     -11.409  16.041  68.926  1.00  0.00    -0.370 C  
HETATM   21  O   UNL     1     -10.931  16.413  69.990  1.00  0.00    -0.354 OA 
BRANCH  20  22
HETATM   22  N   UNL     1     -11.012  16.524  67.701  1.00  0.00    -0.262 N  
HETATM   23  H   UNL     1     -11.512  16.292  66.843  1.00  0.00     0.000 HD 
BRANCH  22  24
HETATM   24  C   UNL     1      -9.853  17.374  67.700  1.00  0.00    -0.282 C  
HETATM   25  N   UNL     1      -8.788  17.004  66.800  1.00  0.00    -0.230 N  
HETATM   26  O   UNL     1     -11.103  19.488  67.277  1.00  0.00    -0.444 OA 
HETATM   27  C   UNL     1      -8.182  18.119  66.258  1.00  0.00    -0.212 C  
HETATM   28  N   UNL     1      -8.960  19.200  66.520  1.00  0.00    -0.331 NA 
HETATM   29  O   UNL     1      -7.151  18.144  65.609  1.00  0.00    -0.488 OA 
HETATM   30  C   UNL     1     -10.097  18.804  67.160  1.00  0.00    -0.354 C  
BRANCH  25  31
HETATM   31  C   UNL     1      -8.243  15.686  66.718  1.00  0.00    -0.265 C  
HETATM   32  H   UNL     1      -7.807  14.272  67.962  1.00  0.00     0.000 HD 
HETATM   33  O   UNL     1      -8.169  15.149  68.016  1.00  0.00    -0.135 OA 
ENDBRANCH  25  31
ENDBRANCH  22  24
ENDBRANCH  20  22
ENDBRANCH  18  20
ENDBRANCH  17  18
ENDBRANCH  15  17
ENDBRANCH  13  15
ENDBRANCH  11  13
ENDBRANCH   5  11
ENDBRANCH   2   4
TORSDOF 10
ENDMDL
MODEL       29
REMARK 921   NORMALIZED FREE ENERGY PREDICTED BY IDOCK:   -6.23 KCAL/MOL
REMARK 922        TOTAL FREE ENERGY PREDICTED BY IDOCK:  -11.87 KCAL/MOL
REMARK 923 INTER-LIGAND FREE ENERGY PREDICTED BY IDOCK:  -10.09 KCAL/MOL
REMARK 924 INTRA-LIGAND FREE ENERGY PREDICTED BY IDOCK:   -1.78 KCAL/MOL
REMARK 927      BINDING AFFINITY PREDICTED BY RF-SCORE:    0.00 PKD
ROOT
HETATM    1  O   UNL     1     -13.000  12.633  64.178  1.00  0.00    -0.717 OA 
HETATM    2  C   UNL     1     -12.854  13.772  64.992  1.00  0.00    -0.272 C  
HETATM    3  H   UNL     1     -13.855  12.249  64.336  1.00  0.00     0.000 HD 
ENDROOT
BRANCH   2   4
HETATM    4  N   UNL     1     -11.566  14.351  64.755  1.00  0.00    -0.388 N  
HETATM    5  C   UNL     1     -10.432  13.980  65.577  1.00  0.00    -0.327 C  
HETATM    6  O   UNL     1     -12.393  16.325  63.848  1.00  0.00    -0.874 OA 
HETATM    7  C   UNL     1      -9.761  15.365  65.725  1.00  0.00    -0.350 C  
HETATM    8  N   UNL     1     -10.350  16.217  64.843  1.00  0.00    -0.526 NA 
HETATM    9  O   UNL     1      -8.817  15.666  66.439  1.00  0.00    -0.283 OA 
HETATM   10  C   UNL     1     -11.507  15.685  64.391  1.00  0.00    -0.262 C  
BRANCH   5  11
HETATM   11  N   UNL     1      -9.549  13.084  64.873  1.00  0.00    -0.441 N  
HETATM   12  H   UNL     1      -8.820  13.466  64.271  1.00  0.00     0.000 HD 
BRANCH  11  13
HETATM   13  C   UNL     1      -9.675  11.731  65.001  1.00  0.00    -0.187 C  
HETATM   14  O   UNL     1     -10.302  11.030  64.217  1.00  0.00    -0.322 OA 
BRANCH  13  15
HETATM   15  N   UNL     1      -8.956  11.237  66.057  1.00  0.00    -0.201 N  
HETATM   16  H   UNL     1      -8.140  11.744  66.400  1.00  0.00     0.000 HD 
BRANCH  15  17
HETATM   17  C   UNL     1      -9.350  10.008  66.678  1.00  0.00    -0.166 C  
BRANCH  17  18
HETATM   18  N   UNL     1      -9.963  10.221  67.963  1.00  0.00    -0.150 N  
HETATM   19  H   UNL     1      -9.676   9.664  68.769  1.00  0.00     0.000 HD 
BRANCH  18  20
HETATM   20  C   UNL     1     -10.935  11.177  68.096  1.00  0.00    -0.238 C  
HETATM   21  O   UNL     1     -11.819  11.369  67.272  1.00  0.00    -0.594 OA 
BRANCH  20  22
HETATM   22  N   UNL     1     -10.814  11.892  69.265  1.00  0.00    -0.425 N  
HETATM   23  H   UNL     1      -9.931  11.950  69.772  1.00  0.00     0.000 HD 
BRANCH  22  24
HETATM   24  C   UNL     1     -12.003  12.552  69.730  1.00  0.00    -0.289 C  
HETATM   25  N   UNL     1     -12.522  12.116  71.003  1.00  0.00    -0.339 N  
HETATM   26  O   UNL     1     -11.090  14.863  69.532  1.00  0.00    -0.260 OA 
HETATM   27  C   UNL     1     -13.042  13.175  71.720  1.00  0.00    -0.383 C  
HETATM   28  N   UNL     1     -12.646  14.330  71.126  1.00  0.00    -0.339 NA 
HETATM   29  O   UNL     1     -13.704  13.107  72.741  1.00  0.00    -0.630 OA 
HETATM   30  C   UNL     1     -11.820  14.049  70.079  1.00  0.00    -0.320 C  
BRANCH  25  31
HETATM   31  C   UNL     1     -12.739  10.746  71.342  1.00  0.00    -0.439 C  
HETATM   32  H   UNL     1     -11.647   9.162  71.536  1.00  0.00     0.000 HD 
HETATM   33  O   UNL     1     -11.503  10.074  71.311  1.00  0.00    -0.364 OA 
ENDBRANCH  25  31
ENDBRANCH  22  24
ENDBRANCH  20  22
ENDBRANCH  18  20
ENDBRANCH  17  18
ENDBRANCH  15  17
ENDBRANCH  13  15
ENDBRANCH  11  13
ENDBRANCH   5  11
ENDBRANCH   2   4
TORSDOF 10
ENDMDL
MODEL       30
REMARK 921   NORMALIZED FREE ENERGY PREDICTED BY IDOCK:   -6.21 KCAL/MOL
REMARK 922        TOTAL FREE ENERGY PREDICTED BY IDOCK:  -11.84 KCAL/MOL
REMARK 923 INTER-LIGAND FREE ENERGY PREDICTED BY IDOCK:  -10.32 KCAL/MOL
REMARK 924 INTRA-LIGAND FREE ENERGY PREDICTED BY IDOCK:   -1.52 KCAL/MOL
REMARK 927      BINDING AFFINITY PREDICTED BY RF-SCORE:    0.00 PKD
ROOT
HETATM    1  O   UNL     1      -8.850  14.555  66.434  1.00  0.00    -0.449 OA 
HETATM    2  C   UNL     1      -9.542  15.440  65.587  1.00  0.00    -0.288 C  
HETATM    3  H   UNL     1      -7.928  14.785  66.434  1.00  0.00     0.000 HD 
ENDROOT
BRANCH   2   4
HETATM    4  N   UNL     1     -10.932  15.093  65.587  1.00  0.00    -0.345 N  
HETATM    5  C   UNL     1     -11.360  13.775  66.008  1.00  0.00    -0.314 C  
HETATM    6  O   UNL     1     -11.510  16.570  63.887  1.00  0.00    -1.145 OA 
HETATM    7  C   UNL     1     -12.470  13.522  64.963  1.00  0.00    -0.417 C  
HETATM    8  N   UNL     1     -12.721  14.694  64.320  1.00  0.00    -0.678 NA 
HETATM    9  O   UNL     1     -13.091  12.488  64.767  1.00  0.00    -0.853 OA 
HETATM   10  C   UNL     1     -11.724  15.573  64.558  1.00  0.00    -0.253 C  
BRANCH   5  11
HETATM   11  N   UNL     1     -11.934  13.811  67.330  1.00  0.00    -0.401 N  
HETATM   12  H   UNL     1     -12.836  14.264  67.474  1.00  0.00     0.000 HD 
BRANCH  11  13
HETATM   13  C   UNL     1     -11.287  13.247  68.392  1.00  0.00    -0.291 C  
HETATM   14  O   UNL     1     -10.120  13.478  68.676  1.00  0.00    -0.226 OA 
BRANCH  13  15
HETATM   15  N   UNL     1     -12.114  12.458  69.147  1.00  0.00    -0.213 N  
HETATM   16  H   UNL     1     -12.853  12.883  69.707  1.00  0.00     0.000 HD 
BRANCH  15  17
HETATM   17  C   UNL     1     -11.939  11.036  69.150  1.00  0.00    -0.324 C  
BRANCH  17  18
HETATM   18  N   UNL     1     -10.935  10.614  70.091  1.00  0.00    -0.429 N  
HETATM   19  H   UNL     1      -9.956  10.857  69.942  1.00  0.00     0.000 HD 
BRANCH  18  20
HETATM   20  C   UNL     1     -11.306   9.883  71.189  1.00  0.00    -0.370 C  
HETATM   21  O   UNL     1     -12.336  10.077  71.821  1.00  0.00    -0.390 OA 
BRANCH  20  22
HETATM   22  N   UNL     1     -10.397   8.898  71.497  1.00  0.00    -0.296 N  
HETATM   23  H   UNL     1      -9.648   8.637  70.856  1.00  0.00     0.000 HD 
BRANCH  22  24
HETATM   24  C   UNL     1     -10.564   8.257  72.773  1.00  0.00    -0.251 C  
HETATM   25  N   UNL     1     -11.045   6.897  72.750  1.00  0.00    -0.272 N  
HETATM   26  O   UNL     1      -8.244   8.698  73.571  1.00  0.00    -0.404 OA 
HETATM   27  C   UNL     1     -10.453   6.142  73.742  1.00  0.00    -0.283 C  
HETATM   28  N   UNL     1      -9.401   6.838  74.241  1.00  0.00    -0.214 NA 
HETATM   29  O   UNL     1     -10.774   5.019  74.090  1.00  0.00    -0.289 OA 
HETATM   30  C   UNL     1      -9.249   8.003  73.548  1.00  0.00    -0.243 C  
BRANCH  25  31
HETATM   31  C   UNL     1     -12.188   6.474  72.005  1.00  0.00    -0.295 C  
HETATM   32  H   UNL     1     -12.624   6.214  70.140  1.00  0.00     0.000 HD 
HETATM   33  O   UNL     1     -11.864   6.495  70.635  1.00  0.00    -0.384 OA 
ENDBRANCH  25  31
ENDBRANCH  22  24
ENDBRANCH  20  22
ENDBRANCH  18  20
ENDBRANCH  17  18
ENDBRANCH  15  17
ENDBRANCH  13  15
ENDBRANCH  11  13
ENDBRANCH   5  11
ENDBRANCH   2   4
TORSDOF 10
ENDMDL
MODEL       31
REMARK 921   NORMALIZED FREE ENERGY PREDICTED BY IDOCK:   -6.21 KCAL/MOL
REMARK 922        TOTAL FREE ENERGY PREDICTED BY IDOCK:  -11.84 KCAL/MOL
REMARK 923 INTER-LIGAND FREE ENERGY PREDICTED BY IDOCK:   -9.85 KCAL/MOL
REMARK 924 INTRA-LIGAND FREE ENERGY PREDICTED BY IDOCK:   -1.99 KCAL/MOL
REMARK 927      BINDING AFFINITY PREDICTED BY RF-SCORE:    0.00 PKD
ROOT
HETATM    1  O   UNL     1     -11.121  13.812  68.970  1.00  0.00    -0.250 OA 
HETATM    2  C   UNL     1     -12.320  13.818  69.707  1.00  0.00    -0.255 C  
HETATM    3  H   UNL     1     -11.139  14.526  68.345  1.00  0.00     0.000 HD 
ENDROOT
BRANCH   2   4
HETATM    4  N   UNL     1     -12.292  12.740  70.651  1.00  0.00    -0.345 N  
HETATM    5  C   UNL     1     -12.141  11.372  70.199  1.00  0.00    -0.357 C  
HETATM    6  O   UNL     1     -13.573  13.837  72.250  1.00  0.00    -0.460 OA 
HETATM    7  C   UNL     1     -13.130  10.676  71.162  1.00  0.00    -0.322 C  
HETATM    8  N   UNL     1     -13.476  11.568  72.130  1.00  0.00    -0.305 NA 
HETATM    9  O   UNL     1     -13.502   9.513  71.141  1.00  0.00    -0.341 OA 
HETATM   10  C   UNL     1     -13.125  12.817  71.753  1.00  0.00    -0.356 C  
BRANCH   5  11
HETATM   11  N   UNL     1     -10.805  10.888  70.439  1.00  0.00    -0.371 N  
HETATM   12  H   UNL     1     -10.369  11.043  71.348  1.00  0.00     0.000 HD 
BRANCH  11  13
HETATM   13  C   UNL     1     -10.114  10.225  69.466  1.00  0.00    -0.235 C  
HETATM   14  O   UNL     1      -8.894  10.240  69.369  1.00  0.00    -0.172 OA 
BRANCH  13  15
HETATM   15  N   UNL     1     -10.933   9.477  68.662  1.00  0.00    -0.435 N  
HETATM   16  H   UNL     1     -11.704   8.948  69.070  1.00  0.00     0.000 HD 
BRANCH  15  17
HETATM   17  C   UNL     1     -10.705   9.437  67.248  1.00  0.00    -0.188 C  
BRANCH  17  18
HETATM   18  N   UNL     1     -10.361  10.730  66.717  1.00  0.00    -0.234 N  
HETATM   19  H   UNL     1     -10.373  11.554  67.318  1.00  0.00     0.000 HD 
BRANCH  18  20
HETATM   20  C   UNL     1     -10.017  10.845  65.395  1.00  0.00    -0.263 C  
HETATM   21  O   UNL     1      -9.909   9.893  64.634  1.00  0.00    -0.285 OA 
BRANCH  20  22
HETATM   22  N   UNL     1      -9.819  12.152  65.015  1.00  0.00    -0.395 N  
HETATM   23  H   UNL     1      -8.910  12.489  64.698  1.00  0.00     0.000 HD 
BRANCH  22  24
HETATM   24  C   UNL     1     -10.966  13.015  65.090  1.00  0.00    -0.295 C  
HETATM   25  N   UNL     1     -10.719  14.426  64.919  1.00  0.00    -0.412 N  
HETATM   26  O   UNL     1     -12.291  11.809  63.357  1.00  0.00    -0.532 OA 
HETATM   27  C   UNL     1     -11.747  15.033  64.226  1.00  0.00    -0.233 C  
HETATM   28  N   UNL     1     -12.524  14.065  63.679  1.00  0.00    -0.809 NA 
HETATM   29  O   UNL     1     -11.916  16.231  64.078  1.00  0.00    -0.955 OA 
HETATM   30  C   UNL     1     -11.987  12.839  63.940  1.00  0.00    -0.480 C  
BRANCH  25  31
HETATM   31  C   UNL     1      -9.706  15.143  65.627  1.00  0.00    -0.316 C  
HETATM   32  H   UNL     1      -8.716  14.910  67.271  1.00  0.00     0.000 HD 
HETATM   33  O   UNL     1      -9.389  14.433  66.800  1.00  0.00    -0.246 OA 
ENDBRANCH  25  31
ENDBRANCH  22  24
ENDBRANCH  20  22
ENDBRANCH  18  20
ENDBRANCH  17  18
ENDBRANCH  15  17
ENDBRANCH  13  15
ENDBRANCH  11  13
ENDBRANCH   5  11
ENDBRANCH   2   4
TORSDOF 10
ENDMDL
MODEL       32
REMARK 921   NORMALIZED FREE ENERGY PREDICTED BY IDOCK:   -6.21 KCAL/MOL
REMARK 922        TOTAL FREE ENERGY PREDICTED BY IDOCK:  -11.83 KCAL/MOL
REMARK 923 INTER-LIGAND FREE ENERGY PREDICTED BY IDOCK:   -9.45 KCAL/MOL
REMARK 924 INTRA-LIGAND FREE ENERGY PREDICTED BY IDOCK:   -2.38 KCAL/MOL
REMARK 927      BINDING AFFINITY PREDICTED BY RF-SCORE:    0.00 PKD
ROOT
HETATM    1  O   UNL     1      -9.419   9.446  66.288  1.00  0.00    -0.178 OA 
HETATM    2  C   UNL     1      -9.589   9.741  64.923  1.00  0.00    -0.246 C  
HETATM    3  H   UNL     1      -9.091   8.559  66.374  1.00  0.00     0.000 HD 
ENDROOT
BRANCH   2   4
HETATM    4  N   UNL     1     -10.083  11.079  64.793  1.00  0.00    -0.283 N  
HETATM    5  C   UNL     1     -11.156  11.552  65.644  1.00  0.00    -0.199 C  
HETATM    6  O   UNL     1      -9.522  11.286  62.546  1.00  0.00    -0.299 OA 
HETATM    7  C   UNL     1     -11.957  12.374  64.610  1.00  0.00    -0.394 C  
HETATM    8  N   UNL     1     -11.195  12.504  63.490  1.00  0.00    -0.471 NA 
HETATM    9  O   UNL     1     -13.051  12.898  64.756  1.00  0.00    -0.754 OA 
HETATM   10  C   UNL     1     -10.174  11.620  63.523  1.00  0.00    -0.436 C  
BRANCH   5  11
HETATM   11  N   UNL     1     -10.655  12.424  66.678  1.00  0.00    -0.228 N  
HETATM   12  H   UNL     1     -10.089  13.232  66.423  1.00  0.00     0.000 HD 
BRANCH  11  13
HETATM   13  C   UNL     1     -10.929  12.181  67.993  1.00  0.00    -0.229 C  
HETATM   14  O   UNL     1     -10.263  11.437  68.700  1.00  0.00    -0.198 OA 
BRANCH  13  15
HETATM   15  N   UNL     1     -11.983  12.927  68.453  1.00  0.00    -0.305 N  
HETATM   16  H   UNL     1     -12.854  12.959  67.923  1.00  0.00     0.000 HD 
BRANCH  15  17
HETATM   17  C   UNL     1     -11.859  13.661  69.676  1.00  0.00    -0.335 C  
BRANCH  17  18
HETATM   18  N   UNL     1     -10.597  14.346  69.775  1.00  0.00    -0.451 N  
HETATM   19  H   UNL     1      -9.727  13.815  69.836  1.00  0.00     0.000 HD 
BRANCH  18  20
HETATM   20  C   UNL     1     -10.572  15.715  69.786  1.00  0.00    -0.304 C  
HETATM   21  O   UNL     1     -11.118  16.400  70.641  1.00  0.00    -0.323 OA 
BRANCH  20  22
HETATM   22  N   UNL     1      -9.855  16.237  68.735  1.00  0.00    -0.228 N  
HETATM   23  H   UNL     1      -8.839  16.157  68.683  1.00  0.00     0.000 HD 
BRANCH  22  24
HETATM   24  C   UNL     1     -10.618  16.903  67.714  1.00  0.00    -0.340 C  
HETATM   25  N   UNL     1     -10.269  18.276  67.446  1.00  0.00    -0.353 N  
HETATM   26  O   UNL     1     -10.207  15.191  65.949  1.00  0.00    -0.283 OA 
HETATM   27  C   UNL     1     -10.381  18.566  66.101  1.00  0.00    -0.426 C  
HETATM   28  N   UNL     1     -10.508  17.400  65.420  1.00  0.00    -0.651 NA 
HETATM   29  O   UNL     1     -10.327  19.671  65.588  1.00  0.00    -0.420 OA 
HETATM   30  C   UNL     1     -10.410  16.349  66.284  1.00  0.00    -0.329 C  
BRANCH  25  31
HETATM   31  C   UNL     1     -10.122  19.269  68.462  1.00  0.00    -0.430 C  
HETATM   32  H   UNL     1      -8.680  19.947  69.558  1.00  0.00     0.000 HD 
HETATM   33  O   UNL     1      -8.779  19.287  68.882  1.00  0.00    -0.362 OA 
ENDBRANCH  25  31
ENDBRANCH  22  24
ENDBRANCH  20  22
ENDBRANCH  18  20
ENDBRANCH  17  18
ENDBRANCH  15  17
ENDBRANCH  13  15
ENDBRANCH  11  13
ENDBRANCH   5  11
ENDBRANCH   2   4
TORSDOF 10
ENDMDL
MODEL       33
REMARK 921   NORMALIZED FREE ENERGY PREDICTED BY IDOCK:   -6.20 KCAL/MOL
REMARK 922        TOTAL FREE ENERGY PREDICTED BY IDOCK:  -11.83 KCAL/MOL
REMARK 923 INTER-LIGAND FREE ENERGY PREDICTED BY IDOCK:  -10.09 KCAL/MOL
REMARK 924 INTRA-LIGAND FREE ENERGY PREDICTED BY IDOCK:   -1.74 KCAL/MOL
REMARK 927      BINDING AFFINITY PREDICTED BY RF-SCORE:    0.00 PKD
ROOT
HETATM    1  O   UNL     1     -12.491  14.000  63.090  1.00  0.00    -1.137 OA 
HETATM    2  C   UNL     1     -12.409  13.841  64.486  1.00  0.00    -0.358 C  
HETATM    3  H   UNL     1     -13.273  13.563  62.775  1.00  0.00     0.000 HD 
ENDROOT
BRANCH   2   4
HETATM    4  N   UNL     1     -11.229  14.499  64.961  1.00  0.00    -0.362 N  
HETATM    5  C   UNL     1     -10.654  14.142  66.243  1.00  0.00    -0.284 C  
HETATM    6  O   UNL     1     -11.615  16.475  63.799  1.00  0.00    -1.109 OA 
HETATM    7  C   UNL     1     -10.260  15.550  66.744  1.00  0.00    -0.280 C  
HETATM    8  N   UNL     1     -10.372  16.418  65.703  1.00  0.00    -0.486 NA 
HETATM    9  O   UNL     1      -9.841  15.860  67.850  1.00  0.00    -0.217 OA 
HETATM   10  C   UNL     1     -11.090  15.852  64.708  1.00  0.00    -0.384 C  
BRANCH   5  11
HETATM   11  N   UNL     1      -9.472  13.335  66.077  1.00  0.00    -0.470 N  
HETATM   12  H   UNL     1      -8.591  13.779  65.820  1.00  0.00     0.000 HD 
BRANCH  11  13
HETATM   13  C   UNL     1      -9.515  11.982  66.259  1.00  0.00    -0.229 C  
HETATM   14  O   UNL     1     -10.282  11.240  65.661  1.00  0.00    -0.235 OA 
BRANCH  13  15
HETATM   15  N   UNL     1      -8.549  11.542  67.126  1.00  0.00    -0.150 N  
HETATM   16  H   UNL     1      -7.753  11.010  66.776  1.00  0.00     0.000 HD 
BRANCH  15  17
HETATM   17  C   UNL     1      -8.661  11.828  68.526  1.00  0.00    -0.123 C  
BRANCH  17  18
HETATM   18  N   UNL     1      -8.493  10.651  69.336  1.00  0.00    -0.349 N  
HETATM   19  H   UNL     1      -7.609  10.476  69.814  1.00  0.00     0.000 HD 
BRANCH  18  20
HETATM   20  C   UNL     1      -9.532   9.766  69.461  1.00  0.00    -0.212 C  
HETATM   21  O   UNL     1      -9.854   8.966  68.593  1.00  0.00    -0.159 OA 
BRANCH  20  22
HETATM   22  N   UNL     1     -10.167   9.869  70.677  1.00  0.00    -0.370 N  
HETATM   23  H   UNL     1      -9.650   9.998  71.546  1.00  0.00     0.000 HD 
BRANCH  22  24
HETATM   24  C   UNL     1     -11.602   9.784  70.652  1.00  0.00    -0.313 C  
HETATM   25  N   UNL     1     -12.218   9.016  71.706  1.00  0.00    -0.339 N  
HETATM   26  O   UNL     1     -11.989  12.245  70.574  1.00  0.00    -0.335 OA 
HETATM   27  C   UNL     1     -13.409   9.586  72.108  1.00  0.00    -0.461 C  
HETATM   28  N   UNL     1     -13.485  10.836  71.586  1.00  0.00    -0.235 NA 
HETATM   29  O   UNL     1     -14.241   9.087  72.847  1.00  0.00    -0.528 OA 
HETATM   30  C   UNL     1     -12.336  11.123  70.910  1.00  0.00    -0.399 C  
BRANCH  25  31
HETATM   31  C   UNL     1     -11.805   7.698  72.070  1.00  0.00    -0.301 C  
HETATM   32  H   UNL     1     -11.040   6.171  71.163  1.00  0.00     0.000 HD 
HETATM   33  O   UNL     1     -11.314   7.049  70.922  1.00  0.00    -0.267 OA 
ENDBRANCH  25  31
ENDBRANCH  22  24
ENDBRANCH  20  22
ENDBRANCH  18  20
ENDBRANCH  17  18
ENDBRANCH  15  17
ENDBRANCH  13  15
ENDBRANCH  11  13
ENDBRANCH   5  11
ENDBRANCH   2   4
TORSDOF 10
ENDMDL
MODEL       34
REMARK 921   NORMALIZED FREE ENERGY PREDICTED BY IDOCK:   -6.19 KCAL/MOL
REMARK 922        TOTAL FREE ENERGY PREDICTED BY IDOCK:  -11.81 KCAL/MOL
REMARK 923 INTER-LIGAND FREE ENERGY PREDICTED BY IDOCK:   -9.33 KCAL/MOL
REMARK 924 INTRA-LIGAND FREE ENERGY PREDICTED BY IDOCK:   -2.47 KCAL/MOL
REMARK 927      BINDING AFFINITY PREDICTED BY RF-SCORE:    0.00 PKD
ROOT
HETATM    1  O   UNL     1     -11.141  16.845  69.740  1.00  0.00    -0.381 OA 
HETATM    2  C   UNL     1     -12.216  15.941  69.660  1.00  0.00    -0.115 C  
HETATM    3  H   UNL     1     -11.223  17.486  69.044  1.00  0.00     0.000 HD 
ENDROOT
BRANCH   2   4
HETATM    4  N   UNL     1     -12.091  14.974  70.710  1.00  0.00    -0.296 N  
HETATM    5  C   UNL     1     -12.564  13.618  70.519  1.00  0.00    -0.267 C  
HETATM    6  O   UNL     1     -12.151  16.535  72.432  1.00  0.00    -0.473 OA 
HETATM    7  C   UNL     1     -13.180  13.366  71.914  1.00  0.00    -0.431 C  
HETATM    8  N   UNL     1     -12.786  14.373  72.740  1.00  0.00    -0.416 NA 
HETATM    9  O   UNL     1     -13.846  12.407  72.275  1.00  0.00    -0.353 OA 
HETATM   10  C   UNL     1     -12.290  15.397  72.012  1.00  0.00    -0.373 C  
BRANCH   5  11
HETATM   11  N   UNL     1     -11.466  12.710  70.300  1.00  0.00    -0.487 N  
HETATM   12  H   UNL     1     -10.513  13.016  70.494  1.00  0.00     0.000 HD 
BRANCH  11  13
HETATM   13  C   UNL     1     -11.684  11.444  69.838  1.00  0.00    -0.346 C  
HETATM   14  O   UNL     1     -11.601  10.442  70.534  1.00  0.00    -0.296 OA 
BRANCH  13  15
HETATM   15  N   UNL     1     -12.086  11.430  68.528  1.00  0.00    -0.214 N  
HETATM   16  H   UNL     1     -12.982  11.838  68.265  1.00  0.00     0.000 HD 
BRANCH  15  17
HETATM   17  C   UNL     1     -11.246  10.840  67.529  1.00  0.00    -0.274 C  
BRANCH  17  18
HETATM   18  N   UNL     1     -10.663  11.826  66.657  1.00  0.00    -0.251 N  
HETATM   19  H   UNL     1      -9.650  11.939  66.611  1.00  0.00     0.000 HD 
BRANCH  18  20
HETATM   20  C   UNL     1     -11.481  12.611  65.888  1.00  0.00    -0.363 C  
HETATM   21  O   UNL     1     -12.689  12.444  65.787  1.00  0.00    -0.392 OA 
BRANCH  20  22
HETATM   22  N   UNL     1     -10.795  13.619  65.250  1.00  0.00    -0.309 N  
HETATM   23  H   UNL     1     -10.136  13.428  64.496  1.00  0.00     0.000 HD 
BRANCH  22  24
HETATM   24  C   UNL     1     -11.062  14.955  65.707  1.00  0.00    -0.342 C  
HETATM   25  N   UNL     1      -9.935  15.693  66.222  1.00  0.00    -0.275 N  
HETATM   26  O   UNL     1     -12.137  15.724  63.593  1.00  0.00    -0.566 OA 
HETATM   27  C   UNL     1     -10.015  17.029  65.882  1.00  0.00    -0.217 C  
HETATM   28  N   UNL     1     -10.975  17.173  64.935  1.00  0.00    -0.819 NA 
HETATM   29  O   UNL     1      -9.318  17.932  66.312  1.00  0.00    -0.389 OA 
HETATM   30  C   UNL     1     -11.475  15.951  64.596  1.00  0.00    -0.263 C  
BRANCH  25  31
HETATM   31  C   UNL     1      -9.028  15.175  67.197  1.00  0.00    -0.213 C  
HETATM   32  H   UNL     1      -9.135  13.975  68.709  1.00  0.00     0.000 HD 
HETATM   33  O   UNL     1      -9.738  14.320  68.060  1.00  0.00    -0.212 OA 
ENDBRANCH  25  31
ENDBRANCH  22  24
ENDBRANCH  20  22
ENDBRANCH  18  20
ENDBRANCH  17  18
ENDBRANCH  15  17
ENDBRANCH  13  15
ENDBRANCH  11  13
ENDBRANCH   5  11
ENDBRANCH   2   4
TORSDOF 10
ENDMDL
MODEL       35
REMARK 921   NORMALIZED FREE ENERGY PREDICTED BY IDOCK:   -6.19 KCAL/MOL
REMARK 922        TOTAL FREE ENERGY PREDICTED BY IDOCK:  -11.80 KCAL/MOL
REMARK 923 INTER-LIGAND FREE ENERGY PREDICTED BY IDOCK:   -9.55 KCAL/MOL
REMARK 924 INTRA-LIGAND FREE ENERGY PREDICTED BY IDOCK:   -2.24 KCAL/MOL
REMARK 927      BINDING AFFINITY PREDICTED BY RF-SCORE:    0.00 PKD
ROOT
HETATM    1  O   UNL     1     -13.902  15.725  72.516  1.00  0.00    -0.542 OA 
HETATM    2  C   UNL     1     -13.837  15.215  71.206  1.00  0.00    -0.472 C  
HETATM    3  H   UNL     1     -14.537  16.430  72.541  1.00  0.00     0.000 HD 
ENDROOT
BRANCH   2   4
HETATM    4  N   UNL     1     -12.878  14.152  71.168  1.00  0.00    -0.343 N  
HETATM    5  C   UNL     1     -12.124  13.886  69.959  1.00  0.00    -0.345 C  
HETATM    6  O   UNL     1     -13.933  12.866  72.791  1.00  0.00    -0.510 OA 
HETATM    7  C   UNL     1     -12.135  12.341  69.987  1.00  0.00    -0.273 C  
HETATM    8  N   UNL     1     -12.587  11.942  71.208  1.00  0.00    -0.335 NA 
HETATM    9  O   UNL     1     -11.745  11.574  69.120  1.00  0.00    -0.272 OA 
HETATM   10  C   UNL     1     -13.175  12.980  71.842  1.00  0.00    -0.430 C  
BRANCH   5  11
HETATM   11  N   UNL     1     -10.769  14.366  70.074  1.00  0.00    -0.456 N  
HETATM   12  H   UNL     1     -10.045  13.745  70.435  1.00  0.00     0.000 HD 
BRANCH  11  13
HETATM   13  C   UNL     1     -10.442  15.639  69.706  1.00  0.00    -0.308 C  
HETATM   14  O   UNL     1     -10.962  16.638  70.184  1.00  0.00    -0.321 OA 
BRANCH  13  15
HETATM   15  N   UNL     1      -9.412  15.673  68.804  1.00  0.00    -0.202 N  
HETATM   16  H   UNL     1      -8.531  15.207  69.018  1.00  0.00     0.000 HD 
BRANCH  15  17
HETATM   17  C   UNL     1      -9.574  16.365  67.560  1.00  0.00    -0.227 C  
BRANCH  17  18
HETATM   18  N   UNL     1     -10.700  15.875  66.808  1.00  0.00    -0.311 N  
HETATM   19  H   UNL     1     -11.597  15.720  67.267  1.00  0.00     0.000 HD 
BRANCH  18  20
HETATM   20  C   UNL     1     -10.556  15.619  65.470  1.00  0.00    -0.404 C  
HETATM   21  O   UNL     1     -11.042  16.312  64.587  1.00  0.00    -0.634 OA 
BRANCH  20  22
HETATM   22  N   UNL     1      -9.792  14.501  65.227  1.00  0.00    -0.530 N  
HETATM   23  H   UNL     1      -8.892  14.557  64.750  1.00  0.00     0.000 HD 
BRANCH  22  24
HETATM   24  C   UNL     1     -10.334  13.251  65.684  1.00  0.00    -0.287 C  
HETATM   25  N   UNL     1     -10.306  12.158  64.744  1.00  0.00    -0.279 N  
HETATM   26  O   UNL     1      -8.923  13.110  67.734  1.00  0.00    -0.174 OA 
HETATM   27  C   UNL     1     -10.051  10.959  65.379  1.00  0.00    -0.277 C  
HETATM   28  N   UNL     1      -9.627  11.224  66.641  1.00  0.00    -0.192 NA 
HETATM   29  O   UNL     1     -10.138   9.845  64.892  1.00  0.00    -0.268 OA 
HETATM   30  C   UNL     1      -9.531  12.572  66.821  1.00  0.00    -0.231 C  
BRANCH  25  31
HETATM   31  C   UNL     1     -10.773  12.259  63.398  1.00  0.00    -0.391 C  
HETATM   32  H   UNL     1     -12.229  13.145  62.485  1.00  0.00     0.000 HD 
HETATM   33  O   UNL     1     -11.917  13.078  63.380  1.00  0.00    -0.542 OA 
ENDBRANCH  25  31
ENDBRANCH  22  24
ENDBRANCH  20  22
ENDBRANCH  18  20
ENDBRANCH  17  18
ENDBRANCH  15  17
ENDBRANCH  13  15
ENDBRANCH  11  13
ENDBRANCH   5  11
ENDBRANCH   2   4
TORSDOF 10
ENDMDL
MODEL       36
REMARK 921   NORMALIZED FREE ENERGY PREDICTED BY IDOCK:   -6.16 KCAL/MOL
REMARK 922        TOTAL FREE ENERGY PREDICTED BY IDOCK:  -11.75 KCAL/MOL
REMARK 923 INTER-LIGAND FREE ENERGY PREDICTED BY IDOCK:   -9.93 KCAL/MOL
REMARK 924 INTRA-LIGAND FREE ENERGY PREDICTED BY IDOCK:   -1.82 KCAL/MOL
REMARK 927      BINDING AFFINITY PREDICTED BY RF-SCORE:    0.00 PKD
ROOT
HETATM    1  O   UNL     1     -11.932  16.082  63.742  1.00  0.00    -1.339 OA 
HETATM    2  C   UNL     1     -11.127  15.675  64.822  1.00  0.00    -0.412 C  
HETATM    3  H   UNL     1     -11.797  17.009  63.588  1.00  0.00     0.000 HD 
ENDROOT
BRANCH   2   4
HETATM    4  N   UNL     1     -11.332  14.277  65.055  1.00  0.00    -0.348 N  
HETATM    5  C   UNL     1     -10.457  13.295  64.445  1.00  0.00    -0.404 C  
HETATM    6  O   UNL     1     -13.617  14.466  65.437  1.00  0.00    -0.428 OA 
HETATM    7  C   UNL     1     -11.503  12.220  64.072  1.00  0.00    -0.409 C  
HETATM    8  N   UNL     1     -12.673  12.535  64.692  1.00  0.00    -0.725 NA 
HETATM    9  O   UNL     1     -11.333  11.210  63.406  1.00  0.00    -0.153 OA 
HETATM   10  C   UNL     1     -12.632  13.812  65.131  1.00  0.00    -0.433 C  
BRANCH   5  11
HETATM   11  N   UNL     1      -9.527  12.758  65.406  1.00  0.00    -0.456 N  
HETATM   12  H   UNL     1      -8.732  12.207  65.083  1.00  0.00     0.000 HD 
BRANCH  11  13
HETATM   13  C   UNL     1      -9.695  12.976  66.743  1.00  0.00    -0.248 C  
HETATM   14  O   UNL     1      -9.224  13.935  67.339  1.00  0.00    -0.206 OA 
BRANCH  13  15
HETATM   15  N   UNL     1     -10.515  12.046  67.324  1.00  0.00    -0.215 N  
HETATM   16  H   UNL     1     -10.425  11.061  67.077  1.00  0.00     0.000 HD 
BRANCH  15  17
HETATM   17  C   UNL     1     -11.500  12.459  68.279  1.00  0.00    -0.310 C  
BRANCH  17  18
HETATM   18  N   UNL     1     -11.172  12.037  69.616  1.00  0.00    -0.473 N  
HETATM   19  H   UNL     1     -10.299  12.336  70.051  1.00  0.00     0.000 HD 
BRANCH  18  20
HETATM   20  C   UNL     1     -12.043  11.229  70.299  1.00  0.00    -0.373 C  
HETATM   21  O   UNL     1     -12.685  11.591  71.276  1.00  0.00    -0.398 OA 
BRANCH  20  22
HETATM   22  N   UNL     1     -12.125   9.967  69.759  1.00  0.00    -0.480 N  
HETATM   23  H   UNL     1     -12.940   9.661  69.227  1.00  0.00     0.000 HD 
BRANCH  22  24
HETATM   24  C   UNL     1     -10.997   9.105  69.984  1.00  0.00    -0.220 C  
HETATM   25  N   UNL     1     -11.285   7.804  70.537  1.00  0.00    -0.266 N  
HETATM   26  O   UNL     1     -10.109   9.254  67.660  1.00  0.00    -0.187 OA 
HETATM   27  C   UNL     1     -10.451   6.841  70.006  1.00  0.00    -0.210 C  
HETATM   28  N   UNL     1      -9.818   7.369  68.928  1.00  0.00    -0.154 NA 
HETATM   29  O   UNL     1     -10.327   5.692  70.394  1.00  0.00    -0.221 OA 
HETATM   30  C   UNL     1     -10.273   8.634  68.700  1.00  0.00    -0.194 C  
BRANCH  25  31
HETATM   31  C   UNL     1     -12.107   7.597  71.686  1.00  0.00    -0.306 C  
HETATM   32  H   UNL     1     -12.254   8.358  73.458  1.00  0.00     0.000 HD 
HETATM   33  O   UNL     1     -11.708   8.496  72.693  1.00  0.00    -0.363 OA 
ENDBRANCH  25  31
ENDBRANCH  22  24
ENDBRANCH  20  22
ENDBRANCH  18  20
ENDBRANCH  17  18
ENDBRANCH  15  17
ENDBRANCH  13  15
ENDBRANCH  11  13
ENDBRANCH   5  11
ENDBRANCH   2   4
TORSDOF 10
ENDMDL
MODEL       37
REMARK 921   NORMALIZED FREE ENERGY PREDICTED BY IDOCK:   -6.15 KCAL/MOL
REMARK 922        TOTAL FREE ENERGY PREDICTED BY IDOCK:  -11.75 KCAL/MOL
REMARK 923 INTER-LIGAND FREE ENERGY PREDICTED BY IDOCK:   -9.74 KCAL/MOL
REMARK 924 INTRA-LIGAND FREE ENERGY PREDICTED BY IDOCK:   -2.01 KCAL/MOL
REMARK 927      BINDING AFFINITY PREDICTED BY RF-SCORE:    0.00 PKD
ROOT
HETATM    1  O   UNL     1     -11.838  11.683  70.658  1.00  0.00    -0.452 OA 
HETATM    2  C   UNL     1     -12.897  10.881  71.122  1.00  0.00    -0.409 C  
HETATM    3  H   UNL     1     -12.184  12.525  70.387  1.00  0.00     0.000 HD 
ENDROOT
BRANCH   2   4
HETATM    4  N   UNL     1     -12.376   9.611  71.530  1.00  0.00    -0.364 N  
HETATM    5  C   UNL     1     -11.419   8.909  70.699  1.00  0.00    -0.242 C  
HETATM    6  O   UNL     1     -14.237   9.022  72.792  1.00  0.00    -0.572 OA 
HETATM    7  C   UNL     1     -11.944   7.465  70.872  1.00  0.00    -0.277 C  
HETATM    8  N   UNL     1     -12.851   7.463  71.886  1.00  0.00    -0.302 NA 
HETATM    9  O   UNL     1     -11.581   6.461  70.278  1.00  0.00    -0.399 OA 
HETATM   10  C   UNL     1     -13.231   8.728  72.166  1.00  0.00    -0.414 C  
BRANCH   5  11
HETATM   11  N   UNL     1     -10.086   9.011  71.238  1.00  0.00    -0.287 N  
HETATM   12  H   UNL     1      -9.892   8.648  72.171  1.00  0.00     0.000 HD 
BRANCH  11  13
HETATM   13  C   UNL     1      -9.080   9.587  70.517  1.00  0.00    -0.219 C  
HETATM   14  O   UNL     1      -7.934   9.709  70.928  1.00  0.00    -0.307 OA 
BRANCH  13  15
HETATM   15  N   UNL     1      -9.478   9.938  69.254  1.00  0.00    -0.196 N  
HETATM   16  H   UNL     1     -10.202   9.399  68.779  1.00  0.00     0.000 HD 
BRANCH  15  17
HETATM   17  C   UNL     1      -8.876  11.062  68.601  1.00  0.00    -0.164 C  
BRANCH  17  18
HETATM   18  N   UNL     1      -9.741  12.213  68.593  1.00  0.00    -0.380 N  
HETATM   19  H   UNL     1      -9.556  13.000  69.216  1.00  0.00     0.000 HD 
BRANCH  18  20
HETATM   20  C   UNL     1     -10.814  12.243  67.742  1.00  0.00    -0.221 C  
HETATM   21  O   UNL     1     -11.343  11.242  67.277  1.00  0.00    -0.371 OA 
BRANCH  20  22
HETATM   22  N   UNL     1     -11.240  13.523  67.478  1.00  0.00    -0.274 N  
HETATM   23  H   UNL     1     -11.861  14.026  68.113  1.00  0.00     0.000 HD 
BRANCH  22  24
HETATM   24  C   UNL     1     -10.762  14.112  66.258  1.00  0.00    -0.293 C  
HETATM   25  N   UNL     1     -11.725  14.858  65.485  1.00  0.00    -0.269 N  
HETATM   26  O   UNL     1      -8.859  15.333  67.307  1.00  0.00    -0.177 OA 
HETATM   27  C   UNL     1     -11.143  15.961  64.892  1.00  0.00    -0.389 C  
HETATM   28  N   UNL     1      -9.922  16.154  65.451  1.00  0.00    -0.497 NA 
HETATM   29  O   UNL     1     -11.645  16.681  64.046  1.00  0.00    -1.197 OA 
HETATM   30  C   UNL     1      -9.722  15.244  66.447  1.00  0.00    -0.285 C  
BRANCH  25  31
HETATM   31  C   UNL     1     -13.018  14.360  65.138  1.00  0.00    -0.026 C  
HETATM   32  H   UNL     1     -13.849  12.622  64.968  1.00  0.00     0.000 HD 
HETATM   33  O   UNL     1     -12.989  12.954  65.198  1.00  0.00    -0.758 OA 
ENDBRANCH  25  31
ENDBRANCH  22  24
ENDBRANCH  20  22
ENDBRANCH  18  20
ENDBRANCH  17  18
ENDBRANCH  15  17
ENDBRANCH  13  15
ENDBRANCH  11  13
ENDBRANCH   5  11
ENDBRANCH   2   4
TORSDOF 10
ENDMDL
MODEL       38
REMARK 921   NORMALIZED FREE ENERGY PREDICTED BY IDOCK:   -6.14 KCAL/MOL
REMARK 922        TOTAL FREE ENERGY PREDICTED BY IDOCK:  -11.73 KCAL/MOL
REMARK 923 INTER-LIGAND FREE ENERGY PREDICTED BY IDOCK:   -9.90 KCAL/MOL
REMARK 924 INTRA-LIGAND FREE ENERGY PREDICTED BY IDOCK:   -1.83 KCAL/MOL
REMARK 927      BINDING AFFINITY PREDICTED BY RF-SCORE:    0.00 PKD
ROOT
HETATM    1  O   UNL     1     -11.697   7.711  73.319  1.00  0.00    -0.649 OA 
HETATM    2  C   UNL     1     -11.576   7.358  71.962  1.00  0.00    -0.284 C  
HETATM    3  H   UNL     1     -11.289   7.038  73.851  1.00  0.00     0.000 HD 
ENDROOT
BRANCH   2   4
HETATM    4  N   UNL     1     -12.191   8.374  71.161  1.00  0.00    -0.266 N  
HETATM    5  C   UNL     1     -11.386   9.406  70.539  1.00  0.00    -0.274 C  
HETATM    6  O   UNL     1     -14.237   8.291  72.260  1.00  0.00    -0.362 OA 
HETATM    7  C   UNL     1     -12.317  10.620  70.757  1.00  0.00    -0.376 C  
HETATM    8  N   UNL     1     -13.528  10.157  71.168  1.00  0.00    -0.292 NA 
HETATM    9  O   UNL     1     -12.075  11.798  70.537  1.00  0.00    -0.363 OA 
HETATM   10  C   UNL     1     -13.418   8.869  71.564  1.00  0.00    -0.332 C  
BRANCH   5  11
HETATM   11  N   UNL     1     -11.225   9.162  69.127  1.00  0.00    -0.438 N  
HETATM   12  H   UNL     1     -12.045   9.156  68.521  1.00  0.00     0.000 HD 
BRANCH  11  13
HETATM   13  C   UNL     1      -9.990   8.938  68.589  1.00  0.00    -0.177 C  
HETATM   14  O   UNL     1      -9.479   7.831  68.501  1.00  0.00    -0.147 OA 
BRANCH  13  15
HETATM   15  N   UNL     1      -9.425  10.081  68.089  1.00  0.00    -0.138 N  
HETATM   16  H   UNL     1      -9.074  10.798  68.724  1.00  0.00     0.000 HD 
BRANCH  15  17
HETATM   17  C   UNL     1      -9.327  10.269  66.672  1.00  0.00    -0.161 C  
BRANCH  17  18
HETATM   18  N   UNL     1      -9.900  11.520  66.249  1.00  0.00    -0.210 N  
HETATM   19  H   UNL     1      -9.542  11.997  65.421  1.00  0.00     0.000 HD 
BRANCH  18  20
HETATM   20  C   UNL     1     -10.932  12.065  66.967  1.00  0.00    -0.274 C  
HETATM   21  O   UNL     1     -11.905  11.430  67.351  1.00  0.00    -0.609 OA 
BRANCH  20  22
HETATM   22  N   UNL     1     -10.747  13.404  67.220  1.00  0.00    -0.258 N  
HETATM   23  H   UNL     1     -10.916  13.806  68.142  1.00  0.00     0.000 HD 
BRANCH  22  24
HETATM   24  C   UNL     1     -10.301  14.204  66.112  1.00  0.00    -0.300 C  
HETATM   25  N   UNL     1     -11.328  14.724  65.243  1.00  0.00    -0.352 N  
HETATM   26  O   UNL     1      -8.966  15.799  67.486  1.00  0.00    -0.190 OA 
HETATM   27  C   UNL     1     -11.008  15.990  64.796  1.00  0.00    -0.356 C  
HETATM   28  N   UNL     1      -9.971  16.458  65.536  1.00  0.00    -0.549 NA 
HETATM   29  O   UNL     1     -11.579  16.618  63.920  1.00  0.00    -1.204 OA 
HETATM   30  C   UNL     1      -9.652  15.553  66.505  1.00  0.00    -0.272 C  
BRANCH  25  31
HETATM   31  C   UNL     1     -12.374  13.927  64.688  1.00  0.00    -0.388 C  
HETATM   32  H   UNL     1     -14.202  13.497  65.149  1.00  0.00     0.000 HD 
HETATM   33  O   UNL     1     -13.506  14.028  65.518  1.00  0.00    -0.677 OA 
ENDBRANCH  25  31
ENDBRANCH  22  24
ENDBRANCH  20  22
ENDBRANCH  18  20
ENDBRANCH  17  18
ENDBRANCH  15  17
ENDBRANCH  13  15
ENDBRANCH  11  13
ENDBRANCH   5  11
ENDBRANCH   2   4
TORSDOF 10
ENDMDL
MODEL       39
REMARK 921   NORMALIZED FREE ENERGY PREDICTED BY IDOCK:   -6.14 KCAL/MOL
REMARK 922        TOTAL FREE ENERGY PREDICTED BY IDOCK:  -11.73 KCAL/MOL
REMARK 923 INTER-LIGAND FREE ENERGY PREDICTED BY IDOCK:   -9.54 KCAL/MOL
REMARK 924 INTRA-LIGAND FREE ENERGY PREDICTED BY IDOCK:   -2.19 KCAL/MOL
REMARK 927      BINDING AFFINITY PREDICTED BY RF-SCORE:    0.00 PKD
ROOT
HETATM    1  O   UNL     1     -10.014  10.371  70.157  1.00  0.00    -0.422 OA 
HETATM    2  C   UNL     1     -11.060  10.310  69.217  1.00  0.00    -0.245 C  
HETATM    3  H   UNL     1      -9.565   9.535  70.174  1.00  0.00     0.000 HD 
ENDROOT
BRANCH   2   4
HETATM    4  N   UNL     1     -11.738  11.572  69.192  1.00  0.00    -0.300 N  
HETATM    5  C   UNL     1     -11.268  12.640  68.333  1.00  0.00    -0.279 C  
HETATM    6  O   UNL     1     -12.547  11.412  71.365  1.00  0.00    -0.372 OA 
HETATM    7  C   UNL     1     -11.476  13.840  69.284  1.00  0.00    -0.293 C  
HETATM    8  N   UNL     1     -12.219  13.418  70.343  1.00  0.00    -0.356 NA 
HETATM    9  O   UNL     1     -11.121  14.997  69.118  1.00  0.00    -0.244 OA 
HETATM   10  C   UNL     1     -12.238  12.067  70.383  1.00  0.00    -0.294 C  
BRANCH   5  11
HETATM   11  N   UNL     1     -12.112  12.785  67.173  1.00  0.00    -0.269 N  
HETATM   12  H   UNL     1     -13.038  13.199  67.274  1.00  0.00     0.000 HD 
BRANCH  11  13
HETATM   13  C   UNL     1     -11.688  12.376  65.942  1.00  0.00    -0.419 C  
HETATM   14  O   UNL     1     -10.641  11.774  65.749  1.00  0.00    -0.251 OA 
BRANCH  13  15
HETATM   15  N   UNL     1     -12.605  12.642  64.959  1.00  0.00    -0.547 N  
HETATM   16  H   UNL     1     -13.475  12.111  64.915  1.00  0.00     0.000 HD 
BRANCH  15  17
HETATM   17  C   UNL     1     -12.341  13.667  63.993  1.00  0.00    -0.325 C  
BRANCH  17  18
HETATM   18  N   UNL     1     -11.089  14.335  64.238  1.00  0.00    -0.605 N  
HETATM   19  H   UNL     1     -10.208  13.831  64.131  1.00  0.00     0.000 HD 
BRANCH  18  20
HETATM   20  C   UNL     1     -11.091  15.652  64.615  1.00  0.00    -0.373 C  
HETATM   21  O   UNL     1     -11.365  16.576  63.861  1.00  0.00    -1.057 OA 
BRANCH  20  22
HETATM   22  N   UNL     1     -10.762  15.820  65.939  1.00  0.00    -0.325 N  
HETATM   23  H   UNL     1     -11.322  15.415  66.689  1.00  0.00     0.000 HD 
BRANCH  22  24
HETATM   24  C   UNL     1      -9.584  16.601  66.206  1.00  0.00    -0.299 C  
HETATM   25  N   UNL     1      -9.749  17.727  67.091  1.00  0.00    -0.279 N  
HETATM   26  O   UNL     1      -8.185  14.679  66.955  1.00  0.00    -0.190 OA 
HETATM   27  C   UNL     1      -8.641  17.896  67.897  1.00  0.00    -0.252 C  
HETATM   28  N   UNL     1      -7.869  16.784  67.802  1.00  0.00    -0.173 NA 
HETATM   29  O   UNL     1      -8.402  18.851  68.616  1.00  0.00    -0.345 OA 
HETATM   30  C   UNL     1      -8.484  15.862  67.007  1.00  0.00    -0.217 C  
BRANCH  25  31
HETATM   31  C   UNL     1     -10.779  18.706  66.944  1.00  0.00    -0.309 C  
HETATM   32  H   UNL     1     -11.117  20.219  65.789  1.00  0.00     0.000 HD 
HETATM   33  O   UNL     1     -10.432  19.568  65.887  1.00  0.00    -0.493 OA 
ENDBRANCH  25  31
ENDBRANCH  22  24
ENDBRANCH  20  22
ENDBRANCH  18  20
ENDBRANCH  17  18
ENDBRANCH  15  17
ENDBRANCH  13  15
ENDBRANCH  11  13
ENDBRANCH   5  11
ENDBRANCH   2   4
TORSDOF 10
ENDMDL
MODEL       40
REMARK 921   NORMALIZED FREE ENERGY PREDICTED BY IDOCK:   -6.13 KCAL/MOL
REMARK 922        TOTAL FREE ENERGY PREDICTED BY IDOCK:  -11.71 KCAL/MOL
REMARK 923 INTER-LIGAND FREE ENERGY PREDICTED BY IDOCK:   -9.49 KCAL/MOL
REMARK 924 INTRA-LIGAND FREE ENERGY PREDICTED BY IDOCK:   -2.22 KCAL/MOL
REMARK 927      BINDING AFFINITY PREDICTED BY RF-SCORE:    0.00 PKD
ROOT
HETATM    1  O   UNL     1     -11.008  17.692  68.032  1.00  0.00    -0.308 OA 
HETATM    2  C   UNL     1      -9.833  18.456  67.911  1.00  0.00    -0.329 C  
HETATM    3  H   UNL     1     -11.593  18.120  68.646  1.00  0.00     0.000 HD 
ENDROOT
BRANCH   2   4
HETATM    4  N   UNL     1      -8.951  17.811  66.986  1.00  0.00    -0.246 N  
HETATM    5  C   UNL     1      -8.383  16.514  67.294  1.00  0.00    -0.174 C  
HETATM    6  O   UNL     1      -8.179  19.784  66.030  1.00  0.00    -0.354 OA 
HETATM    7  C   UNL     1      -6.953  16.726  66.747  1.00  0.00    -0.234 C  
HETATM    8  N   UNL     1      -6.945  17.874  66.016  1.00  0.00    -0.298 NA 
HETATM    9  O   UNL     1      -5.990  15.983  66.862  1.00  0.00    -0.323 OA 
HETATM   10  C   UNL     1      -8.055  18.597  66.282  1.00  0.00    -0.244 C  
BRANCH   5  11
HETATM   11  N   UNL     1      -9.039  15.468  66.551  1.00  0.00    -0.276 N  
HETATM   12  H   UNL     1      -9.418  15.669  65.626  1.00  0.00     0.000 HD 
BRANCH  11  13
HETATM   13  C   UNL     1      -9.160  14.210  67.067  1.00  0.00    -0.243 C  
HETATM   14  O   UNL     1      -8.410  13.750  67.918  1.00  0.00    -0.147 OA 
BRANCH  13  15
HETATM   15  N   UNL     1     -10.261  13.552  66.586  1.00  0.00    -0.270 N  
HETATM   16  H   UNL     1     -10.163  12.618  66.188  1.00  0.00     0.000 HD 
BRANCH  15  17
HETATM   17  C   UNL     1     -11.549  14.177  66.644  1.00  0.00    -0.384 C  
BRANCH  17  18
HETATM   18  N   UNL     1     -12.132  14.101  67.957  1.00  0.00    -0.545 N  
HETATM   19  H   UNL     1     -12.634  14.901  68.344  1.00  0.00     0.000 HD 
BRANCH  18  20
HETATM   20  C   UNL     1     -12.006  12.947  68.685  1.00  0.00    -0.247 C  
HETATM   21  O   UNL     1     -12.049  11.826  68.196  1.00  0.00    -0.556 OA 
BRANCH  20  22
HETATM   22  N   UNL     1     -11.814  13.187  70.025  1.00  0.00    -0.464 N  
HETATM   23  H   UNL     1     -11.321  12.527  70.626  1.00  0.00     0.000 HD 
BRANCH  22  24
HETATM   24  C   UNL     1     -12.348  14.423  70.531  1.00  0.00    -0.345 C  
HETATM   25  N   UNL     1     -12.888  14.388  71.867  1.00  0.00    -0.334 N  
HETATM   26  O   UNL     1     -10.294  15.768  70.099  1.00  0.00    -0.297 OA 
HETATM   27  C   UNL     1     -12.624  15.562  72.543  1.00  0.00    -0.403 C  
HETATM   28  N   UNL     1     -11.698  16.262  71.841  1.00  0.00    -0.494 NA 
HETATM   29  O   UNL     1     -13.094  15.906  73.614  1.00  0.00    -0.547 OA 
HETATM   30  C   UNL     1     -11.299  15.539  70.756  1.00  0.00    -0.355 C  
BRANCH  25  31
HETATM   31  C   UNL     1     -13.821  13.405  72.319  1.00  0.00    -0.573 C  
HETATM   32  H   UNL     1     -13.851  11.480  72.492  1.00  0.00     0.000 HD 
HETATM   33  O   UNL     1     -13.231  12.134  72.192  1.00  0.00    -0.499 OA 
ENDBRANCH  25  31
ENDBRANCH  22  24
ENDBRANCH  20  22
ENDBRANCH  18  20
ENDBRANCH  17  18
ENDBRANCH  15  17
ENDBRANCH  13  15
ENDBRANCH  11  13
ENDBRANCH   5  11
ENDBRANCH   2   4
TORSDOF 10
ENDMDL
MODEL       41
REMARK 921   NORMALIZED FREE ENERGY PREDICTED BY IDOCK:   -6.13 KCAL/MOL
REMARK 922        TOTAL FREE ENERGY PREDICTED BY IDOCK:  -11.70 KCAL/MOL
REMARK 923 INTER-LIGAND FREE ENERGY PREDICTED BY IDOCK:   -9.29 KCAL/MOL
REMARK 924 INTRA-LIGAND FREE ENERGY PREDICTED BY IDOCK:   -2.41 KCAL/MOL
REMARK 927      BINDING AFFINITY PREDICTED BY RF-SCORE:    0.00 PKD
ROOT
HETATM    1  O   UNL     1     -11.809  11.353  63.110  1.00  0.00    -0.887 OA 
HETATM    2  C   UNL     1     -10.618  11.949  63.565  1.00  0.00    -0.453 C  
HETATM    3  H   UNL     1     -11.597  10.697  62.457  1.00  0.00     0.000 HD 
ENDROOT
BRANCH   2   4
HETATM    4  N   UNL     1     -10.939  12.938  64.550  1.00  0.00    -0.330 N  
HETATM    5  C   UNL     1     -10.662  12.696  65.951  1.00  0.00    -0.266 C  
HETATM    6  O   UNL     1     -12.681  13.881  63.332  1.00  0.00    -0.806 OA 
HETATM    7  C   UNL     1     -11.936  13.314  66.572  1.00  0.00    -0.391 C  
HETATM    8  N   UNL     1     -12.584  14.013  65.601  1.00  0.00    -0.522 NA 
HETATM    9  O   UNL     1     -12.296  13.271  67.739  1.00  0.00    -0.191 OA 
HETATM   10  C   UNL     1     -12.104  13.668  64.386  1.00  0.00    -0.427 C  
BRANCH   5  11
HETATM   11  N   UNL     1      -9.502  13.431  66.388  1.00  0.00    -0.372 N  
HETATM   12  H   UNL     1      -9.143  14.193  65.813  1.00  0.00     0.000 HD 
BRANCH  11  13
HETATM   13  C   UNL     1      -8.876  13.121  67.561  1.00  0.00    -0.199 C  
HETATM   14  O   UNL     1      -8.089  12.193  67.686  1.00  0.00    -0.138 OA 
BRANCH  13  15
HETATM   15  N   UNL     1      -9.166  14.014  68.559  1.00  0.00    -0.259 N  
HETATM   16  H   UNL     1     -10.135  14.264  68.754  1.00  0.00     0.000 HD 
BRANCH  15  17
HETATM   17  C   UNL     1      -8.107  14.596  69.328  1.00  0.00    -0.030 C  
BRANCH  17  18
HETATM   18  N   UNL     1      -7.659  15.848  68.776  1.00  0.00    -0.165 N  
HETATM   19  H   UNL     1      -7.872  16.726  69.250  1.00  0.00     0.000 HD 
BRANCH  18  20
HETATM   20  C   UNL     1      -6.943  15.851  67.607  1.00  0.00    -0.162 C  
HETATM   21  O   UNL     1      -6.017  15.086  67.374  1.00  0.00    -0.335 OA 
BRANCH  20  22
HETATM   22  N   UNL     1      -7.390  16.801  66.719  1.00  0.00    -0.214 N  
HETATM   23  H   UNL     1      -6.858  17.052  65.886  1.00  0.00     0.000 HD 
BRANCH  22  24
HETATM   24  C   UNL     1      -8.649  17.420  67.032  1.00  0.00    -0.233 C  
HETATM   25  N   UNL     1      -8.665  18.862  67.060  1.00  0.00    -0.286 N  
HETATM   26  O   UNL     1      -9.947  16.238  65.264  1.00  0.00    -0.505 OA 
HETATM   27  C   UNL     1      -9.855  19.358  66.567  1.00  0.00    -0.386 C  
HETATM   28  N   UNL     1     -10.518  18.347  65.951  1.00  0.00    -0.591 NA 
HETATM   29  O   UNL     1     -10.240  20.513  66.622  1.00  0.00    -0.357 OA 
HETATM   30  C   UNL     1      -9.754  17.217  65.968  1.00  0.00    -0.168 C  
BRANCH  25  31
HETATM   31  C   UNL     1      -7.711  19.651  67.773  1.00  0.00    -0.284 C  
HETATM   32  H   UNL     1      -6.759  19.517  69.451  1.00  0.00     0.000 HD 
HETATM   33  O   UNL     1      -7.393  18.993  68.976  1.00  0.00    -0.329 OA 
ENDBRANCH  25  31
ENDBRANCH  22  24
ENDBRANCH  20  22
ENDBRANCH  18  20
ENDBRANCH  17  18
ENDBRANCH  15  17
ENDBRANCH  13  15
ENDBRANCH  11  13
ENDBRANCH   5  11
ENDBRANCH   2   4
TORSDOF 10
ENDMDL
MODEL       42
REMARK 921   NORMALIZED FREE ENERGY PREDICTED BY IDOCK:   -6.11 KCAL/MOL
REMARK 922        TOTAL FREE ENERGY PREDICTED BY IDOCK:  -11.68 KCAL/MOL
REMARK 923 INTER-LIGAND FREE ENERGY PREDICTED BY IDOCK:   -9.66 KCAL/MOL
REMARK 924 INTRA-LIGAND FREE ENERGY PREDICTED BY IDOCK:   -2.02 KCAL/MOL
REMARK 927      BINDING AFFINITY PREDICTED BY RF-SCORE:    0.00 PKD
ROOT
HETATM    1  O   UNL     1     -14.128   7.777  71.048  1.00  0.00    -0.648 OA 
HETATM    2  C   UNL     1     -13.119   7.245  71.871  1.00  0.00    -0.242 C  
HETATM    3  H   UNL     1     -14.824   7.136  70.960  1.00  0.00     0.000 HD 
ENDROOT
BRANCH   2   4
HETATM    4  N   UNL     1     -12.069   8.210  72.005  1.00  0.00    -0.320 N  
HETATM    5  C   UNL     1     -11.784   9.138  70.929  1.00  0.00    -0.284 C  
HETATM    6  O   UNL     1     -10.810   6.939  73.489  1.00  0.00    -0.315 OA 
HETATM    7  C   UNL     1     -10.240   9.139  70.998  1.00  0.00    -0.302 C  
HETATM    8  N   UNL     1      -9.866   8.516  72.148  1.00  0.00    -0.298 NA 
HETATM    9  O   UNL     1      -9.457   9.662  70.219  1.00  0.00    -0.242 OA 
HETATM   10  C   UNL     1     -10.911   7.829  72.659  1.00  0.00    -0.364 C  
BRANCH   5  11
HETATM   11  N   UNL     1     -12.286  10.456  71.230  1.00  0.00    -0.377 N  
HETATM   12  H   UNL     1     -12.599  10.671  72.176  1.00  0.00     0.000 HD 
BRANCH  11  13
HETATM   13  C   UNL     1     -12.350  11.419  70.266  1.00  0.00    -0.297 C  
HETATM   14  O   UNL     1     -12.341  12.620  70.503  1.00  0.00    -0.337 OA 
BRANCH  13  15
HETATM   15  N   UNL     1     -12.342  10.893  69.001  1.00  0.00    -0.393 N  
HETATM   16  H   UNL     1     -12.908  10.072  68.787  1.00  0.00     0.000 HD 
BRANCH  15  17
HETATM   17  C   UNL     1     -11.539  11.497  67.979  1.00  0.00    -0.300 C  
BRANCH  17  18
HETATM   18  N   UNL     1     -10.233  11.862  68.461  1.00  0.00    -0.217 N  
HETATM   19  H   UNL     1      -9.693  11.211  69.031  1.00  0.00     0.000 HD 
BRANCH  18  20
HETATM   20  C   UNL     1      -9.720  13.093  68.146  1.00  0.00    -0.228 C  
HETATM   21  O   UNL     1      -8.560  13.422  68.356  1.00  0.00    -0.171 OA 
BRANCH  20  22
HETATM   22  N   UNL     1     -10.650  13.916  67.555  1.00  0.00    -0.255 N  
HETATM   23  H   UNL     1     -11.639  13.874  67.800  1.00  0.00     0.000 HD 
BRANCH  22  24
HETATM   24  C   UNL     1     -10.149  14.837  66.571  1.00  0.00    -0.273 C  
HETATM   25  N   UNL     1     -11.000  15.088  65.435  1.00  0.00    -0.352 N  
HETATM   26  O   UNL     1      -9.710  16.691  68.178  1.00  0.00    -0.234 OA 
HETATM   27  C   UNL     1     -10.919  16.406  65.031  1.00  0.00    -0.252 C  
HETATM   28  N   UNL     1     -10.285  17.113  66.001  1.00  0.00    -0.462 NA 
HETATM   29  O   UNL     1     -11.375  16.882  64.007  1.00  0.00    -1.109 OA 
HETATM   30  C   UNL     1     -10.013  16.299  67.061  1.00  0.00    -0.255 C  
BRANCH  25  31
HETATM   31  C   UNL     1     -11.606  14.055  64.656  1.00  0.00    -0.392 C  
HETATM   32  H   UNL     1     -13.323  13.168  64.601  1.00  0.00     0.000 HD 
HETATM   33  O   UNL     1     -12.920  13.855  65.119  1.00  0.00    -0.744 OA 
ENDBRANCH  25  31
ENDBRANCH  22  24
ENDBRANCH  20  22
ENDBRANCH  18  20
ENDBRANCH  17  18
ENDBRANCH  15  17
ENDBRANCH  13  15
ENDBRANCH  11  13
ENDBRANCH   5  11
ENDBRANCH   2   4
TORSDOF 10
ENDMDL
MODEL       43
REMARK 921   NORMALIZED FREE ENERGY PREDICTED BY IDOCK:   -6.11 KCAL/MOL
REMARK 922        TOTAL FREE ENERGY PREDICTED BY IDOCK:  -11.68 KCAL/MOL
REMARK 923 INTER-LIGAND FREE ENERGY PREDICTED BY IDOCK:   -9.57 KCAL/MOL
REMARK 924 INTRA-LIGAND FREE ENERGY PREDICTED BY IDOCK:   -2.12 KCAL/MOL
REMARK 927      BINDING AFFINITY PREDICTED BY RF-SCORE:    0.00 PKD
ROOT
HETATM    1  O   UNL     1     -10.989   8.705  68.208  1.00  0.00    -0.453 OA 
HETATM    2  C   UNL     1     -10.377   7.526  68.675  1.00  0.00    -0.200 C  
HETATM    3  H   UNL     1     -10.537   8.999  67.427  1.00  0.00     0.000 HD 
ENDROOT
BRANCH   2   4
HETATM    4  N   UNL     1     -11.058   7.083  69.854  1.00  0.00    -0.271 N  
HETATM    5  C   UNL     1     -11.317   8.004  70.942  1.00  0.00    -0.276 C  
HETATM    6  O   UNL     1     -10.366   4.872  69.671  1.00  0.00    -0.243 OA 
HETATM    7  C   UNL     1     -11.030   7.070  72.140  1.00  0.00    -0.234 C  
HETATM    8  N   UNL     1     -10.932   5.797  71.670  1.00  0.00    -0.260 NA 
HETATM    9  O   UNL     1     -10.969   7.368  73.323  1.00  0.00    -0.376 OA 
HETATM   10  C   UNL     1     -10.784   5.812  70.327  1.00  0.00    -0.309 C  
BRANCH   5  11
HETATM   11  N   UNL     1     -12.700   8.411  70.963  1.00  0.00    -0.502 N  
HETATM   12  H   UNL     1     -13.433   7.708  70.878  1.00  0.00     0.000 HD 
BRANCH  11  13
HETATM   13  C   UNL     1     -13.042   9.726  71.093  1.00  0.00    -0.346 C  
HETATM   14  O   UNL     1     -13.573  10.194  72.091  1.00  0.00    -0.368 OA 
BRANCH  13  15
HETATM   15  N   UNL     1     -12.651  10.477  70.016  1.00  0.00    -0.526 N  
HETATM   16  H   UNL     1     -12.711  10.088  69.075  1.00  0.00     0.000 HD 
BRANCH  15  17
HETATM   17  C   UNL     1     -12.158  11.807  70.212  1.00  0.00    -0.342 C  
BRANCH  17  18
HETATM   18  N   UNL     1     -11.294  12.231  69.141  1.00  0.00    -0.263 N  
HETATM   19  H   UNL     1     -10.373  12.619  69.345  1.00  0.00     0.000 HD 
BRANCH  18  20
HETATM   20  C   UNL     1     -11.720  12.108  67.845  1.00  0.00    -0.336 C  
HETATM   21  O   UNL     1     -11.714  11.055  67.222  1.00  0.00    -0.504 OA 
BRANCH  20  22
HETATM   22  N   UNL     1     -12.168  13.299  67.323  1.00  0.00    -0.275 N  
HETATM   23  H   UNL     1     -13.131  13.612  67.444  1.00  0.00     0.000 HD 
BRANCH  22  24
HETATM   24  C   UNL     1     -11.201  14.078  66.598  1.00  0.00    -0.323 C  
HETATM   25  N   UNL     1     -11.695  14.818  65.463  1.00  0.00    -0.316 N  
HETATM   26  O   UNL     1     -10.366  15.335  68.581  1.00  0.00    -0.222 OA 
HETATM   27  C   UNL     1     -11.056  16.036  65.345  1.00  0.00    -0.155 C  
HETATM   28  N   UNL     1     -10.372  16.274  66.492  1.00  0.00    -0.300 NA 
HETATM   29  O   UNL     1     -11.124  16.804  64.401  1.00  0.00    -1.072 OA 
HETATM   30  C   UNL     1     -10.606  15.271  67.385  1.00  0.00    -0.282 C  
BRANCH  25  31
HETATM   31  C   UNL     1     -12.509  14.245  64.438  1.00  0.00    -0.300 C  
HETATM   32  H   UNL     1     -13.006  12.463  63.878  1.00  0.00     0.000 HD 
HETATM   33  O   UNL     1     -12.465  12.844  64.560  1.00  0.00    -0.512 OA 
ENDBRANCH  25  31
ENDBRANCH  22  24
ENDBRANCH  20  22
ENDBRANCH  18  20
ENDBRANCH  17  18
ENDBRANCH  15  17
ENDBRANCH  13  15
ENDBRANCH  11  13
ENDBRANCH   5  11
ENDBRANCH   2   4
TORSDOF 10
ENDMDL
MODEL       44
REMARK 921   NORMALIZED FREE ENERGY PREDICTED BY IDOCK:   -6.10 KCAL/MOL
REMARK 922        TOTAL FREE ENERGY PREDICTED BY IDOCK:  -11.66 KCAL/MOL
REMARK 923 INTER-LIGAND FREE ENERGY PREDICTED BY IDOCK:   -9.10 KCAL/MOL
REMARK 924 INTRA-LIGAND FREE ENERGY PREDICTED BY IDOCK:   -2.56 KCAL/MOL
REMARK 927      BINDING AFFINITY PREDICTED BY RF-SCORE:    0.00 PKD
ROOT
HETATM    1  O   UNL     1      -9.302  15.091  65.727  1.00  0.00    -0.456 OA 
HETATM    2  C   UNL     1     -10.475  14.870  64.982  1.00  0.00    -0.401 C  
HETATM    3  H   UNL     1      -8.991  15.973  65.559  1.00  0.00     0.000 HD 
ENDROOT
BRANCH   2   4
HETATM    4  N   UNL     1     -10.944  13.540  65.235  1.00  0.00    -0.287 N  
HETATM    5  C   UNL     1     -10.074  12.560  65.853  1.00  0.00    -0.254 C  
HETATM    6  O   UNL     1     -12.494  13.537  63.503  1.00  0.00    -0.745 OA 
HETATM    7  C   UNL     1     -10.467  11.315  65.026  1.00  0.00    -0.298 C  
HETATM    8  N   UNL     1     -11.585  11.616  64.313  1.00  0.00    -0.274 NA 
HETATM    9  O   UNL     1      -9.941  10.212  65.039  1.00  0.00    -0.322 OA 
HETATM   10  C   UNL     1     -11.777  12.953  64.299  1.00  0.00    -0.386 C  
BRANCH   5  11
HETATM   11  N   UNL     1     -10.420  12.355  67.238  1.00  0.00    -0.221 N  
HETATM   12  H   UNL     1     -11.084  11.623  67.487  1.00  0.00     0.000 HD 
BRANCH  11  13
HETATM   13  C   UNL     1      -9.871  13.128  68.220  1.00  0.00    -0.227 C  
HETATM   14  O   UNL     1      -8.698  13.475  68.235  1.00  0.00    -0.172 OA 
BRANCH  13  15
HETATM   15  N   UNL     1     -10.799  13.538  69.141  1.00  0.00    -0.407 N  
HETATM   16  H   UNL     1     -10.762  13.181  70.096  1.00  0.00     0.000 HD 
BRANCH  15  17
HETATM   17  C   UNL     1     -11.821  14.467  68.762  1.00  0.00    -0.315 C  
BRANCH  17  18
HETATM   18  N   UNL     1     -11.287  15.612  68.073  1.00  0.00    -0.343 N  
HETATM   19  H   UNL     1     -11.476  15.750  67.080  1.00  0.00     0.000 HD 
BRANCH  18  20
HETATM   20  C   UNL     1     -10.521  16.516  68.762  1.00  0.00    -0.309 C  
HETATM   21  O   UNL     1     -10.675  16.775  69.948  1.00  0.00    -0.292 OA 
BRANCH  20  22
HETATM   22  N   UNL     1      -9.550  17.090  67.976  1.00  0.00    -0.254 N  
HETATM   23  H   UNL     1      -8.810  16.538  67.543  1.00  0.00     0.000 HD 
BRANCH  22  24
HETATM   24  C   UNL     1      -9.638  18.514  67.799  1.00  0.00    -0.290 C  
HETATM   25  N   UNL     1      -8.426  19.264  68.022  1.00  0.00    -0.306 N  
HETATM   26  O   UNL     1     -10.582  18.415  65.495  1.00  0.00    -0.627 OA 
HETATM   27  C   UNL     1      -8.323  20.320  67.140  1.00  0.00    -0.336 C  
HETATM   28  N   UNL     1      -9.247  20.153  66.161  1.00  0.00    -0.308 NA 
HETATM   29  O   UNL     1      -7.514  21.231  67.188  1.00  0.00    -0.416 OA 
HETATM   30  C   UNL     1      -9.905  18.973  66.345  1.00  0.00    -0.378 C  
BRANCH  25  31
HETATM   31  C   UNL     1      -7.605  19.115  69.182  1.00  0.00    -0.238 C  
HETATM   32  H   UNL     1      -6.335  17.814  69.839  1.00  0.00     0.000 HD 
HETATM   33  O   UNL     1      -6.881  17.913  69.068  1.00  0.00    -0.239 OA 
ENDBRANCH  25  31
ENDBRANCH  22  24
ENDBRANCH  20  22
ENDBRANCH  18  20
ENDBRANCH  17  18
ENDBRANCH  15  17
ENDBRANCH  13  15
ENDBRANCH  11  13
ENDBRANCH   5  11
ENDBRANCH   2   4
TORSDOF 10
ENDMDL
MODEL       45
REMARK 921   NORMALIZED FREE ENERGY PREDICTED BY IDOCK:   -6.08 KCAL/MOL
REMARK 922        TOTAL FREE ENERGY PREDICTED BY IDOCK:  -11.64 KCAL/MOL
REMARK 923 INTER-LIGAND FREE ENERGY PREDICTED BY IDOCK:   -9.74 KCAL/MOL
REMARK 924 INTRA-LIGAND FREE ENERGY PREDICTED BY IDOCK:   -1.90 KCAL/MOL
REMARK 927      BINDING AFFINITY PREDICTED BY RF-SCORE:    0.00 PKD
ROOT
HETATM    1  O   UNL     1     -14.342   9.774  72.842  1.00  0.00    -0.598 OA 
HETATM    2  C   UNL     1     -13.283   8.970  72.380  1.00  0.00    -0.447 C  
HETATM    3  H   UNL     1     -14.938   9.237  73.351  1.00  0.00     0.000 HD 
ENDROOT
BRANCH   2   4
HETATM    4  N   UNL     1     -12.385   9.779  71.612  1.00  0.00    -0.388 N  
HETATM    5  C   UNL     1     -12.854  10.991  70.971  1.00  0.00    -0.346 C  
HETATM    6  O   UNL     1     -10.976   8.023  71.031  1.00  0.00    -0.233 OA 
HETATM    7  C   UNL     1     -12.086  10.884  69.634  1.00  0.00    -0.329 C  
HETATM    8  N   UNL     1     -11.157   9.898  69.756  1.00  0.00    -0.249 NA 
HETATM    9  O   UNL     1     -12.207  11.590  68.644  1.00  0.00    -0.492 OA 
HETATM   10  C   UNL     1     -11.430   9.140  70.841  1.00  0.00    -0.296 C  
BRANCH   5  11
HETATM   11  N   UNL     1     -12.419  12.162  71.691  1.00  0.00    -0.063 N  
HETATM   12  H   UNL     1     -11.431  12.278  71.913  1.00  0.00     0.000 HD 
BRANCH  11  13
HETATM   13  C   UNL     1     -13.312  13.119  72.079  1.00  0.00    -0.493 C  
HETATM   14  O   UNL     1     -14.346  12.876  72.687  1.00  0.00    -0.471 OA 
BRANCH  13  15
HETATM   15  N   UNL     1     -12.881  14.385  71.783  1.00  0.00    -0.331 N  
HETATM   16  H   UNL     1     -13.244  15.182  72.306  1.00  0.00     0.000 HD 
BRANCH  15  17
HETATM   17  C   UNL     1     -11.921  14.589  70.739  1.00  0.00    -0.322 C  
BRANCH  17  18
HETATM   18  N   UNL     1     -12.547  14.824  69.464  1.00  0.00    -0.578 N  
HETATM   19  H   UNL     1     -13.564  14.860  69.389  1.00  0.00     0.000 HD 
BRANCH  18  20
HETATM   20  C   UNL     1     -11.765  14.998  68.353  1.00  0.00    -0.317 C  
HETATM   21  O   UNL     1     -11.255  16.065  68.039  1.00  0.00    -0.344 OA 
BRANCH  20  22
HETATM   22  N   UNL     1     -11.606  13.837  67.634  1.00  0.00    -0.326 N  
HETATM   23  H   UNL     1     -11.747  12.919  68.055  1.00  0.00     0.000 HD 
BRANCH  22  24
HETATM   24  C   UNL     1     -11.229  13.991  66.255  1.00  0.00    -0.320 C  
HETATM   25  N   UNL     1     -10.428  12.934  65.688  1.00  0.00    -0.273 N  
HETATM   26  O   UNL     1     -13.548  14.328  65.406  1.00  0.00    -0.516 OA 
HETATM   27  C   UNL     1     -10.769  12.701  64.371  1.00  0.00    -0.359 C  
HETATM   28  N   UNL     1     -11.938  13.339  64.111  1.00  0.00    -0.423 NA 
HETATM   29  O   UNL     1     -10.164  12.003  63.575  1.00  0.00    -0.406 OA 
HETATM   30  C   UNL     1     -12.405  13.927  65.250  1.00  0.00    -0.464 C  
BRANCH  25  31
HETATM   31  C   UNL     1      -9.249  12.415  66.306  1.00  0.00    -0.150 C  
HETATM   32  H   UNL     1      -7.869  13.093  67.477  1.00  0.00     0.000 HD 
HETATM   33  O   UNL     1      -8.653  13.438  67.066  1.00  0.00    -0.208 OA 
ENDBRANCH  25  31
ENDBRANCH  22  24
ENDBRANCH  20  22
ENDBRANCH  18  20
ENDBRANCH  17  18
ENDBRANCH  15  17
ENDBRANCH  13  15
ENDBRANCH  11  13
ENDBRANCH   5  11
ENDBRANCH   2   4
TORSDOF 10
ENDMDL
MODEL       46
REMARK 921   NORMALIZED FREE ENERGY PREDICTED BY IDOCK:   -6.07 KCAL/MOL
REMARK 922        TOTAL FREE ENERGY PREDICTED BY IDOCK:  -11.61 KCAL/MOL
REMARK 923 INTER-LIGAND FREE ENERGY PREDICTED BY IDOCK:   -8.95 KCAL/MOL
REMARK 924 INTRA-LIGAND FREE ENERGY PREDICTED BY IDOCK:   -2.67 KCAL/MOL
REMARK 927      BINDING AFFINITY PREDICTED BY RF-SCORE:    0.00 PKD
ROOT
HETATM    1  O   UNL     1     -10.245  10.428  63.747  1.00  0.00    -0.439 OA 
HETATM    2  C   UNL     1     -10.055  11.719  63.221  1.00  0.00    -0.420 C  
HETATM    3  H   UNL     1      -9.614   9.838  63.353  1.00  0.00     0.000 HD 
ENDROOT
BRANCH   2   4
HETATM    4  N   UNL     1     -11.008  12.609  63.815  1.00  0.00    -0.425 N  
HETATM    5  C   UNL     1     -10.686  13.320  65.036  1.00  0.00    -0.333 C  
HETATM    6  O   UNL     1     -12.871  11.509  62.967  1.00  0.00    -0.284 OA 
HETATM    7  C   UNL     1     -12.048  13.212  65.758  1.00  0.00    -0.447 C  
HETATM    8  N   UNL     1     -12.968  12.762  64.862  1.00  0.00    -0.853 NA 
HETATM    9  O   UNL     1     -12.314  13.536  66.906  1.00  0.00    -0.345 OA 
HETATM   10  C   UNL     1     -12.344  12.253  63.778  1.00  0.00    -0.538 C  
BRANCH   5  11
HETATM   11  N   UNL     1     -10.383  14.704  64.769  1.00  0.00    -0.504 N  
HETATM   12  H   UNL     1     -10.702  15.130  63.900  1.00  0.00     0.000 HD 
BRANCH  11  13
HETATM   13  C   UNL     1      -9.675  15.452  65.664  1.00  0.00    -0.331 C  
HETATM   14  O   UNL     1      -9.670  16.675  65.674  1.00  0.00    -0.530 OA 
BRANCH  13  15
HETATM   15  N   UNL     1      -9.036  14.680  66.599  1.00  0.00    -0.354 N  
HETATM   16  H   UNL     1      -8.413  13.930  66.301  1.00  0.00     0.000 HD 
BRANCH  15  17
HETATM   17  C   UNL     1      -9.244  14.928  67.994  1.00  0.00    -0.185 C  
BRANCH  17  18
HETATM   18  N   UNL     1      -9.545  13.723  68.722  1.00  0.00    -0.401 N  
HETATM   19  H   UNL     1     -10.079  13.765  69.590  1.00  0.00     0.000 HD 
BRANCH  18  20
HETATM   20  C   UNL     1      -9.108  12.518  68.238  1.00  0.00    -0.183 C  
HETATM   21  O   UNL     1      -7.985  12.331  67.788  1.00  0.00    -0.131 OA 
BRANCH  20  22
HETATM   22  N   UNL     1     -10.067  11.536  68.326  1.00  0.00    -0.193 N  
HETATM   23  H   UNL     1     -10.778  11.412  67.606  1.00  0.00     0.000 HD 
BRANCH  22  24
HETATM   24  C   UNL     1     -10.009  10.696  69.491  1.00  0.00    -0.106 C  
HETATM   25  N   UNL     1     -11.274  10.261  70.031  1.00  0.00    -0.289 N  
HETATM   26  O   UNL     1      -8.483   8.999  68.490  1.00  0.00    -0.126 OA 
HETATM   27  C   UNL     1     -11.194   8.970  70.512  1.00  0.00    -0.260 C  
HETATM   28  N   UNL     1     -10.036   8.418  70.071  1.00  0.00    -0.186 NA 
HETATM   29  O   UNL     1     -12.033   8.390  71.180  1.00  0.00    -0.291 OA 
HETATM   30  C   UNL     1      -9.390   9.297  69.252  1.00  0.00    -0.160 C  
BRANCH  25  31
HETATM   31  C   UNL     1     -12.365  11.143  70.301  1.00  0.00    -0.315 C  
HETATM   32  H   UNL     1     -12.624  13.056  70.404  1.00  0.00     0.000 HD 
HETATM   33  O   UNL     1     -11.899  12.469  70.224  1.00  0.00    -0.317 OA 
ENDBRANCH  25  31
ENDBRANCH  22  24
ENDBRANCH  20  22
ENDBRANCH  18  20
ENDBRANCH  17  18
ENDBRANCH  15  17
ENDBRANCH  13  15
ENDBRANCH  11  13
ENDBRANCH   5  11
ENDBRANCH   2   4
TORSDOF 10
ENDMDL
MODEL       47
REMARK 921   NORMALIZED FREE ENERGY PREDICTED BY IDOCK:   -6.06 KCAL/MOL
REMARK 922        TOTAL FREE ENERGY PREDICTED BY IDOCK:  -11.60 KCAL/MOL
REMARK 923 INTER-LIGAND FREE ENERGY PREDICTED BY IDOCK:   -9.46 KCAL/MOL
REMARK 924 INTRA-LIGAND FREE ENERGY PREDICTED BY IDOCK:   -2.14 KCAL/MOL
REMARK 927      BINDING AFFINITY PREDICTED BY RF-SCORE:    0.00 PKD
ROOT
HETATM    1  O   UNL     1     -11.517  16.533  63.766  1.00  0.00    -1.615 OA 
HETATM    2  C   UNL     1     -10.970  16.679  65.054  1.00  0.00    -0.162 C  
HETATM    3  H   UNL     1     -11.555  17.385  63.348  1.00  0.00     0.000 HD 
ENDROOT
BRANCH   2   4
HETATM    4  N   UNL     1     -10.914  15.394  65.685  1.00  0.00    -0.337 N  
HETATM    5  C   UNL     1     -11.277  14.199  64.950  1.00  0.00    -0.373 C  
HETATM    6  O   UNL     1     -11.275  16.205  67.833  1.00  0.00    -0.325 OA 
HETATM    7  C   UNL     1     -12.041  13.441  66.060  1.00  0.00    -0.438 C  
HETATM    8  N   UNL     1     -11.811  14.075  67.242  1.00  0.00    -0.390 NA 
HETATM    9  O   UNL     1     -12.686  12.409  65.953  1.00  0.00    -0.310 OA 
HETATM   10  C   UNL     1     -11.293  15.302  67.013  1.00  0.00    -0.230 C  
BRANCH   5  11
HETATM   11  N   UNL     1     -10.108  13.449  64.564  1.00  0.00    -0.634 N  
HETATM   12  H   UNL     1      -9.186  13.877  64.647  1.00  0.00     0.000 HD 
BRANCH  11  13
HETATM   13  C   UNL     1     -10.217  12.174  64.089  1.00  0.00    -0.343 C  
HETATM   14  O   UNL     1     -10.913  11.864  63.131  1.00  0.00    -0.323 OA 
BRANCH  13  15
HETATM   15  N   UNL     1      -9.400  11.298  64.753  1.00  0.00    -0.338 N  
HETATM   16  H   UNL     1      -8.395  11.311  64.586  1.00  0.00     0.000 HD 
BRANCH  15  17
HETATM   17  C   UNL     1      -9.960  10.363  65.683  1.00  0.00    -0.272 C  
BRANCH  17  18
HETATM   18  N   UNL     1      -9.239  10.336  66.928  1.00  0.00    -0.149 N  
HETATM   19  H   UNL     1      -8.792   9.476  67.246  1.00  0.00     0.000 HD 
BRANCH  18  20
HETATM   20  C   UNL     1      -9.157  11.477  67.684  1.00  0.00    -0.168 C  
HETATM   21  O   UNL     1      -8.838  12.570  67.235  1.00  0.00    -0.178 OA 
BRANCH  20  22
HETATM   22  N   UNL     1      -9.486  11.260  69.001  1.00  0.00    -0.398 N  
HETATM   23  H   UNL     1      -8.817  11.410  69.756  1.00  0.00     0.000 HD 
BRANCH  22  24
HETATM   24  C   UNL     1     -10.828  10.810  69.254  1.00  0.00    -0.242 C  
HETATM   25  N   UNL     1     -10.971   9.697  70.161  1.00  0.00    -0.258 N  
HETATM   26  O   UNL     1     -11.706  13.040  69.941  1.00  0.00    -0.304 OA 
HETATM   27  C   UNL     1     -12.100   9.833  70.944  1.00  0.00    -0.321 C  
HETATM   28  N   UNL     1     -12.562  11.102  70.814  1.00  0.00    -0.357 NA 
HETATM   29  O   UNL     1     -12.585   8.985  71.673  1.00  0.00    -0.314 OA 
HETATM   30  C   UNL     1     -11.718  11.820  70.018  1.00  0.00    -0.305 C  
BRANCH  25  31
HETATM   31  C   UNL     1     -10.222   8.486  70.052  1.00  0.00    -0.198 C  
HETATM   32  H   UNL     1      -9.647   7.320  68.621  1.00  0.00     0.000 HD 
HETATM   33  O   UNL     1     -10.145   8.126  68.694  1.00  0.00    -0.186 OA 
ENDBRANCH  25  31
ENDBRANCH  22  24
ENDBRANCH  20  22
ENDBRANCH  18  20
ENDBRANCH  17  18
ENDBRANCH  15  17
ENDBRANCH  13  15
ENDBRANCH  11  13
ENDBRANCH   5  11
ENDBRANCH   2   4
TORSDOF 10
ENDMDL
MODEL       48
REMARK 921   NORMALIZED FREE ENERGY PREDICTED BY IDOCK:   -6.06 KCAL/MOL
REMARK 922        TOTAL FREE ENERGY PREDICTED BY IDOCK:  -11.59 KCAL/MOL
REMARK 923 INTER-LIGAND FREE ENERGY PREDICTED BY IDOCK:   -9.74 KCAL/MOL
REMARK 924 INTRA-LIGAND FREE ENERGY PREDICTED BY IDOCK:   -1.85 KCAL/MOL
REMARK 927      BINDING AFFINITY PREDICTED BY RF-SCORE:    0.00 PKD
ROOT
HETATM    1  O   UNL     1     -12.273  14.808  63.756  1.00  0.00    -0.953 OA 
HETATM    2  C   UNL     1     -12.206  14.317  65.073  1.00  0.00    -0.433 C  
HETATM    3  H   UNL     1     -12.591  15.703  63.776  1.00  0.00     0.000 HD 
ENDROOT
BRANCH   2   4
HETATM    4  N   UNL     1     -11.728  12.967  65.043  1.00  0.00    -0.327 N  
HETATM    5  C   UNL     1     -10.367  12.661  65.435  1.00  0.00    -0.291 C  
HETATM    6  O   UNL     1     -13.174  12.275  63.360  1.00  0.00    -0.660 OA 
HETATM    7  C   UNL     1     -10.028  11.597  64.366  1.00  0.00    -0.262 C  
HETATM    8  N   UNL     1     -11.183  11.243  63.740  1.00  0.00    -0.280 NA 
HETATM    9  O   UNL     1      -8.944  11.080  64.142  1.00  0.00    -0.143 OA 
HETATM   10  C   UNL     1     -12.149  12.148  64.010  1.00  0.00    -0.443 C  
BRANCH   5  11
HETATM   11  N   UNL     1     -10.323  12.066  66.747  1.00  0.00    -0.205 N  
HETATM   12  H   UNL     1      -9.525  11.489  67.011  1.00  0.00     0.000 HD 
BRANCH  11  13
HETATM   13  C   UNL     1     -11.335  12.264  67.641  1.00  0.00    -0.311 C  
HETATM   14  O   UNL     1     -12.284  11.504  67.773  1.00  0.00    -0.560 OA 
BRANCH  13  15
HETATM   15  N   UNL     1     -11.127  13.366  68.429  1.00  0.00    -0.259 N  
HETATM   16  H   UNL     1     -10.177  13.646  68.673  1.00  0.00     0.000 HD 
BRANCH  15  17
HETATM   17  C   UNL     1     -12.244  14.123  68.909  1.00  0.00    -0.222 C  
BRANCH  17  18
HETATM   18  N   UNL     1     -11.970  15.536  68.943  1.00  0.00    -0.554 N  
HETATM   19  H   UNL     1     -12.474  16.173  68.326  1.00  0.00     0.000 HD 
BRANCH  18  20
HETATM   20  C   UNL     1     -11.025  16.017  69.810  1.00  0.00    -0.334 C  
HETATM   21  O   UNL     1     -10.818  15.548  70.921  1.00  0.00    -0.325 OA 
BRANCH  20  22
HETATM   22  N   UNL     1     -10.325  17.080  69.289  1.00  0.00    -0.303 N  
HETATM   23  H   UNL     1      -9.627  17.586  69.835  1.00  0.00     0.000 HD 
BRANCH  22  24
HETATM   24  C   UNL     1     -10.633  17.438  67.931  1.00  0.00    -0.383 C  
HETATM   25  N   UNL     1     -10.212  18.749  67.502  1.00  0.00    -0.370 N  
HETATM   26  O   UNL     1      -9.561  15.435  66.904  1.00  0.00    -0.215 OA 
HETATM   27  C   UNL     1      -9.793  18.733  66.187  1.00  0.00    -0.299 C  
HETATM   28  N   UNL     1      -9.641  17.441  65.801  1.00  0.00    -0.528 NA 
HETATM   29  O   UNL     1      -9.548  19.703  65.490  1.00  0.00    -0.259 OA 
HETATM   30  C   UNL     1      -9.883  16.613  66.857  1.00  0.00    -0.263 C  
BRANCH  25  31
HETATM   31  C   UNL     1     -10.476  19.945  68.237  1.00  0.00    -0.300 C  
HETATM   32  H   UNL     1      -9.893  20.716  69.912  1.00  0.00     0.000 HD 
HETATM   33  O   UNL     1      -9.718  19.920  69.422  1.00  0.00    -0.255 OA 
ENDBRANCH  25  31
ENDBRANCH  22  24
ENDBRANCH  20  22
ENDBRANCH  18  20
ENDBRANCH  17  18
ENDBRANCH  15  17
ENDBRANCH  13  15
ENDBRANCH  11  13
ENDBRANCH   5  11
ENDBRANCH   2   4
TORSDOF 10
ENDMDL
MODEL       49
REMARK 921   NORMALIZED FREE ENERGY PREDICTED BY IDOCK:   -6.05 KCAL/MOL
REMARK 922        TOTAL FREE ENERGY PREDICTED BY IDOCK:  -11.58 KCAL/MOL
REMARK 923 INTER-LIGAND FREE ENERGY PREDICTED BY IDOCK:   -9.45 KCAL/MOL
REMARK 924 INTRA-LIGAND FREE ENERGY PREDICTED BY IDOCK:   -2.12 KCAL/MOL
REMARK 927      BINDING AFFINITY PREDICTED BY RF-SCORE:    0.00 PKD
ROOT
HETATM    1  O   UNL     1     -10.469  17.615  66.847  1.00  0.00    -0.329 OA 
HETATM    2  C   UNL     1      -9.977  16.468  66.196  1.00  0.00    -0.343 C  
HETATM    3  H   UNL     1      -9.745  18.203  67.024  1.00  0.00     0.000 HD 
ENDROOT
BRANCH   2   4
HETATM    4  N   UNL     1     -11.069  15.580  65.928  1.00  0.00    -0.261 N  
HETATM    5  C   UNL     1     -11.106  14.261  66.526  1.00  0.00    -0.323 C  
HETATM    6  O   UNL     1     -11.557  16.480  63.841  1.00  0.00    -1.175 OA 
HETATM    7  C   UNL     1     -11.649  13.454  65.325  1.00  0.00    -0.308 C  
HETATM    8  N   UNL     1     -12.083  14.335  64.384  1.00  0.00    -0.479 NA 
HETATM    9  O   UNL     1     -11.759  12.241  65.227  1.00  0.00    -0.362 OA 
HETATM   10  C   UNL     1     -11.602  15.569  64.652  1.00  0.00    -0.281 C  
BRANCH   5  11
HETATM   11  N   UNL     1     -12.049  14.208  67.615  1.00  0.00    -0.545 N  
HETATM   12  H   UNL     1     -12.989  13.851  67.449  1.00  0.00     0.000 HD 
BRANCH  11  13
HETATM   13  C   UNL     1     -11.700  14.630  68.866  1.00  0.00    -0.309 C  
HETATM   14  O   UNL     1     -11.758  15.797  69.230  1.00  0.00    -0.353 OA 
BRANCH  13  15
HETATM   15  N   UNL     1     -11.357  13.591  69.690  1.00  0.00    -0.449 N  
HETATM   16  H   UNL     1     -10.377  13.418  69.912  1.00  0.00     0.000 HD 
BRANCH  15  17
HETATM   17  C   UNL     1     -12.376  12.747  70.240  1.00  0.00    -0.204 C  
BRANCH  17  18
HETATM   18  N   UNL     1     -12.534  11.528  69.491  1.00  0.00    -0.094 N  
HETATM   19  H   UNL     1     -13.466  11.164  69.290  1.00  0.00     0.000 HD 
BRANCH  18  20
HETATM   20  C   UNL     1     -11.423  10.859  69.051  1.00  0.00    -0.302 C  
HETATM   21  O   UNL     1     -10.630  11.316  68.238  1.00  0.00    -0.180 OA 
BRANCH  20  22
HETATM   22  N   UNL     1     -11.288   9.621  69.633  1.00  0.00    -0.415 N  
HETATM   23  H   UNL     1     -11.513   8.762  69.131  1.00  0.00     0.000 HD 
BRANCH  22  24
HETATM   24  C   UNL     1     -10.813   9.606  70.990  1.00  0.00    -0.342 C  
HETATM   25  N   UNL     1     -11.392   8.613  71.862  1.00  0.00    -0.323 N  
HETATM   26  O   UNL     1      -8.398   9.424  70.398  1.00  0.00    -0.174 OA 
HETATM   27  C   UNL     1     -10.455   8.117  72.745  1.00  0.00    -0.315 C  
HETATM   28  N   UNL     1      -9.224   8.508  72.329  1.00  0.00    -0.264 NA 
HETATM   29  O   UNL     1     -10.671   7.405  73.710  1.00  0.00    -0.331 OA 
HETATM   30  C   UNL     1      -9.330   9.191  71.153  1.00  0.00    -0.243 C  
BRANCH  25  31
HETATM   31  C   UNL     1     -12.798   8.398  71.992  1.00  0.00    -0.354 C  
HETATM   32  H   UNL     1     -14.400   9.466  71.814  1.00  0.00     0.000 HD 
HETATM   33  O   UNL     1     -13.464   9.609  71.727  1.00  0.00    -0.391 OA 
ENDBRANCH  25  31
ENDBRANCH  22  24
ENDBRANCH  20  22
ENDBRANCH  18  20
ENDBRANCH  17  18
ENDBRANCH  15  17
ENDBRANCH  13  15
ENDBRANCH  11  13
ENDBRANCH   5  11
ENDBRANCH   2   4
TORSDOF 10
ENDMDL
MODEL       50
REMARK 921   NORMALIZED FREE ENERGY PREDICTED BY IDOCK:   -6.04 KCAL/MOL
REMARK 922        TOTAL FREE ENERGY PREDICTED BY IDOCK:  -11.57 KCAL/MOL
REMARK 923 INTER-LIGAND FREE ENERGY PREDICTED BY IDOCK:   -9.62 KCAL/MOL
REMARK 924 INTRA-LIGAND FREE ENERGY PREDICTED BY IDOCK:   -1.95 KCAL/MOL
REMARK 927      BINDING AFFINITY PREDICTED BY RF-SCORE:    0.00 PKD
ROOT
HETATM    1  O   UNL     1     -11.716  11.656  70.435  1.00  0.00    -0.458 OA 
HETATM    2  C   UNL     1     -12.604  10.980  71.294  1.00  0.00    -0.412 C  
HETATM    3  H   UNL     1     -12.078  12.508  70.226  1.00  0.00     0.000 HD 
ENDROOT
BRANCH   2   4
HETATM    4  N   UNL     1     -12.058   9.694  71.610  1.00  0.00    -0.389 N  
HETATM    5  C   UNL     1     -11.148   9.037  70.693  1.00  0.00    -0.265 C  
HETATM    6  O   UNL     1     -13.845   9.037  72.943  1.00  0.00    -0.359 OA 
HETATM    7  C   UNL     1     -11.660   7.585  70.825  1.00  0.00    -0.277 C  
HETATM    8  N   UNL     1     -12.509   7.529  71.887  1.00  0.00    -0.311 NA 
HETATM    9  O   UNL     1     -11.329   6.612  70.164  1.00  0.00    -0.327 OA 
HETATM   10  C   UNL     1     -12.875   8.778  72.249  1.00  0.00    -0.405 C  
BRANCH   5  11
HETATM   11  N   UNL     1      -9.787   9.119  71.162  1.00  0.00    -0.295 N  
HETATM   12  H   UNL     1      -9.549   8.751  72.082  1.00  0.00     0.000 HD 
BRANCH  11  13
HETATM   13  C   UNL     1      -8.813   9.683  70.390  1.00  0.00    -0.178 C  
HETATM   14  O   UNL     1      -7.615   9.521  70.582  1.00  0.00    -0.144 OA 
BRANCH  13  15
HETATM   15  N   UNL     1      -9.326  10.384  69.331  1.00  0.00    -0.321 N  
HETATM   16  H   UNL     1     -10.335  10.433  69.193  1.00  0.00     0.000 HD 
BRANCH  15  17
HETATM   17  C   UNL     1      -8.444  11.046  68.416  1.00  0.00    -0.144 C  
BRANCH  17  18
HETATM   18  N   UNL     1      -9.104  12.098  67.690  1.00  0.00    -0.175 N  
HETATM   19  H   UNL     1      -8.806  13.068  67.803  1.00  0.00     0.000 HD 
BRANCH  18  20
HETATM   20  C   UNL     1     -10.137  11.788  66.845  1.00  0.00    -0.207 C  
HETATM   21  O   UNL     1     -11.001  10.959  67.100  1.00  0.00    -0.274 OA 
BRANCH  20  22
HETATM   22  N   UNL     1     -10.103  12.519  65.681  1.00  0.00    -0.268 N  
HETATM   23  H   UNL     1      -9.416  12.337  64.950  1.00  0.00     0.000 HD 
BRANCH  22  24
HETATM   24  C   UNL     1     -11.091  13.555  65.554  1.00  0.00    -0.294 C  
HETATM   25  N   UNL     1     -10.598  14.883  65.281  1.00  0.00    -0.369 N  
HETATM   26  O   UNL     1     -12.439  12.393  63.809  1.00  0.00    -0.557 OA 
HETATM   27  C   UNL     1     -11.444  15.565  64.430  1.00  0.00    -0.259 C  
HETATM   28  N   UNL     1     -12.320  14.679  63.895  1.00  0.00    -0.744 NA 
HETATM   29  O   UNL     1     -11.396  16.752  64.155  1.00  0.00    -1.194 OA 
HETATM   30  C   UNL     1     -12.020  13.419  64.323  1.00  0.00    -0.430 C  
BRANCH  25  31
HETATM   31  C   UNL     1      -9.547  15.504  66.023  1.00  0.00    -0.345 C  
HETATM   32  H   UNL     1      -9.141  15.808  67.889  1.00  0.00     0.000 HD 
HETATM   33  O   UNL     1      -9.840  15.394  67.395  1.00  0.00    -0.216 OA 
ENDBRANCH  25  31
ENDBRANCH  22  24
ENDBRANCH  20  22
ENDBRANCH  18  20
ENDBRANCH  17  18
ENDBRANCH  15  17
ENDBRANCH  13  15
ENDBRANCH  11  13
ENDBRANCH   5  11
ENDBRANCH   2   4
TORSDOF 10
ENDMDL
MODEL       51
REMARK 921   NORMALIZED FREE ENERGY PREDICTED BY IDOCK:   -6.04 KCAL/MOL
REMARK 922        TOTAL FREE ENERGY PREDICTED BY IDOCK:  -11.57 KCAL/MOL
REMARK 923 INTER-LIGAND FREE ENERGY PREDICTED BY IDOCK:   -9.21 KCAL/MOL
REMARK 924 INTRA-LIGAND FREE ENERGY PREDICTED BY IDOCK:   -2.36 KCAL/MOL
REMARK 927      BINDING AFFINITY PREDICTED BY RF-SCORE:    0.00 PKD
ROOT
HETATM    1  O   UNL     1     -12.367  11.482  63.193  1.00  0.00    -0.938 OA 
HETATM    2  C   UNL     1     -11.050  11.933  63.398  1.00  0.00    -0.383 C  
HETATM    3  H   UNL     1     -12.363  10.814  62.518  1.00  0.00     0.000 HD 
ENDROOT
BRANCH   2   4
HETATM    4  N   UNL     1     -11.057  12.941  64.417  1.00  0.00    -0.340 N  
HETATM    5  C   UNL     1     -10.714  12.605  65.784  1.00  0.00    -0.268 C  
HETATM    6  O   UNL     1     -12.654  14.272  63.377  1.00  0.00    -0.777 OA 
HETATM    7  C   UNL     1     -11.761  13.466  66.527  1.00  0.00    -0.373 C  
HETATM    8  N   UNL     1     -12.326  14.316  65.627  1.00  0.00    -0.420 NA 
HETATM    9  O   UNL     1     -12.014  13.469  67.722  1.00  0.00    -0.354 OA 
HETATM   10  C   UNL     1     -12.044  13.909  64.370  1.00  0.00    -0.443 C  
BRANCH   5  11
HETATM   11  N   UNL     1      -9.386  13.059  66.115  1.00  0.00    -0.453 N  
HETATM   12  H   UNL     1      -9.004  13.880  65.647  1.00  0.00     0.000 HD 
BRANCH  11  13
HETATM   13  C   UNL     1      -8.633  12.403  67.045  1.00  0.00    -0.191 C  
HETATM   14  O   UNL     1      -8.497  11.188  67.076  1.00  0.00    -0.136 OA 
BRANCH  13  15
HETATM   15  N   UNL     1      -7.982  13.264  67.890  1.00  0.00    -0.143 N  
HETATM   16  H   UNL     1      -8.195  13.259  68.887  1.00  0.00     0.000 HD 
BRANCH  15  17
HETATM   17  C   UNL     1      -7.002  14.171  67.370  1.00  0.00    -0.045 C  
BRANCH  17  18
HETATM   18  N   UNL     1      -7.402  15.546  67.518  1.00  0.00    -0.170 N  
HETATM   19  H   UNL     1      -7.417  16.168  66.710  1.00  0.00     0.000 HD 
BRANCH  18  20
HETATM   20  C   UNL     1      -7.761  16.013  68.755  1.00  0.00    -0.187 C  
HETATM   21  O   UNL     1      -7.280  15.605  69.804  1.00  0.00    -0.180 OA 
BRANCH  20  22
HETATM   22  N   UNL     1      -8.714  17.002  68.688  1.00  0.00    -0.259 N  
HETATM   23  H   UNL     1      -9.501  17.037  69.336  1.00  0.00     0.000 HD 
BRANCH  22  24
HETATM   24  C   UNL     1      -8.538  17.983  67.652  1.00  0.00    -0.247 C  
HETATM   25  N   UNL     1      -9.669  18.212  66.787  1.00  0.00    -0.309 N  
HETATM   26  O   UNL     1      -7.801  19.813  69.175  1.00  0.00    -0.276 OA 
HETATM   27  C   UNL     1      -9.769  19.543  66.437  1.00  0.00    -0.401 C  
HETATM   28  N   UNL     1      -8.945  20.261  67.242  1.00  0.00    -0.354 NA 
HETATM   29  O   UNL     1     -10.503  20.019  65.588  1.00  0.00    -0.458 OA 
HETATM   30  C   UNL     1      -8.362  19.436  68.158  1.00  0.00    -0.328 C  
BRANCH  25  31
HETATM   31  C   UNL     1     -10.398  17.165  66.144  1.00  0.00    -0.322 C  
HETATM   32  H   UNL     1      -9.971  15.638  65.037  1.00  0.00     0.000 HD 
HETATM   33  O   UNL     1      -9.487  16.335  65.465  1.00  0.00    -0.451 OA 
ENDBRANCH  25  31
ENDBRANCH  22  24
ENDBRANCH  20  22
ENDBRANCH  18  20
ENDBRANCH  17  18
ENDBRANCH  15  17
ENDBRANCH  13  15
ENDBRANCH  11  13
ENDBRANCH   5  11
ENDBRANCH   2   4
TORSDOF 10
ENDMDL
MODEL       52
REMARK 921   NORMALIZED FREE ENERGY PREDICTED BY IDOCK:   -6.03 KCAL/MOL
REMARK 922        TOTAL FREE ENERGY PREDICTED BY IDOCK:  -11.55 KCAL/MOL
REMARK 923 INTER-LIGAND FREE ENERGY PREDICTED BY IDOCK:  -10.02 KCAL/MOL
REMARK 924 INTRA-LIGAND FREE ENERGY PREDICTED BY IDOCK:   -1.54 KCAL/MOL
REMARK 927      BINDING AFFINITY PREDICTED BY RF-SCORE:    0.00 PKD
ROOT
HETATM    1  O   UNL     1     -11.768  16.232  63.800  1.00  0.00    -1.511 OA 
HETATM    2  C   UNL     1     -11.041  15.777  64.916  1.00  0.00    -0.399 C  
HETATM    3  H   UNL     1     -11.608  17.161  63.686  1.00  0.00     0.000 HD 
ENDROOT
BRANCH   2   4
HETATM    4  N   UNL     1     -11.283  14.376  65.090  1.00  0.00    -0.341 N  
HETATM    5  C   UNL     1     -10.354  13.399  64.558  1.00  0.00    -0.373 C  
HETATM    6  O   UNL     1     -13.595  14.582  65.217  1.00  0.00    -0.219 OA 
HETATM    7  C   UNL     1     -11.361  12.345  64.044  1.00  0.00    -0.399 C  
HETATM    8  N   UNL     1     -12.591  12.658  64.535  1.00  0.00    -0.649 NA 
HETATM    9  O   UNL     1     -11.126  11.349  63.376  1.00  0.00    -0.378 OA 
HETATM   10  C   UNL     1     -12.588  13.924  65.008  1.00  0.00    -0.390 C  
BRANCH   5  11
HETATM   11  N   UNL     1      -9.543  12.828  65.604  1.00  0.00    -0.457 N  
HETATM   12  H   UNL     1      -9.151  11.895  65.484  1.00  0.00     0.000 HD 
BRANCH  11  13
HETATM   13  C   UNL     1      -9.291  13.520  66.754  1.00  0.00    -0.257 C  
HETATM   14  O   UNL     1      -8.475  14.428  66.835  1.00  0.00    -0.202 OA 
BRANCH  13  15
HETATM   15  N   UNL     1     -10.112  13.139  67.782  1.00  0.00    -0.221 N  
HETATM   16  H   UNL     1     -10.475  12.187  67.819  1.00  0.00     0.000 HD 
BRANCH  15  17
HETATM   17  C   UNL     1     -10.461  14.079  68.805  1.00  0.00    -0.233 C  
BRANCH  17  18
HETATM   18  N   UNL     1     -11.050  15.276  68.266  1.00  0.00    -0.286 N  
HETATM   19  H   UNL     1     -11.826  15.216  67.606  1.00  0.00     0.000 HD 
BRANCH  18  20
HETATM   20  C   UNL     1     -10.560  16.498  68.645  1.00  0.00    -0.316 C  
HETATM   21  O   UNL     1     -10.752  16.997  69.746  1.00  0.00    -0.243 OA 
BRANCH  20  22
HETATM   22  N   UNL     1      -9.817  17.098  67.656  1.00  0.00    -0.263 N  
HETATM   23  H   UNL     1      -9.333  16.554  66.941  1.00  0.00     0.000 HD 
BRANCH  22  24
HETATM   24  C   UNL     1      -9.762  18.534  67.685  1.00  0.00    -0.296 C  
HETATM   25  N   UNL     1      -8.464  19.121  67.911  1.00  0.00    -0.292 N  
HETATM   26  O   UNL     1     -10.862  18.865  65.474  1.00  0.00    -0.483 OA 
HETATM   27  C   UNL     1      -8.306  20.280  67.178  1.00  0.00    -0.336 C  
HETATM   28  N   UNL     1      -9.306  20.349  66.264  1.00  0.00    -0.212 NA 
HETATM   29  O   UNL     1      -7.402  21.091  67.285  1.00  0.00    -0.363 OA 
HETATM   30  C   UNL     1     -10.074  19.224  66.335  1.00  0.00    -0.429 C  
BRANCH  25  31
HETATM   31  C   UNL     1      -7.589  18.725  68.968  1.00  0.00    -0.222 C  
HETATM   32  H   UNL     1      -6.910  17.057  69.672  1.00  0.00     0.000 HD 
HETATM   33  O   UNL     1      -7.491  17.321  68.969  1.00  0.00    -0.248 OA 
ENDBRANCH  25  31
ENDBRANCH  22  24
ENDBRANCH  20  22
ENDBRANCH  18  20
ENDBRANCH  17  18
ENDBRANCH  15  17
ENDBRANCH  13  15
ENDBRANCH  11  13
ENDBRANCH   5  11
ENDBRANCH   2   4
TORSDOF 10
ENDMDL
MODEL       53
REMARK 921   NORMALIZED FREE ENERGY PREDICTED BY IDOCK:   -6.03 KCAL/MOL
REMARK 922        TOTAL FREE ENERGY PREDICTED BY IDOCK:  -11.55 KCAL/MOL
REMARK 923 INTER-LIGAND FREE ENERGY PREDICTED BY IDOCK:   -9.25 KCAL/MOL
REMARK 924 INTRA-LIGAND FREE ENERGY PREDICTED BY IDOCK:   -2.29 KCAL/MOL
REMARK 927      BINDING AFFINITY PREDICTED BY RF-SCORE:    0.00 PKD
ROOT
HETATM    1  O   UNL     1     -10.465  16.970  65.500  1.00  0.00    -0.572 OA 
HETATM    2  C   UNL     1     -10.119  15.606  65.523  1.00  0.00    -0.362 C  
HETATM    3  H   UNL     1      -9.670  17.490  65.506  1.00  0.00     0.000 HD 
ENDROOT
BRANCH   2   4
HETATM    4  N   UNL     1     -11.318  14.822  65.516  1.00  0.00    -0.340 N  
HETATM    5  C   UNL     1     -11.292  13.438  65.943  1.00  0.00    -0.309 C  
HETATM    6  O   UNL     1     -12.335  16.020  63.803  1.00  0.00    -0.858 OA 
HETATM    7  C   UNL     1     -12.248  12.830  64.892  1.00  0.00    -0.463 C  
HETATM    8  N   UNL     1     -12.866  13.852  64.240  1.00  0.00    -0.492 NA 
HETATM    9  O   UNL     1     -12.494  11.649  64.699  1.00  0.00    -0.094 OA 
HETATM   10  C   UNL     1     -12.214  15.011  64.479  1.00  0.00    -0.331 C  
BRANCH   5  11
HETATM   11  N   UNL     1     -11.857  13.288  67.261  1.00  0.00    -0.372 N  
HETATM   12  H   UNL     1     -12.474  14.012  67.628  1.00  0.00     0.000 HD 
BRANCH  11  13
HETATM   13  C   UNL     1     -11.578  12.191  68.024  1.00  0.00    -0.348 C  
HETATM   14  O   UNL     1     -11.628  11.043  67.606  1.00  0.00    -0.526 OA 
BRANCH  13  15
HETATM   15  N   UNL     1     -11.158  12.526  69.284  1.00  0.00    -0.421 N  
HETATM   16  H   UNL     1     -10.259  12.189  69.629  1.00  0.00     0.000 HD 
BRANCH  15  17
HETATM   17  C   UNL     1     -11.983  13.348  70.118  1.00  0.00    -0.326 C  
BRANCH  17  18
HETATM   18  N   UNL     1     -11.259  14.465  70.666  1.00  0.00    -0.500 N  
HETATM   19  H   UNL     1     -11.127  14.548  71.675  1.00  0.00     0.000 HD 
BRANCH  18  20
HETATM   20  C   UNL     1     -10.749  15.416  69.822  1.00  0.00    -0.291 C  
HETATM   21  O   UNL     1     -11.438  16.201  69.184  1.00  0.00    -0.338 OA 
BRANCH  20  22
HETATM   22  N   UNL     1      -9.375  15.400  69.781  1.00  0.00    -0.409 N  
HETATM   23  H   UNL     1      -8.809  15.450  70.629  1.00  0.00     0.000 HD 
BRANCH  22  24
HETATM   24  C   UNL     1      -8.780  15.309  68.475  1.00  0.00    -0.176 C  
HETATM   25  N   UNL     1      -7.763  16.283  68.165  1.00  0.00    -0.153 N  
HETATM   26  O   UNL     1      -8.128  12.912  68.672  1.00  0.00    -0.110 OA 
HETATM   27  C   UNL     1      -6.759  15.730  67.395  1.00  0.00    -0.194 C  
HETATM   28  N   UNL     1      -6.901  14.380  67.413  1.00  0.00    -0.256 NA 
HETATM   29  O   UNL     1      -5.861  16.329  66.830  1.00  0.00    -0.335 OA 
HETATM   30  C   UNL     1      -7.933  14.036  68.235  1.00  0.00    -0.146 C  
BRANCH  25  31
HETATM   31  C   UNL     1      -7.923  17.688  68.368  1.00  0.00    -0.270 C  
HETATM   32  H   UNL     1      -9.350  18.978  68.164  1.00  0.00     0.000 HD 
HETATM   33  O   UNL     1      -9.243  18.043  68.029  1.00  0.00    -0.260 OA 
ENDBRANCH  25  31
ENDBRANCH  22  24
ENDBRANCH  20  22
ENDBRANCH  18  20
ENDBRANCH  17  18
ENDBRANCH  15  17
ENDBRANCH  13  15
ENDBRANCH  11  13
ENDBRANCH   5  11
ENDBRANCH   2   4
TORSDOF 10
ENDMDL
MODEL       54
REMARK 921   NORMALIZED FREE ENERGY PREDICTED BY IDOCK:   -6.02 KCAL/MOL
REMARK 922        TOTAL FREE ENERGY PREDICTED BY IDOCK:  -11.53 KCAL/MOL
REMARK 923 INTER-LIGAND FREE ENERGY PREDICTED BY IDOCK:   -8.97 KCAL/MOL
REMARK 924 INTRA-LIGAND FREE ENERGY PREDICTED BY IDOCK:   -2.56 KCAL/MOL
REMARK 927      BINDING AFFINITY PREDICTED BY RF-SCORE:    0.00 PKD
ROOT
HETATM    1  O   UNL     1     -10.315  11.149  63.060  1.00  0.00    -0.612 OA 
HETATM    2  C   UNL     1      -9.627  10.259  63.906  1.00  0.00    -0.293 C  
HETATM    3  H   UNL     1     -10.066  10.974  62.160  1.00  0.00     0.000 HD 
ENDROOT
BRANCH   2   4
HETATM    4  N   UNL     1     -10.001  10.524  65.263  1.00  0.00    -0.279 N  
HETATM    5  C   UNL     1      -9.991  11.879  65.777  1.00  0.00    -0.236 C  
HETATM    6  O   UNL     1      -9.371   8.433  66.059  1.00  0.00    -0.209 OA 
HETATM    7  C   UNL     1      -9.421  11.610  67.188  1.00  0.00    -0.176 C  
HETATM    8  N   UNL     1      -9.438  10.267  67.403  1.00  0.00    -0.152 NA 
HETATM    9  O   UNL     1      -9.076  12.432  68.024  1.00  0.00    -0.183 OA 
HETATM   10  C   UNL     1      -9.619   9.615  66.234  1.00  0.00    -0.221 C  
BRANCH   5  11
HETATM   11  N   UNL     1     -11.329  12.406  65.884  1.00  0.00    -0.339 N  
HETATM   12  H   UNL     1     -12.093  11.787  66.153  1.00  0.00     0.000 HD 
BRANCH  11  13
HETATM   13  C   UNL     1     -11.587  13.722  65.629  1.00  0.00    -0.330 C  
HETATM   14  O   UNL     1     -12.707  14.167  65.422  1.00  0.00    -0.545 OA 
BRANCH  13  15
HETATM   15  N   UNL     1     -10.461  14.499  65.711  1.00  0.00    -0.306 N  
HETATM   16  H   UNL     1      -9.705  14.374  65.039  1.00  0.00     0.000 HD 
BRANCH  15  17
HETATM   17  C   UNL     1     -10.349  15.487  66.742  1.00  0.00    -0.288 C  
BRANCH  17  18
HETATM   18  N   UNL     1     -10.704  14.966  68.036  1.00  0.00    -0.248 N  
HETATM   19  H   UNL     1     -11.151  14.052  68.118  1.00  0.00     0.000 HD 
BRANCH  18  20
HETATM   20  C   UNL     1     -10.436  15.707  69.157  1.00  0.00    -0.236 C  
HETATM   21  O   UNL     1     -10.062  16.871  69.131  1.00  0.00    -0.278 OA 
BRANCH  20  22
HETATM   22  N   UNL     1     -10.647  15.000  70.317  1.00  0.00    -0.491 N  
HETATM   23  H   UNL     1      -9.878  14.582  70.841  1.00  0.00     0.000 HD 
BRANCH  22  24
HETATM   24  C   UNL     1     -12.013  14.883  70.750  1.00  0.00    -0.314 C  
HETATM   25  N   UNL     1     -12.445  13.570  71.161  1.00  0.00    -0.358 N  
HETATM   26  O   UNL     1     -11.882  16.695  72.457  1.00  0.00    -0.506 OA 
HETATM   27  C   UNL     1     -13.324  13.644  72.223  1.00  0.00    -0.525 C  
HETATM   28  N   UNL     1     -13.284  14.903  72.727  1.00  0.00    -0.435 NA 
HETATM   29  O   UNL     1     -13.994  12.732  72.678  1.00  0.00    -0.503 OA 
HETATM   30  C   UNL     1     -12.345  15.635  72.062  1.00  0.00    -0.423 C  
BRANCH  25  31
HETATM   31  C   UNL     1     -12.231  12.388  70.389  1.00  0.00    -0.287 C  
HETATM   32  H   UNL     1     -12.055  11.955  68.512  1.00  0.00     0.000 HD 
HETATM   33  O   UNL     1     -12.197  12.741  69.027  1.00  0.00    -0.196 OA 
ENDBRANCH  25  31
ENDBRANCH  22  24
ENDBRANCH  20  22
ENDBRANCH  18  20
ENDBRANCH  17  18
ENDBRANCH  15  17
ENDBRANCH  13  15
ENDBRANCH  11  13
ENDBRANCH   5  11
ENDBRANCH   2   4
TORSDOF 10
ENDMDL
MODEL       55
REMARK 921   NORMALIZED FREE ENERGY PREDICTED BY IDOCK:   -6.02 KCAL/MOL
REMARK 922        TOTAL FREE ENERGY PREDICTED BY IDOCK:  -11.53 KCAL/MOL
REMARK 923 INTER-LIGAND FREE ENERGY PREDICTED BY IDOCK:   -9.35 KCAL/MOL
REMARK 924 INTRA-LIGAND FREE ENERGY PREDICTED BY IDOCK:   -2.18 KCAL/MOL
REMARK 927      BINDING AFFINITY PREDICTED BY RF-SCORE:    0.00 PKD
ROOT
HETATM    1  O   UNL     1     -11.629  15.999  63.859  1.00  0.00    -1.193 OA 
HETATM    2  C   UNL     1     -10.922  15.442  64.940  1.00  0.00    -0.437 C  
HETATM    3  H   UNL     1     -11.444  16.930  63.815  1.00  0.00     0.000 HD 
ENDROOT
BRANCH   2   4
HETATM    4  N   UNL     1     -11.202  14.039  65.006  1.00  0.00    -0.336 N  
HETATM    5  C   UNL     1     -10.433  13.099  64.215  1.00  0.00    -0.389 C  
HETATM    6  O   UNL     1     -13.441  14.304  65.569  1.00  0.00    -0.580 OA 
HETATM    7  C   UNL     1     -11.567  12.143  63.783  1.00  0.00    -0.470 C  
HETATM    8  N   UNL     1     -12.673  12.438  64.518  1.00  0.00    -0.676 NA 
HETATM    9  O   UNL     1     -11.505  11.221  62.983  1.00  0.00     0.054 OA 
HETATM   10  C   UNL     1     -12.523  13.641  65.114  1.00  0.00    -0.449 C  
BRANCH   5  11
HETATM   11  N   UNL     1      -9.481  12.387  65.032  1.00  0.00    -0.448 N  
HETATM   12  H   UNL     1      -8.863  12.908  65.654  1.00  0.00     0.000 HD 
BRANCH  11  13
HETATM   13  C   UNL     1      -9.394  11.026  64.983  1.00  0.00    -0.221 C  
HETATM   14  O   UNL     1      -8.637  10.420  64.237  1.00  0.00    -0.180 OA 
BRANCH  13  15
HETATM   15  N   UNL     1     -10.190  10.419  65.919  1.00  0.00    -0.251 N  
HETATM   16  H   UNL     1     -11.202  10.413  65.801  1.00  0.00     0.000 HD 
BRANCH  15  17
HETATM   17  C   UNL     1      -9.597   9.793  67.064  1.00  0.00    -0.172 C  
BRANCH  17  18
HETATM   18  N   UNL     1     -10.326  10.071  68.273  1.00  0.00    -0.183 N  
HETATM   19  H   UNL     1     -10.263   9.437  69.070  1.00  0.00     0.000 HD 
BRANCH  18  20
HETATM   20  C   UNL     1     -11.107  11.195  68.346  1.00  0.00    -0.247 C  
HETATM   21  O   UNL     1     -12.243  11.266  67.896  1.00  0.00    -0.570 OA 
BRANCH  20  22
HETATM   22  N   UNL     1     -10.476  12.232  68.993  1.00  0.00    -0.419 N  
HETATM   23  H   UNL     1      -9.991  12.098  69.880  1.00  0.00     0.000 HD 
BRANCH  22  24
HETATM   24  C   UNL     1     -10.540  13.515  68.347  1.00  0.00    -0.248 C  
HETATM   25  N   UNL     1     -11.108  14.593  69.118  1.00  0.00    -0.257 N  
HETATM   26  O   UNL     1      -8.122  13.607  67.751  1.00  0.00    -0.144 OA 
HETATM   27  C   UNL     1     -10.459  15.785  68.863  1.00  0.00    -0.223 C  
HETATM   28  N   UNL     1      -9.315  15.513  68.187  1.00  0.00    -0.196 NA 
HETATM   29  O   UNL     1     -10.812  16.895  69.220  1.00  0.00    -0.311 OA 
HETATM   30  C   UNL     1      -9.166  14.164  68.056  1.00  0.00    -0.195 C  
BRANCH  25  31
HETATM   31  C   UNL     1     -12.353  14.500  69.813  1.00  0.00    -0.272 C  
HETATM   32  H   UNL     1     -12.951  13.840  71.529  1.00  0.00     0.000 HD 
HETATM   33  O   UNL     1     -12.123  13.902  71.066  1.00  0.00    -0.340 OA 
ENDBRANCH  25  31
ENDBRANCH  22  24
ENDBRANCH  20  22
ENDBRANCH  18  20
ENDBRANCH  17  18
ENDBRANCH  15  17
ENDBRANCH  13  15
ENDBRANCH  11  13
ENDBRANCH   5  11
ENDBRANCH   2   4
TORSDOF 10
ENDMDL
MODEL       56
REMARK 921   NORMALIZED FREE ENERGY PREDICTED BY IDOCK:   -6.01 KCAL/MOL
REMARK 922        TOTAL FREE ENERGY PREDICTED BY IDOCK:  -11.52 KCAL/MOL
REMARK 923 INTER-LIGAND FREE ENERGY PREDICTED BY IDOCK:   -9.03 KCAL/MOL
REMARK 924 INTRA-LIGAND FREE ENERGY PREDICTED BY IDOCK:   -2.49 KCAL/MOL
REMARK 927      BINDING AFFINITY PREDICTED BY RF-SCORE:    0.00 PKD
ROOT
HETATM    1  O   UNL     1      -9.259   8.816  72.334  1.00  0.00    -0.361 OA 
HETATM    2  C   UNL     1      -9.560   8.942  70.965  1.00  0.00    -0.255 C  
HETATM    3  H   UNL     1      -8.332   8.631  72.431  1.00  0.00     0.000 HD 
ENDROOT
BRANCH   2   4
HETATM    4  N   UNL     1     -10.957   9.221  70.819  1.00  0.00    -0.260 N  
HETATM    5  C   UNL     1     -11.412  10.571  70.554  1.00  0.00    -0.345 C  
HETATM    6  O   UNL     1     -11.659   7.458  72.162  1.00  0.00    -0.275 OA 
HETATM    7  C   UNL     1     -12.668  10.596  71.455  1.00  0.00    -0.444 C  
HETATM    8  N   UNL     1     -12.925   9.323  71.861  1.00  0.00    -0.378 NA 
HETATM    9  O   UNL     1     -13.380  11.554  71.720  1.00  0.00    -0.403 OA 
HETATM   10  C   UNL     1     -11.846   8.542  71.633  1.00  0.00    -0.311 C  
BRANCH   5  11
HETATM   11  N   UNL     1     -11.799  10.729  69.174  1.00  0.00    -0.454 N  
HETATM   12  H   UNL     1     -12.725  10.427  68.874  1.00  0.00     0.000 HD 
BRANCH  11  13
HETATM   13  C   UNL     1     -10.942  11.277  68.265  1.00  0.00    -0.224 C  
HETATM   14  O   UNL     1      -9.892  11.828  68.567  1.00  0.00    -0.203 OA 
BRANCH  13  15
HETATM   15  N   UNL     1     -11.349  11.070  66.973  1.00  0.00    -0.188 N  
HETATM   16  H   UNL     1     -12.189  10.523  66.785  1.00  0.00     0.000 HD 
BRANCH  15  17
HETATM   17  C   UNL     1     -10.593  11.621  65.888  1.00  0.00    -0.271 C  
BRANCH  17  18
HETATM   18  N   UNL     1     -10.933  12.996  65.632  1.00  0.00    -0.272 N  
HETATM   19  H   UNL     1     -10.202  13.676  65.422  1.00  0.00     0.000 HD 
BRANCH  18  20
HETATM   20  C   UNL     1     -12.246  13.384  65.674  1.00  0.00    -0.463 C  
HETATM   21  O   UNL     1     -13.150  12.794  65.097  1.00  0.00    -0.750 OA 
BRANCH  20  22
HETATM   22  N   UNL     1     -12.439  14.506  66.446  1.00  0.00    -0.405 N  
HETATM   23  H   UNL     1     -13.306  15.041  66.411  1.00  0.00     0.000 HD 
BRANCH  22  24
HETATM   24  C   UNL     1     -11.349  14.879  67.305  1.00  0.00    -0.349 C  
HETATM   25  N   UNL     1     -10.940  16.261  67.258  1.00  0.00    -0.211 N  
HETATM   26  O   UNL     1     -12.378  14.001  69.399  1.00  0.00    -0.333 OA 
HETATM   27  C   UNL     1     -10.565  16.714  68.507  1.00  0.00    -0.338 C  
HETATM   28  N   UNL     1     -10.967  15.806  69.431  1.00  0.00    -0.271 NA 
HETATM   29  O   UNL     1     -10.011  17.769  68.762  1.00  0.00    -0.347 OA 
HETATM   30  C   UNL     1     -11.661  14.803  68.820  1.00  0.00    -0.320 C  
BRANCH  25  31
HETATM   31  C   UNL     1     -10.674  16.967  66.045  1.00  0.00    -0.116 C  
HETATM   32  H   UNL     1      -9.905  16.547  64.321  1.00  0.00     0.000 HD 
HETATM   33  O   UNL     1     -10.083  16.078  65.128  1.00  0.00    -0.485 OA 
ENDBRANCH  25  31
ENDBRANCH  22  24
ENDBRANCH  20  22
ENDBRANCH  18  20
ENDBRANCH  17  18
ENDBRANCH  15  17
ENDBRANCH  13  15
ENDBRANCH  11  13
ENDBRANCH   5  11
ENDBRANCH   2   4
TORSDOF 10
ENDMDL
MODEL       57
REMARK 921   NORMALIZED FREE ENERGY PREDICTED BY IDOCK:   -6.00 KCAL/MOL
REMARK 922        TOTAL FREE ENERGY PREDICTED BY IDOCK:  -11.50 KCAL/MOL
REMARK 923 INTER-LIGAND FREE ENERGY PREDICTED BY IDOCK:   -9.15 KCAL/MOL
REMARK 924 INTRA-LIGAND FREE ENERGY PREDICTED BY IDOCK:   -2.35 KCAL/MOL
REMARK 927      BINDING AFFINITY PREDICTED BY RF-SCORE:    0.00 PKD
ROOT
HETATM    1  O   UNL     1      -9.066  14.921  66.161  1.00  0.00    -0.434 OA 
HETATM    2  C   UNL     1      -9.461  13.631  66.560  1.00  0.00    -0.259 C  
HETATM    3  H   UNL     1      -8.213  15.112  66.532  1.00  0.00     0.000 HD 
ENDROOT
BRANCH   2   4
HETATM    4  N   UNL     1     -10.748  13.344  66.002  1.00  0.00    -0.276 N  
HETATM    5  C   UNL     1     -10.869  12.891  64.631  1.00  0.00    -0.342 C  
HETATM    6  O   UNL     1     -11.901  14.818  67.380  1.00  0.00    -0.377 OA 
HETATM    7  C   UNL     1     -12.131  13.681  64.214  1.00  0.00    -0.434 C  
HETATM    8  N   UNL     1     -12.692  14.207  65.336  1.00  0.00    -0.617 NA 
HETATM    9  O   UNL     1     -12.618  13.777  63.098  1.00  0.00    -0.793 OA 
HETATM   10  C   UNL     1     -11.810  14.156  66.359  1.00  0.00    -0.423 C  
BRANCH   5  11
HETATM   11  N   UNL     1     -11.137  11.476  64.570  1.00  0.00    -0.304 N  
HETATM   12  H   UNL     1     -12.061  11.128  64.825  1.00  0.00     0.000 HD 
BRANCH  11  13
HETATM   13  C   UNL     1     -10.171  10.595  64.178  1.00  0.00    -0.295 C  
HETATM   14  O   UNL     1      -9.519  10.717  63.150  1.00  0.00    -0.269 OA 
BRANCH  13  15
HETATM   15  N   UNL     1      -9.960   9.606  65.102  1.00  0.00    -0.402 N  
HETATM   16  H   UNL     1     -10.295   8.660  64.923  1.00  0.00     0.000 HD 
BRANCH  15  17
HETATM   17  C   UNL     1      -9.268   9.903  66.321  1.00  0.00    -0.168 C  
BRANCH  17  18
HETATM   18  N   UNL     1      -9.943   9.367  67.473  1.00  0.00    -0.187 N  
HETATM   19  H   UNL     1      -9.735   8.422  67.799  1.00  0.00     0.000 HD 
BRANCH  18  20
HETATM   20  C   UNL     1     -10.866  10.136  68.131  1.00  0.00    -0.262 C  
HETATM   21  O   UNL     1     -11.780  10.729  67.574  1.00  0.00    -0.510 OA 
BRANCH  20  22
HETATM   22  N   UNL     1     -10.660  10.159  69.491  1.00  0.00    -0.228 N  
HETATM   23  H   UNL     1      -9.995  10.798  69.924  1.00  0.00     0.000 HD 
BRANCH  22  24
HETATM   24  C   UNL     1     -11.437   9.229  70.265  1.00  0.00    -0.162 C  
HETATM   25  N   UNL     1     -10.702   8.374  71.165  1.00  0.00    -0.223 N  
HETATM   26  O   UNL     1     -12.978  10.938  71.221  1.00  0.00    -0.384 OA 
HETATM   27  C   UNL     1     -11.405   8.158  72.333  1.00  0.00    -0.391 C  
HETATM   28  N   UNL     1     -12.432   9.042  72.386  1.00  0.00    -0.342 NA 
HETATM   29  O   UNL     1     -11.135   7.350  73.205  1.00  0.00    -0.365 OA 
HETATM   30  C   UNL     1     -12.374   9.880  71.311  1.00  0.00    -0.381 C  
BRANCH  25  31
HETATM   31  C   UNL     1      -9.553   7.618  70.778  1.00  0.00    -0.166 C  
HETATM   32  H   UNL     1      -9.024   6.561  69.248  1.00  0.00     0.000 HD 
HETATM   33  O   UNL     1      -9.788   7.064  69.506  1.00  0.00    -0.159 OA 
ENDBRANCH  25  31
ENDBRANCH  22  24
ENDBRANCH  20  22
ENDBRANCH  18  20
ENDBRANCH  17  18
ENDBRANCH  15  17
ENDBRANCH  13  15
ENDBRANCH  11  13
ENDBRANCH   5  11
ENDBRANCH   2   4
TORSDOF 10
ENDMDL
MODEL       58
REMARK 921   NORMALIZED FREE ENERGY PREDICTED BY IDOCK:   -5.99 KCAL/MOL
REMARK 922        TOTAL FREE ENERGY PREDICTED BY IDOCK:  -11.49 KCAL/MOL
REMARK 923 INTER-LIGAND FREE ENERGY PREDICTED BY IDOCK:   -9.92 KCAL/MOL
REMARK 924 INTRA-LIGAND FREE ENERGY PREDICTED BY IDOCK:   -1.57 KCAL/MOL
REMARK 927      BINDING AFFINITY PREDICTED BY RF-SCORE:    0.00 PKD
ROOT
HETATM    1  O   UNL     1     -13.499   7.276  72.384  1.00  0.00    -0.472 OA 
HETATM    2  C   UNL     1     -13.077   8.615  72.490  1.00  0.00    -0.289 C  
HETATM    3  H   UNL     1     -14.388   7.206  72.713  1.00  0.00     0.000 HD 
ENDROOT
BRANCH   2   4
HETATM    4  N   UNL     1     -11.736   8.720  71.995  1.00  0.00    -0.359 N  
HETATM    5  C   UNL     1     -11.488   9.140  70.631  1.00  0.00    -0.262 C  
HETATM    6  O   UNL     1     -10.862   7.115  73.432  1.00  0.00    -0.351 OA 
HETATM    7  C   UNL     1     -10.326   8.184  70.279  1.00  0.00    -0.209 C  
HETATM    8  N   UNL     1      -9.897   7.596  71.429  1.00  0.00    -0.173 NA 
HETATM    9  O   UNL     1      -9.802   8.012  69.188  1.00  0.00    -0.171 OA 
HETATM   10  C   UNL     1     -10.813   7.774  72.406  1.00  0.00    -0.303 C  
BRANCH   5  11
HETATM   11  N   UNL     1     -11.028  10.505  70.581  1.00  0.00    -0.398 N  
HETATM   12  H   UNL     1     -10.216  10.783  71.132  1.00  0.00     0.000 HD 
BRANCH  11  13
HETATM   13  C   UNL     1     -11.664  11.432  69.807  1.00  0.00    -0.344 C  
HETATM   14  O   UNL     1     -12.323  11.151  68.815  1.00  0.00    -0.539 OA 
BRANCH  13  15
HETATM   15  N   UNL     1     -11.549  12.701  70.311  1.00  0.00    -0.538 N  
HETATM   16  H   UNL     1     -11.607  12.857  71.317  1.00  0.00     0.000 HD 
BRANCH  15  17
HETATM   17  C   UNL     1     -11.347  13.807  69.423  1.00  0.00    -0.250 C  
BRANCH  17  18
HETATM   18  N   UNL     1      -9.976  13.920  68.999  1.00  0.00    -0.427 N  
HETATM   19  H   UNL     1      -9.285  13.234  69.302  1.00  0.00     0.000 HD 
BRANCH  18  20
HETATM   20  C   UNL     1      -9.607  14.958  68.183  1.00  0.00    -0.210 C  
HETATM   21  O   UNL     1      -8.464  15.387  68.102  1.00  0.00    -0.144 OA 
BRANCH  20  22
HETATM   22  N   UNL     1     -10.662  15.457  67.456  1.00  0.00    -0.288 N  
HETATM   23  H   UNL     1     -11.440  15.945  67.900  1.00  0.00     0.000 HD 
BRANCH  22  24
HETATM   24  C   UNL     1     -10.607  15.250  66.035  1.00  0.00    -0.319 C  
HETATM   25  N   UNL     1     -11.622  14.394  65.471  1.00  0.00    -0.341 N  
HETATM   26  O   UNL     1     -10.609  17.670  65.437  1.00  0.00    -0.657 OA 
HETATM   27  C   UNL     1     -12.021  14.843  64.229  1.00  0.00    -0.338 C  
HETATM   28  N   UNL     1     -11.542  16.101  64.053  1.00  0.00    -0.889 NA 
HETATM   29  O   UNL     1     -12.725  14.248  63.432  1.00  0.00    -0.733 OA 
HETATM   30  C   UNL     1     -10.898  16.510  65.184  1.00  0.00    -0.233 C  
BRANCH  25  31
HETATM   31  C   UNL     1     -11.946  13.103  65.990  1.00  0.00    -0.433 C  
HETATM   32  H   UNL     1     -10.971  11.509  66.486  1.00  0.00     0.000 HD 
HETATM   33  O   UNL     1     -10.756  12.368  66.141  1.00  0.00    -0.250 OA 
ENDBRANCH  25  31
ENDBRANCH  22  24
ENDBRANCH  20  22
ENDBRANCH  18  20
ENDBRANCH  17  18
ENDBRANCH  15  17
ENDBRANCH  13  15
ENDBRANCH  11  13
ENDBRANCH   5  11
ENDBRANCH   2   4
TORSDOF 10
ENDMDL
MODEL       59
REMARK 921   NORMALIZED FREE ENERGY PREDICTED BY IDOCK:   -5.98 KCAL/MOL
REMARK 922        TOTAL FREE ENERGY PREDICTED BY IDOCK:  -11.48 KCAL/MOL
REMARK 923 INTER-LIGAND FREE ENERGY PREDICTED BY IDOCK:   -9.44 KCAL/MOL
REMARK 924 INTRA-LIGAND FREE ENERGY PREDICTED BY IDOCK:   -2.04 KCAL/MOL
REMARK 927      BINDING AFFINITY PREDICTED BY RF-SCORE:    0.00 PKD
ROOT
HETATM    1  O   UNL     1     -14.341   8.847  72.975  1.00  0.00    -1.115 OA 
HETATM    2  C   UNL     1     -13.990   7.993  71.913  1.00  0.00    -0.367 C  
HETATM    3  H   UNL     1     -15.268   8.745  73.160  1.00  0.00     0.000 HD 
ENDROOT
BRANCH   2   4
HETATM    4  N   UNL     1     -12.593   8.147  71.635  1.00  0.00    -0.313 N  
HETATM    5  C   UNL     1     -12.149   9.036  70.580  1.00  0.00    -0.036 C  
HETATM    6  O   UNL     1     -12.000   6.032  72.394  1.00  0.00    -0.302 OA 
HETATM    7  C   UNL     1     -11.004   8.180  69.993  1.00  0.00    -0.199 C  
HETATM    8  N   UNL     1     -10.760   7.153  70.851  1.00  0.00    -0.228 NA 
HETATM    9  O   UNL     1     -10.354   8.394  68.980  1.00  0.00    -0.215 OA 
HETATM   10  C   UNL     1     -11.783   7.029  71.724  1.00  0.00    -0.298 C  
BRANCH   5  11
HETATM   11  N   UNL     1     -11.613  10.261  71.122  1.00  0.00    -0.343 N  
HETATM   12  H   UNL     1     -10.616  10.327  71.324  1.00  0.00     0.000 HD 
BRANCH  11  13
HETATM   13  C   UNL     1     -12.423  11.331  71.369  1.00  0.00    -0.287 C  
HETATM   14  O   UNL     1     -13.332  11.322  72.188  1.00  0.00    -0.457 OA 
BRANCH  13  15
HETATM   15  N   UNL     1     -12.052  12.441  70.656  1.00  0.00    -0.490 N  
HETATM   16  H   UNL     1     -11.314  12.374  69.956  1.00  0.00     0.000 HD 
BRANCH  15  17
HETATM   17  C   UNL     1     -12.702  13.695  70.895  1.00  0.00    -0.310 C  
BRANCH  17  18
HETATM   18  N   UNL     1     -12.839  14.475  69.693  1.00  0.00    -0.491 N  
HETATM   19  H   UNL     1     -13.726  14.927  69.470  1.00  0.00     0.000 HD 
BRANCH  18  20
HETATM   20  C   UNL     1     -11.767  14.605  68.850  1.00  0.00    -0.309 C  
HETATM   21  O   UNL     1     -10.622  14.811  69.230  1.00  0.00    -0.239 OA 
BRANCH  20  22
HETATM   22  N   UNL     1     -12.117  14.466  67.527  1.00  0.00    -0.587 N  
HETATM   23  H   UNL     1     -13.024  14.774  67.175  1.00  0.00     0.000 HD 
BRANCH  22  24
HETATM   24  C   UNL     1     -11.134  13.862  66.670  1.00  0.00    -0.306 C  
HETATM   25  N   UNL     1     -11.284  12.449  66.419  1.00  0.00    -0.301 N  
HETATM   26  O   UNL     1     -11.444  15.458  64.782  1.00  0.00    -0.393 OA 
HETATM   27  C   UNL     1     -10.929  12.133  65.123  1.00  0.00    -0.310 C  
HETATM   28  N   UNL     1     -10.823  13.284  64.414  1.00  0.00    -0.388 NA 
HETATM   29  O   UNL     1     -10.779  11.014  64.663  1.00  0.00    -0.324 OA 
HETATM   30  C   UNL     1     -11.171  14.343  65.199  1.00  0.00    -0.359 C  
BRANCH  25  31
HETATM   31  C   UNL     1     -11.481  11.478  67.448  1.00  0.00    -0.274 C  
HETATM   32  H   UNL     1     -10.598  10.988  69.096  1.00  0.00     0.000 HD 
HETATM   33  O   UNL     1     -10.468  11.633  68.412  1.00  0.00    -0.197 OA 
ENDBRANCH  25  31
ENDBRANCH  22  24
ENDBRANCH  20  22
ENDBRANCH  18  20
ENDBRANCH  17  18
ENDBRANCH  15  17
ENDBRANCH  13  15
ENDBRANCH  11  13
ENDBRANCH   5  11
ENDBRANCH   2   4
TORSDOF 10
ENDMDL
MODEL       60
REMARK 921   NORMALIZED FREE ENERGY PREDICTED BY IDOCK:   -5.98 KCAL/MOL
REMARK 922        TOTAL FREE ENERGY PREDICTED BY IDOCK:  -11.47 KCAL/MOL
REMARK 923 INTER-LIGAND FREE ENERGY PREDICTED BY IDOCK:   -8.97 KCAL/MOL
REMARK 924 INTRA-LIGAND FREE ENERGY PREDICTED BY IDOCK:   -2.50 KCAL/MOL
REMARK 927      BINDING AFFINITY PREDICTED BY RF-SCORE:    0.00 PKD
ROOT
HETATM    1  O   UNL     1     -10.579  19.727  65.852  1.00  0.00    -0.510 OA 
HETATM    2  C   UNL     1      -9.233  19.544  66.220  1.00  0.00    -0.365 C  
HETATM    3  H   UNL     1     -10.659  20.540  65.368  1.00  0.00     0.000 HD 
ENDROOT
BRANCH   2   4
HETATM    4  N   UNL     1      -9.113  18.318  66.951  1.00  0.00    -0.275 N  
HETATM    5  C   UNL     1     -10.268  17.466  67.151  1.00  0.00    -0.323 C  
HETATM    6  O   UNL     1      -7.318  19.028  68.246  1.00  0.00    -0.264 OA 
HETATM    7  C   UNL     1     -10.011  17.031  68.612  1.00  0.00    -0.294 C  
HETATM    8  N   UNL     1      -8.746  17.402  68.949  1.00  0.00    -0.209 NA 
HETATM    9  O   UNL     1     -10.755  16.398  69.346  1.00  0.00    -0.284 OA 
HETATM   10  C   UNL     1      -8.273  18.293  68.050  1.00  0.00    -0.264 C  
BRANCH   5  11
HETATM   11  N   UNL     1     -10.223  16.315  66.285  1.00  0.00    -0.312 N  
HETATM   12  H   UNL     1      -9.680  15.498  66.562  1.00  0.00     0.000 HD 
BRANCH  11  13
HETATM   13  C   UNL     1     -10.899  16.303  65.099  1.00  0.00    -0.318 C  
HETATM   14  O   UNL     1     -11.214  17.314  64.487  1.00  0.00    -1.083 OA 
BRANCH  13  15
HETATM   15  N   UNL     1     -11.112  15.032  64.633  1.00  0.00    -0.605 N  
HETATM   16  H   UNL     1     -10.360  14.345  64.663  1.00  0.00     0.000 HD 
BRANCH  15  17
HETATM   17  C   UNL     1     -12.394  14.670  64.104  1.00  0.00    -0.265 C  
BRANCH  17  18
HETATM   18  N   UNL     1     -12.540  13.246  63.961  1.00  0.00    -0.673 N  
HETATM   19  H   UNL     1     -13.455  12.840  63.760  1.00  0.00     0.000 HD 
BRANCH  18  20
HETATM   20  C   UNL     1     -11.442  12.439  64.098  1.00  0.00    -0.381 C  
HETATM   21  O   UNL     1     -10.499  12.432  63.317  1.00  0.00    -0.395 OA 
BRANCH  20  22
HETATM   22  N   UNL     1     -11.509  11.644  65.219  1.00  0.00    -0.175 N  
HETATM   23  H   UNL     1     -12.360  11.145  65.475  1.00  0.00     0.000 HD 
BRANCH  22  24
HETATM   24  C   UNL     1     -10.310  11.558  66.008  1.00  0.00    -0.246 C  
HETATM   25  N   UNL     1     -10.485  11.548  67.439  1.00  0.00    -0.202 N  
HETATM   26  O   UNL     1      -9.431   9.511  64.890  1.00  0.00    -0.259 OA 
HETATM   27  C   UNL     1      -9.568  10.715  68.048  1.00  0.00    -0.157 C  
HETATM   28  N   UNL     1      -8.980   9.953  67.092  1.00  0.00    -0.138 NA 
HETATM   29  O   UNL     1      -9.346  10.628  69.244  1.00  0.00    -0.187 OA 
HETATM   30  C   UNL     1      -9.544  10.219  65.879  1.00  0.00    -0.209 C  
BRANCH  25  31
HETATM   31  C   UNL     1     -11.290  12.493  68.146  1.00  0.00    -0.295 C  
HETATM   32  H   UNL     1     -11.798  14.345  67.917  1.00  0.00     0.000 HD 
HETATM   33  O   UNL     1     -11.263  13.715  67.448  1.00  0.00    -0.284 OA 
ENDBRANCH  25  31
ENDBRANCH  22  24
ENDBRANCH  20  22
ENDBRANCH  18  20
ENDBRANCH  17  18
ENDBRANCH  15  17
ENDBRANCH  13  15
ENDBRANCH  11  13
ENDBRANCH   5  11
ENDBRANCH   2   4
TORSDOF 10
ENDMDL
MODEL       61
REMARK 921   NORMALIZED FREE ENERGY PREDICTED BY IDOCK:   -5.96 KCAL/MOL
REMARK 922        TOTAL FREE ENERGY PREDICTED BY IDOCK:  -11.44 KCAL/MOL
REMARK 923 INTER-LIGAND FREE ENERGY PREDICTED BY IDOCK:   -9.06 KCAL/MOL
REMARK 924 INTRA-LIGAND FREE ENERGY PREDICTED BY IDOCK:   -2.38 KCAL/MOL
REMARK 927      BINDING AFFINITY PREDICTED BY RF-SCORE:    0.00 PKD
ROOT
HETATM    1  O   UNL     1     -12.668  15.083  63.439  1.00  0.00    -0.570 OA 
HETATM    2  C   UNL     1     -12.281  14.742  64.748  1.00  0.00    -0.348 C  
HETATM    3  H   UNL     1     -13.103  15.927  63.455  1.00  0.00     0.000 HD 
ENDROOT
BRANCH   2   4
HETATM    4  N   UNL     1     -11.625  13.469  64.724  1.00  0.00    -0.335 N  
HETATM    5  C   UNL     1     -10.188  13.387  64.557  1.00  0.00    -0.297 C  
HETATM    6  O   UNL     1     -13.468  12.306  63.915  1.00  0.00    -0.473 OA 
HETATM    7  C   UNL     1     -10.112  12.163  63.615  1.00  0.00    -0.385 C  
HETATM    8  N   UNL     1     -11.339  11.576  63.584  1.00  0.00    -0.391 NA 
HETATM    9  O   UNL     1      -9.128  11.720  63.041  1.00  0.00    -0.228 OA 
HETATM   10  C   UNL     1     -12.265  12.417  64.093  1.00  0.00    -0.468 C  
BRANCH   5  11
HETATM   11  N   UNL     1      -9.534  13.083  65.805  1.00  0.00    -0.470 N  
HETATM   12  H   UNL     1      -9.278  12.119  66.017  1.00  0.00     0.000 HD 
BRANCH  11  13
HETATM   13  C   UNL     1      -9.254  14.067  66.708  1.00  0.00    -0.265 C  
HETATM   14  O   UNL     1      -8.807  15.164  66.400  1.00  0.00    -0.285 OA 
BRANCH  13  15
HETATM   15  N   UNL     1      -9.606  13.719  67.986  1.00  0.00    -0.208 N  
HETATM   16  H   UNL     1      -8.888  13.621  68.703  1.00  0.00     0.000 HD 
BRANCH  15  17
HETATM   17  C   UNL     1     -10.982  13.493  68.312  1.00  0.00    -0.258 C  
BRANCH  17  18
HETATM   18  N   UNL     1     -11.178  12.250  69.011  1.00  0.00    -0.256 N  
HETATM   19  H   UNL     1     -11.127  12.218  70.029  1.00  0.00     0.000 HD 
BRANCH  18  20
HETATM   20  C   UNL     1     -11.433  11.109  68.297  1.00  0.00    -0.303 C  
HETATM   21  O   UNL     1     -11.275  11.012  67.087  1.00  0.00    -0.309 OA 
BRANCH  20  22
HETATM   22  N   UNL     1     -11.875  10.078  69.092  1.00  0.00    -0.469 N  
HETATM   23  H   UNL     1     -12.721   9.552  68.872  1.00  0.00     0.000 HD 
BRANCH  22  24
HETATM   24  C   UNL     1     -11.078   9.784  70.252  1.00  0.00    -0.292 C  
HETATM   25  N   UNL     1     -11.785   9.291  71.408  1.00  0.00    -0.332 N  
HETATM   26  O   UNL     1      -9.490   8.266  69.076  1.00  0.00    -0.154 OA 
HETATM   27  C   UNL     1     -11.042   8.342  72.081  1.00  0.00    -0.345 C  
HETATM   28  N   UNL     1     -10.006   7.967  71.288  1.00  0.00    -0.172 NA 
HETATM   29  O   UNL     1     -11.285   7.872  73.179  1.00  0.00    -0.382 OA 
HETATM   30  C   UNL     1     -10.097   8.598  70.082  1.00  0.00    -0.185 C  
BRANCH  25  31
HETATM   31  C   UNL     1     -12.953   9.913  71.947  1.00  0.00    -0.448 C  
HETATM   32  H   UNL     1     -13.759  11.669  71.883  1.00  0.00     0.000 HD 
HETATM   33  O   UNL     1     -12.983  11.255  71.524  1.00  0.00    -0.428 OA 
ENDBRANCH  25  31
ENDBRANCH  22  24
ENDBRANCH  20  22
ENDBRANCH  18  20
ENDBRANCH  17  18
ENDBRANCH  15  17
ENDBRANCH  13  15
ENDBRANCH  11  13
ENDBRANCH   5  11
ENDBRANCH   2   4
TORSDOF 10
ENDMDL
MODEL       62
REMARK 921   NORMALIZED FREE ENERGY PREDICTED BY IDOCK:   -5.96 KCAL/MOL
REMARK 922        TOTAL FREE ENERGY PREDICTED BY IDOCK:  -11.44 KCAL/MOL
REMARK 923 INTER-LIGAND FREE ENERGY PREDICTED BY IDOCK:   -9.30 KCAL/MOL
REMARK 924 INTRA-LIGAND FREE ENERGY PREDICTED BY IDOCK:   -2.14 KCAL/MOL
REMARK 927      BINDING AFFINITY PREDICTED BY RF-SCORE:    0.00 PKD
ROOT
HETATM    1  O   UNL     1     -12.688  11.757  71.239  1.00  0.00    -0.387 OA 
HETATM    2  C   UNL     1     -13.377  12.825  71.843  1.00  0.00    -0.413 C  
HETATM    3  H   UNL     1     -12.884  10.956  71.710  1.00  0.00     0.000 HD 
ENDROOT
BRANCH   2   4
HETATM    4  N   UNL     1     -13.080  14.032  71.131  1.00  0.00    -0.323 N  
HETATM    5  C   UNL     1     -11.999  14.070  70.168  1.00  0.00    -0.330 C  
HETATM    6  O   UNL     1     -13.889  15.448  72.788  1.00  0.00    -0.504 OA 
HETATM    7  C   UNL     1     -11.423  15.468  70.488  1.00  0.00    -0.347 C  
HETATM    8  N   UNL     1     -12.304  16.114  71.297  1.00  0.00    -0.290 NA 
HETATM    9  O   UNL     1     -10.398  15.972  70.052  1.00  0.00    -0.281 OA 
HETATM   10  C   UNL     1     -13.191  15.233  71.810  1.00  0.00    -0.424 C  
BRANCH   5  11
HETATM   11  N   UNL     1     -12.503  14.048  68.817  1.00  0.00    -0.430 N  
HETATM   12  H   UNL     1     -13.308  14.623  68.571  1.00  0.00     0.000 HD 
BRANCH  11  13
HETATM   13  C   UNL     1     -11.917  13.268  67.862  1.00  0.00    -0.309 C  
HETATM   14  O   UNL     1     -12.005  12.048  67.834  1.00  0.00    -0.526 OA 
BRANCH  13  15
HETATM   15  N   UNL     1     -11.289  14.009  66.896  1.00  0.00    -0.316 N  
HETATM   16  H   UNL     1     -11.717  14.870  66.555  1.00  0.00     0.000 HD 
BRANCH  15  17
HETATM   17  C   UNL     1     -10.032  13.574  66.365  1.00  0.00    -0.295 C  
BRANCH  17  18
HETATM   18  N   UNL     1      -9.152  14.676  66.078  1.00  0.00    -0.505 N  
HETATM   19  H   UNL     1      -9.171  15.125  65.162  1.00  0.00     0.000 HD 
BRANCH  18  20
HETATM   20  C   UNL     1      -8.288  15.117  67.046  1.00  0.00    -0.231 C  
HETATM   21  O   UNL     1      -7.177  14.641  67.236  1.00  0.00    -0.185 OA 
BRANCH  20  22
HETATM   22  N   UNL     1      -8.803  16.165  67.772  1.00  0.00    -0.183 N  
HETATM   23  H   UNL     1      -9.425  16.016  68.566  1.00  0.00     0.000 HD 
BRANCH  22  24
HETATM   24  C   UNL     1      -8.413  17.483  67.349  1.00  0.00    -0.216 C  
HETATM   25  N   UNL     1      -9.478  18.437  67.161  1.00  0.00    -0.276 N  
HETATM   26  O   UNL     1      -6.776  17.855  69.191  1.00  0.00    -0.245 OA 
HETATM   27  C   UNL     1      -9.090  19.702  67.554  1.00  0.00    -0.320 C  
HETATM   28  N   UNL     1      -7.933  19.597  68.255  1.00  0.00    -0.323 NA 
HETATM   29  O   UNL     1      -9.695  20.742  67.358  1.00  0.00    -0.465 OA 
HETATM   30  C   UNL     1      -7.593  18.283  68.390  1.00  0.00    -0.290 C  
BRANCH  25  31
HETATM   31  C   UNL     1     -10.656  18.169  66.398  1.00  0.00    -0.271 C  
HETATM   32  H   UNL     1     -11.083  17.213  64.773  1.00  0.00     0.000 HD 
HETATM   33  O   UNL     1     -10.300  17.392  65.281  1.00  0.00    -0.616 OA 
ENDBRANCH  25  31
ENDBRANCH  22  24
ENDBRANCH  20  22
ENDBRANCH  18  20
ENDBRANCH  17  18
ENDBRANCH  15  17
ENDBRANCH  13  15
ENDBRANCH  11  13
ENDBRANCH   5  11
ENDBRANCH   2   4
TORSDOF 10
ENDMDL
MODEL       63
REMARK 921   NORMALIZED FREE ENERGY PREDICTED BY IDOCK:   -5.94 KCAL/MOL
REMARK 922        TOTAL FREE ENERGY PREDICTED BY IDOCK:  -11.42 KCAL/MOL
REMARK 923 INTER-LIGAND FREE ENERGY PREDICTED BY IDOCK:   -8.94 KCAL/MOL
REMARK 924 INTRA-LIGAND FREE ENERGY PREDICTED BY IDOCK:   -2.48 KCAL/MOL
REMARK 927      BINDING AFFINITY PREDICTED BY RF-SCORE:    0.00 PKD
ROOT
HETATM    1  O   UNL     1     -11.131  12.527  69.728  1.00  0.00    -0.478 OA 
HETATM    2  C   UNL     1     -12.237  12.359  70.582  1.00  0.00    -0.278 C  
HETATM    3  H   UNL     1     -10.783  11.673  69.501  1.00  0.00     0.000 HD 
ENDROOT
BRANCH   2   4
HETATM    4  N   UNL     1     -12.761  13.648  70.924  1.00  0.00    -0.330 N  
HETATM    5  C   UNL     1     -11.969  14.842  70.712  1.00  0.00    -0.314 C  
HETATM    6  O   UNL     1     -14.172  12.857  72.593  1.00  0.00    -0.523 OA 
HETATM    7  C   UNL     1     -12.332  15.619  71.998  1.00  0.00    -0.423 C  
HETATM    8  N   UNL     1     -13.383  14.990  72.590  1.00  0.00    -0.416 NA 
HETATM    9  O   UNL     1     -11.840  16.660  72.407  1.00  0.00    -0.491 OA 
HETATM   10  C   UNL     1     -13.535  13.754  72.066  1.00  0.00    -0.470 C  
BRANCH   5  11
HETATM   11  N   UNL     1     -12.428  15.573  69.556  1.00  0.00    -0.594 N  
HETATM   12  H   UNL     1     -13.262  16.154  69.627  1.00  0.00     0.000 HD 
BRANCH  11  13
HETATM   13  C   UNL     1     -11.760  15.495  68.368  1.00  0.00    -0.309 C  
HETATM   14  O   UNL     1     -10.878  16.274  68.032  1.00  0.00    -0.321 OA 
BRANCH  13  15
HETATM   15  N   UNL     1     -12.132  14.402  67.630  1.00  0.00    -0.590 N  
HETATM   16  H   UNL     1     -12.422  13.545  68.100  1.00  0.00     0.000 HD 
BRANCH  15  17
HETATM   17  C   UNL     1     -12.112  14.464  66.199  1.00  0.00    -0.357 C  
BRANCH  17  18
HETATM   18  N   UNL     1     -12.244  13.164  65.597  1.00  0.00    -0.446 N  
HETATM   19  H   UNL     1     -12.769  13.049  64.730  1.00  0.00     0.000 HD 
BRANCH  18  20
HETATM   20  C   UNL     1     -11.658  12.081  66.197  1.00  0.00    -0.304 C  
HETATM   21  O   UNL     1     -12.088  11.548  67.211  1.00  0.00    -0.548 OA 
BRANCH  20  22
HETATM   22  N   UNL     1     -10.537  11.650  65.527  1.00  0.00    -0.271 N  
HETATM   23  H   UNL     1     -10.487  11.646  64.508  1.00  0.00     0.000 HD 
BRANCH  22  24
HETATM   24  C   UNL     1      -9.441  11.205  66.343  1.00  0.00    -0.193 C  
HETATM   25  N   UNL     1      -8.319  10.622  65.649  1.00  0.00    -0.164 N  
HETATM   26  O   UNL     1      -9.125  13.376  67.527  1.00  0.00    -0.194 OA 
HETATM   27  C   UNL     1      -7.126  10.962  66.254  1.00  0.00    -0.119 C  
HETATM   28  N   UNL     1      -7.363  11.965  67.137  1.00  0.00    -0.144 NA 
HETATM   29  O   UNL     1      -6.028  10.490  66.014  1.00  0.00    -0.087 OA 
HETATM   30  C   UNL     1      -8.674  12.336  67.071  1.00  0.00    -0.199 C  
BRANCH  25  31
HETATM   31  C   UNL     1      -8.445   9.598  64.662  1.00  0.00    -0.174 C  
HETATM   32  H   UNL     1      -9.069   9.483  62.835  1.00  0.00     0.000 HD 
HETATM   33  O   UNL     1      -8.985  10.164  63.492  1.00  0.00    -0.200 OA 
ENDBRANCH  25  31
ENDBRANCH  22  24
ENDBRANCH  20  22
ENDBRANCH  18  20
ENDBRANCH  17  18
ENDBRANCH  15  17
ENDBRANCH  13  15
ENDBRANCH  11  13
ENDBRANCH   5  11
ENDBRANCH   2   4
TORSDOF 10
ENDMDL
MODEL       64
REMARK 921   NORMALIZED FREE ENERGY PREDICTED BY IDOCK:   -5.94 KCAL/MOL
REMARK 922        TOTAL FREE ENERGY PREDICTED BY IDOCK:  -11.40 KCAL/MOL
REMARK 923 INTER-LIGAND FREE ENERGY PREDICTED BY IDOCK:   -9.68 KCAL/MOL
REMARK 924 INTRA-LIGAND FREE ENERGY PREDICTED BY IDOCK:   -1.72 KCAL/MOL
REMARK 927      BINDING AFFINITY PREDICTED BY RF-SCORE:    0.00 PKD
ROOT
HETATM    1  O   UNL     1     -12.959   6.663  72.008  1.00  0.00    -0.522 OA 
HETATM    2  C   UNL     1     -11.688   6.081  72.165  1.00  0.00    -0.279 C  
HETATM    3  H   UNL     1     -13.460   6.530  72.804  1.00  0.00     0.000 HD 
ENDROOT
BRANCH   2   4
HETATM    4  N   UNL     1     -10.932   6.280  70.965  1.00  0.00    -0.269 N  
HETATM    5  C   UNL     1     -11.506   7.003  69.847  1.00  0.00    -0.176 C  
HETATM    6  O   UNL     1      -9.629   4.373  71.225  1.00  0.00    -0.150 OA 
HETATM    7  C   UNL     1     -10.969   6.139  68.684  1.00  0.00    -0.336 C  
HETATM    8  N   UNL     1     -10.027   5.293  69.183  1.00  0.00    -0.186 NA 
HETATM    9  O   UNL     1     -11.255   6.219  67.498  1.00  0.00    -0.328 OA 
HETATM   10  C   UNL     1     -10.114   5.252  70.531  1.00  0.00    -0.245 C  
BRANCH   5  11
HETATM   11  N   UNL     1     -10.964   8.336  69.755  1.00  0.00    -0.400 N  
HETATM   12  H   UNL     1     -10.151   8.508  69.166  1.00  0.00     0.000 HD 
BRANCH  11  13
HETATM   13  C   UNL     1     -11.526   9.370  70.446  1.00  0.00    -0.223 C  
HETATM   14  O   UNL     1     -11.415   9.519  71.655  1.00  0.00    -0.381 OA 
BRANCH  13  15
HETATM   15  N   UNL     1     -12.159  10.264  69.623  1.00  0.00    -0.505 N  
HETATM   16  H   UNL     1     -13.024  10.001  69.153  1.00  0.00     0.000 HD 
BRANCH  15  17
HETATM   17  C   UNL     1     -11.603  11.570  69.424  1.00  0.00    -0.321 C  
BRANCH  17  18
HETATM   18  N   UNL     1     -11.815  12.053  68.085  1.00  0.00    -0.330 N  
HETATM   19  H   UNL     1     -12.527  12.760  67.899  1.00  0.00     0.000 HD 
BRANCH  18  20
HETATM   20  C   UNL     1     -11.053  11.555  67.061  1.00  0.00    -0.307 C  
HETATM   21  O   UNL     1     -10.818  10.364  66.903  1.00  0.00    -0.236 OA 
BRANCH  20  22
HETATM   22  N   UNL     1     -10.589  12.541  66.223  1.00  0.00    -0.245 N  
HETATM   23  H   UNL     1      -9.611  12.592  65.938  1.00  0.00     0.000 HD 
BRANCH  22  24
HETATM   24  C   UNL     1     -11.563  13.497  65.770  1.00  0.00    -0.330 C  
HETATM   25  N   UNL     1     -11.074  14.824  65.484  1.00  0.00    -0.333 N  
HETATM   26  O   UNL     1     -12.418  12.101  63.890  1.00  0.00    -0.481 OA 
HETATM   27  C   UNL     1     -11.726  15.373  64.398  1.00  0.00    -0.258 C  
HETATM   28  N   UNL     1     -12.416  14.389  63.769  1.00  0.00    -0.786 NA 
HETATM   29  O   UNL     1     -11.664  16.531  64.022  1.00  0.00    -1.111 OA 
HETATM   30  C   UNL     1     -12.173  13.193  64.380  1.00  0.00    -0.398 C  
BRANCH  25  31
HETATM   31  C   UNL     1     -10.251  15.574  66.379  1.00  0.00    -0.289 C  
HETATM   32  H   UNL     1     -10.017  15.697  68.294  1.00  0.00     0.000 HD 
HETATM   33  O   UNL     1     -10.564  15.198  67.698  1.00  0.00    -0.253 OA 
ENDBRANCH  25  31
ENDBRANCH  22  24
ENDBRANCH  20  22
ENDBRANCH  18  20
ENDBRANCH  17  18
ENDBRANCH  15  17
ENDBRANCH  13  15
ENDBRANCH  11  13
ENDBRANCH   5  11
ENDBRANCH   2   4
TORSDOF 10
ENDMDL
MODEL       65
REMARK 921   NORMALIZED FREE ENERGY PREDICTED BY IDOCK:   -5.92 KCAL/MOL
REMARK 922        TOTAL FREE ENERGY PREDICTED BY IDOCK:  -11.38 KCAL/MOL
REMARK 923 INTER-LIGAND FREE ENERGY PREDICTED BY IDOCK:   -9.01 KCAL/MOL
REMARK 924 INTRA-LIGAND FREE ENERGY PREDICTED BY IDOCK:   -2.36 KCAL/MOL
REMARK 927      BINDING AFFINITY PREDICTED BY RF-SCORE:    0.00 PKD
ROOT
HETATM    1  O   UNL     1      -8.893  13.972  68.858  1.00  0.00    -0.357 OA 
HETATM    2  C   UNL     1      -8.020  14.580  67.937  1.00  0.00    -0.147 C  
HETATM    3  H   UNL     1      -8.502  13.163  69.167  1.00  0.00     0.000 HD 
ENDROOT
BRANCH   2   4
HETATM    4  N   UNL     1      -8.610  15.799  67.471  1.00  0.00    -0.162 N  
HETATM    5  C   UNL     1     -10.022  15.858  67.156  1.00  0.00    -0.240 C  
HETATM    6  O   UNL     1      -6.653  16.622  66.523  1.00  0.00    -0.229 OA 
HETATM    7  C   UNL     1      -9.963  16.739  65.887  1.00  0.00    -0.276 C  
HETATM    8  N   UNL     1      -8.711  17.263  65.794  1.00  0.00    -0.500 NA 
HETATM    9  O   UNL     1     -10.875  17.008  65.119  1.00  0.00    -0.617 OA 
HETATM   10  C   UNL     1      -7.870  16.595  66.615  1.00  0.00    -0.281 C  
BRANCH   5  11
HETATM   11  N   UNL     1     -10.760  16.540  68.190  1.00  0.00    -0.331 N  
HETATM   12  H   UNL     1     -10.969  17.533  68.087  1.00  0.00     0.000 HD 
BRANCH  11  13
HETATM   13  C   UNL     1     -11.181  15.876  69.305  1.00  0.00    -0.335 C  
HETATM   14  O   UNL     1     -10.611  15.934  70.386  1.00  0.00    -0.296 OA 
BRANCH  13  15
HETATM   15  N   UNL     1     -12.358  15.205  69.099  1.00  0.00    -0.592 N  
HETATM   16  H   UNL     1     -13.024  15.545  68.406  1.00  0.00     0.000 HD 
BRANCH  15  17
HETATM   17  C   UNL     1     -12.650  14.026  69.858  1.00  0.00    -0.142 C  
BRANCH  17  18
HETATM   18  N   UNL     1     -11.697  12.974  69.618  1.00  0.00    -0.375 N  
HETATM   19  H   UNL     1     -10.902  12.847  70.244  1.00  0.00     0.000 HD 
BRANCH  18  20
HETATM   20  C   UNL     1     -11.868  12.144  68.541  1.00  0.00    -0.310 C  
HETATM   21  O   UNL     1     -12.296  11.001  68.623  1.00  0.00    -0.539 OA 
BRANCH  20  22
HETATM   22  N   UNL     1     -11.515  12.743  67.355  1.00  0.00    -0.319 N  
HETATM   23  H   UNL     1     -11.538  13.756  67.234  1.00  0.00     0.000 HD 
BRANCH  22  24
HETATM   24  C   UNL     1     -11.113  11.860  66.294  1.00  0.00    -0.314 C  
HETATM   25  N   UNL     1     -11.101  12.420  64.964  1.00  0.00    -0.295 N  
HETATM   26  O   UNL     1      -8.950  11.195  67.337  1.00  0.00    -0.138 OA 
HETATM   27  C   UNL     1     -10.050  11.920  64.222  1.00  0.00    -0.295 C  
HETATM   28  N   UNL     1      -9.198  11.280  65.062  1.00  0.00    -0.175 NA 
HETATM   29  O   UNL     1      -9.874  12.061  63.024  1.00  0.00    -0.372 OA 
HETATM   30  C   UNL     1      -9.632  11.412  66.348  1.00  0.00    -0.205 C  
BRANCH  25  31
HETATM   31  C   UNL     1     -12.192  13.151  64.403  1.00  0.00    -0.398 C  
HETATM   32  H   UNL     1     -14.122  13.029  64.432  1.00  0.00     0.000 HD 
HETATM   33  O   UNL     1     -13.395  12.543  64.805  1.00  0.00    -0.773 OA 
ENDBRANCH  25  31
ENDBRANCH  22  24
ENDBRANCH  20  22
ENDBRANCH  18  20
ENDBRANCH  17  18
ENDBRANCH  15  17
ENDBRANCH  13  15
ENDBRANCH  11  13
ENDBRANCH   5  11
ENDBRANCH   2   4
TORSDOF 10
ENDMDL
MODEL       66
REMARK 921   NORMALIZED FREE ENERGY PREDICTED BY IDOCK:   -5.92 KCAL/MOL
REMARK 922        TOTAL FREE ENERGY PREDICTED BY IDOCK:  -11.38 KCAL/MOL
REMARK 923 INTER-LIGAND FREE ENERGY PREDICTED BY IDOCK:   -9.75 KCAL/MOL
REMARK 924 INTRA-LIGAND FREE ENERGY PREDICTED BY IDOCK:   -1.63 KCAL/MOL
REMARK 927      BINDING AFFINITY PREDICTED BY RF-SCORE:    0.00 PKD
ROOT
HETATM    1  O   UNL     1     -11.745  11.270  63.328  1.00  0.00    -0.789 OA 
HETATM    2  C   UNL     1     -10.561  11.994  63.558  1.00  0.00    -0.465 C  
HETATM    3  H   UNL     1     -11.531  10.462  62.877  1.00  0.00     0.000 HD 
ENDROOT
BRANCH   2   4
HETATM    4  N   UNL     1     -10.885  13.213  64.237  1.00  0.00    -0.394 N  
HETATM    5  C   UNL     1     -10.666  13.339  65.664  1.00  0.00    -0.282 C  
HETATM    6  O   UNL     1     -12.551  13.842  62.744  1.00  0.00    -0.447 OA 
HETATM    7  C   UNL     1     -11.941  14.124  66.048  1.00  0.00    -0.413 C  
HETATM    8  N   UNL     1     -12.531  14.559  64.902  1.00  0.00    -0.500 NA 
HETATM    9  O   UNL     1     -12.343  14.396  67.170  1.00  0.00    -0.335 OA 
HETATM   10  C   UNL     1     -12.019  13.899  63.841  1.00  0.00    -0.334 C  
BRANCH   5  11
HETATM   11  N   UNL     1      -9.498  14.138  65.944  1.00  0.00    -0.516 N  
HETATM   12  H   UNL     1      -9.225  14.874  65.293  1.00  0.00     0.000 HD 
BRANCH  11  13
HETATM   13  C   UNL     1      -8.754  13.923  67.067  1.00  0.00    -0.200 C  
HETATM   14  O   UNL     1      -7.601  14.309  67.203  1.00  0.00    -0.145 OA 
BRANCH  13  15
HETATM   15  N   UNL     1      -9.469  13.297  68.055  1.00  0.00    -0.213 N  
HETATM   16  H   UNL     1     -10.169  13.816  68.585  1.00  0.00     0.000 HD 
BRANCH  15  17
HETATM   17  C   UNL     1      -9.231  11.914  68.343  1.00  0.00    -0.173 C  
BRANCH  17  18
HETATM   18  N   UNL     1     -10.139  11.402  69.336  1.00  0.00    -0.424 N  
HETATM   19  H   UNL     1      -9.781  11.008  70.206  1.00  0.00     0.000 HD 
BRANCH  18  20
HETATM   20  C   UNL     1     -11.488  11.449  69.103  1.00  0.00    -0.299 C  
HETATM   21  O   UNL     1     -12.140  10.502  68.683  1.00  0.00    -0.324 OA 
BRANCH  20  22
HETATM   22  N   UNL     1     -12.033  12.675  69.405  1.00  0.00    -0.289 N  
HETATM   23  H   UNL     1     -12.401  13.294  68.682  1.00  0.00     0.000 HD 
BRANCH  22  24
HETATM   24  C   UNL     1     -12.053  13.034  70.796  1.00  0.00    -0.179 C  
HETATM   25  N   UNL     1     -12.484  14.376  71.106  1.00  0.00    -0.335 N  
HETATM   26  O   UNL     1     -13.472  11.118  71.521  1.00  0.00    -0.208 OA 
HETATM   27  C   UNL     1     -13.219  14.407  72.274  1.00  0.00    -0.406 C  
HETATM   28  N   UNL     1     -13.545  13.133  72.610  1.00  0.00    -0.622 NA 
HETATM   29  O   UNL     1     -13.569  15.401  72.886  1.00  0.00    -0.494 OA 
HETATM   30  C   UNL     1     -13.099  12.275  71.648  1.00  0.00    -0.306 C  
BRANCH  25  31
HETATM   31  C   UNL     1     -11.969  15.541  70.461  1.00  0.00    -0.371 C  
HETATM   32  H   UNL     1     -10.260  16.114  69.761  1.00  0.00     0.000 HD 
HETATM   33  O   UNL     1     -10.603  15.339  70.190  1.00  0.00    -0.287 OA 
ENDBRANCH  25  31
ENDBRANCH  22  24
ENDBRANCH  20  22
ENDBRANCH  18  20
ENDBRANCH  17  18
ENDBRANCH  15  17
ENDBRANCH  13  15
ENDBRANCH  11  13
ENDBRANCH   5  11
ENDBRANCH   2   4
TORSDOF 10
ENDMDL
MODEL       67
REMARK 921   NORMALIZED FREE ENERGY PREDICTED BY IDOCK:   -5.91 KCAL/MOL
REMARK 922        TOTAL FREE ENERGY PREDICTED BY IDOCK:  -11.37 KCAL/MOL
REMARK 923 INTER-LIGAND FREE ENERGY PREDICTED BY IDOCK:   -9.05 KCAL/MOL
REMARK 924 INTRA-LIGAND FREE ENERGY PREDICTED BY IDOCK:   -2.31 KCAL/MOL
REMARK 927      BINDING AFFINITY PREDICTED BY RF-SCORE:    0.00 PKD
ROOT
HETATM    1  O   UNL     1     -10.400  19.827  69.075  1.00  0.00    -0.609 OA 
HETATM    2  C   UNL     1     -10.533  19.371  67.751  1.00  0.00    -0.441 C  
HETATM    3  H   UNL     1     -10.634  20.747  69.110  1.00  0.00     0.000 HD 
ENDROOT
BRANCH   2   4
HETATM    4  N   UNL     1     -10.180  17.984  67.698  1.00  0.00    -0.350 N  
HETATM    5  C   UNL     1     -10.242  17.165  68.892  1.00  0.00    -0.332 C  
HETATM    6  O   UNL     1      -8.714  18.214  65.909  1.00  0.00    -0.505 OA 
HETATM    7  C   UNL     1      -8.962  16.323  68.689  1.00  0.00    -0.232 C  
HETATM    8  N   UNL     1      -8.519  16.524  67.418  1.00  0.00    -0.174 NA 
HETATM    9  O   UNL     1      -8.447  15.543  69.476  1.00  0.00    -0.256 OA 
HETATM   10  C   UNL     1      -9.123  17.610  66.888  1.00  0.00    -0.253 C  
BRANCH   5  11
HETATM   11  N   UNL     1     -11.399  16.305  68.873  1.00  0.00    -0.339 N  
HETATM   12  H   UNL     1     -11.866  16.108  67.989  1.00  0.00     0.000 HD 
BRANCH  11  13
HETATM   13  C   UNL     1     -11.879  15.750  70.025  1.00  0.00    -0.354 C  
HETATM   14  O   UNL     1     -11.641  16.189  71.141  1.00  0.00    -0.419 OA 
BRANCH  13  15
HETATM   15  N   UNL     1     -12.721  14.696  69.785  1.00  0.00    -0.574 N  
HETATM   16  H   UNL     1     -13.568  14.835  69.235  1.00  0.00     0.000 HD 
BRANCH  15  17
HETATM   17  C   UNL     1     -12.410  13.399  70.307  1.00  0.00    -0.284 C  
BRANCH  17  18
HETATM   18  N   UNL     1     -11.192  12.867  69.753  1.00  0.00    -0.489 N  
HETATM   19  H   UNL     1     -10.305  13.350  69.902  1.00  0.00     0.000 HD 
BRANCH  18  20
HETATM   20  C   UNL     1     -11.233  11.708  69.025  1.00  0.00    -0.262 C  
HETATM   21  O   UNL     1     -12.000  10.783  69.258  1.00  0.00    -0.308 OA 
BRANCH  20  22
HETATM   22  N   UNL     1     -10.324  11.702  67.993  1.00  0.00    -0.186 N  
HETATM   23  H   UNL     1      -9.323  11.800  68.157  1.00  0.00     0.000 HD 
BRANCH  22  24
HETATM   24  C   UNL     1     -10.867  11.549  66.671  1.00  0.00    -0.287 C  
HETATM   25  N   UNL     1     -10.518  12.569  65.712  1.00  0.00    -0.265 N  
HETATM   26  O   UNL     1     -10.014   9.233  66.324  1.00  0.00    -0.269 OA 
HETATM   27  C   UNL     1     -10.342  12.032  64.453  1.00  0.00    -0.305 C  
HETATM   28  N   UNL     1     -10.273  10.682  64.569  1.00  0.00    -0.349 NA 
HETATM   29  O   UNL     1     -10.217  12.650  63.410  1.00  0.00    -0.370 OA 
HETATM   30  C   UNL     1     -10.329  10.328  65.885  1.00  0.00    -0.171 C  
BRANCH  25  31
HETATM   31  C   UNL     1     -10.636  13.969  65.968  1.00  0.00    -0.297 C  
HETATM   32  H   UNL     1     -11.791  15.107  67.023  1.00  0.00     0.000 HD 
HETATM   33  O   UNL     1     -11.712  14.175  66.852  1.00  0.00    -0.372 OA 
ENDBRANCH  25  31
ENDBRANCH  22  24
ENDBRANCH  20  22
ENDBRANCH  18  20
ENDBRANCH  17  18
ENDBRANCH  15  17
ENDBRANCH  13  15
ENDBRANCH  11  13
ENDBRANCH   5  11
ENDBRANCH   2   4
TORSDOF 10
ENDMDL
MODEL       68
REMARK 921   NORMALIZED FREE ENERGY PREDICTED BY IDOCK:   -5.90 KCAL/MOL
REMARK 922        TOTAL FREE ENERGY PREDICTED BY IDOCK:  -11.34 KCAL/MOL
REMARK 923 INTER-LIGAND FREE ENERGY PREDICTED BY IDOCK:   -9.10 KCAL/MOL
REMARK 924 INTRA-LIGAND FREE ENERGY PREDICTED BY IDOCK:   -2.23 KCAL/MOL
REMARK 927      BINDING AFFINITY PREDICTED BY RF-SCORE:    0.00 PKD
ROOT
HETATM    1  O   UNL     1      -9.207  11.200  69.123  1.00  0.00    -0.378 OA 
HETATM    2  C   UNL     1      -8.959   9.833  69.351  1.00  0.00    -0.190 C  
HETATM    3  H   UNL     1      -8.381  11.641  68.963  1.00  0.00     0.000 HD 
ENDROOT
BRANCH   2   4
HETATM    4  N   UNL     1     -10.204   9.168  69.594  1.00  0.00    -0.195 N  
HETATM    5  C   UNL     1     -11.023   9.535  70.732  1.00  0.00    -0.321 C  
HETATM    6  O   UNL     1      -9.580   7.183  68.560  1.00  0.00    -0.139 OA 
HETATM    7  C   UNL     1     -11.497   8.130  71.167  1.00  0.00    -0.276 C  
HETATM    8  N   UNL     1     -11.174   7.250  70.181  1.00  0.00    -0.262 NA 
HETATM    9  O   UNL     1     -12.123   7.830  72.173  1.00  0.00    -0.301 OA 
HETATM   10  C   UNL     1     -10.280   7.811  69.338  1.00  0.00    -0.208 C  
BRANCH   5  11
HETATM   11  N   UNL     1     -12.156  10.328  70.325  1.00  0.00    -0.397 N  
HETATM   12  H   UNL     1     -12.593  10.154  69.421  1.00  0.00     0.000 HD 
BRANCH  11  13
HETATM   13  C   UNL     1     -12.652  11.310  71.133  1.00  0.00    -0.397 C  
HETATM   14  O   UNL     1     -13.446  11.105  72.041  1.00  0.00    -0.376 OA 
BRANCH  13  15
HETATM   15  N   UNL     1     -12.100  12.535  70.866  1.00  0.00    -0.435 N  
HETATM   16  H   UNL     1     -11.233  12.598  70.332  1.00  0.00     0.000 HD 
BRANCH  15  17
HETATM   17  C   UNL     1     -12.741  13.726  71.337  1.00  0.00    -0.367 C  
BRANCH  17  18
HETATM   18  N   UNL     1     -13.034  14.645  70.269  1.00  0.00    -0.566 N  
HETATM   19  H   UNL     1     -13.965  14.669  69.852  1.00  0.00     0.000 HD 
BRANCH  18  20
HETATM   20  C   UNL     1     -12.053  15.487  69.816  1.00  0.00    -0.349 C  
HETATM   21  O   UNL     1     -11.192  15.978  70.534  1.00  0.00    -0.345 OA 
BRANCH  20  22
HETATM   22  N   UNL     1     -12.134  15.710  68.462  1.00  0.00    -0.510 N  
HETATM   23  H   UNL     1     -12.951  16.148  68.036  1.00  0.00     0.000 HD 
BRANCH  22  24
HETATM   24  C   UNL     1     -11.002  15.291  67.681  1.00  0.00    -0.311 C  
HETATM   25  N   UNL     1     -11.275  14.387  66.591  1.00  0.00    -0.329 N  
HETATM   26  O   UNL     1     -10.200  17.593  67.162  1.00  0.00    -0.318 OA 
HETATM   27  C   UNL     1     -10.465  14.656  65.505  1.00  0.00    -0.356 C  
HETATM   28  N   UNL     1      -9.870  15.859  65.701  1.00  0.00    -0.378 NA 
HETATM   29  O   UNL     1     -10.332  13.966  64.509  1.00  0.00    -0.436 OA 
HETATM   30  C   UNL     1     -10.328  16.416  66.859  1.00  0.00    -0.300 C  
BRANCH  25  31
HETATM   31  C   UNL     1     -12.055  13.198  66.724  1.00  0.00    -0.327 C  
HETATM   32  H   UNL     1     -12.419  11.913  68.122  1.00  0.00     0.000 HD 
HETATM   33  O   UNL     1     -11.900  12.704  68.033  1.00  0.00    -0.338 OA 
ENDBRANCH  25  31
ENDBRANCH  22  24
ENDBRANCH  20  22
ENDBRANCH  18  20
ENDBRANCH  17  18
ENDBRANCH  15  17
ENDBRANCH  13  15
ENDBRANCH  11  13
ENDBRANCH   5  11
ENDBRANCH   2   4
TORSDOF 10
ENDMDL
MODEL       69
REMARK 921   NORMALIZED FREE ENERGY PREDICTED BY IDOCK:   -5.87 KCAL/MOL
REMARK 922        TOTAL FREE ENERGY PREDICTED BY IDOCK:  -11.30 KCAL/MOL
REMARK 923 INTER-LIGAND FREE ENERGY PREDICTED BY IDOCK:   -9.36 KCAL/MOL
REMARK 924 INTRA-LIGAND FREE ENERGY PREDICTED BY IDOCK:   -1.94 KCAL/MOL
REMARK 927      BINDING AFFINITY PREDICTED BY RF-SCORE:    0.00 PKD
ROOT
HETATM    1  O   UNL     1     -11.695  12.723  69.961  1.00  0.00    -0.458 OA 
HETATM    2  C   UNL     1     -12.133  11.451  69.548  1.00  0.00    -0.302 C  
HETATM    3  H   UNL     1     -12.414  13.174  70.386  1.00  0.00     0.000 HD 
ENDROOT
BRANCH   2   4
HETATM    4  N   UNL     1     -11.047  10.770  68.907  1.00  0.00    -0.233 N  
HETATM    5  C   UNL     1     -11.142  10.388  67.513  1.00  0.00    -0.267 C  
HETATM    6  O   UNL     1     -10.243   9.789  70.855  1.00  0.00    -0.271 OA 
HETATM    7  C   UNL     1     -10.468   8.999  67.584  1.00  0.00    -0.260 C  
HETATM    8  N   UNL     1      -9.876   8.877  68.803  1.00  0.00    -0.169 NA 
HETATM    9  O   UNL     1     -10.390   8.159  66.701  1.00  0.00    -0.304 OA 
HETATM   10  C   UNL     1     -10.343   9.830  69.639  1.00  0.00    -0.238 C  
BRANCH   5  11
HETATM   11  N   UNL     1     -10.361  11.266  66.677  1.00  0.00    -0.229 N  
HETATM   12  H   UNL     1      -9.612  11.821  67.092  1.00  0.00     0.000 HD 
BRANCH  11  13
HETATM   13  C   UNL     1     -10.610  11.366  65.339  1.00  0.00    -0.275 C  
HETATM   14  O   UNL     1     -10.039  10.695  64.490  1.00  0.00    -0.320 OA 
BRANCH  13  15
HETATM   15  N   UNL     1     -11.626  12.241  65.061  1.00  0.00    -0.342 N  
HETATM   16  H   UNL     1     -12.505  12.183  65.576  1.00  0.00     0.000 HD 
BRANCH  15  17
HETATM   17  C   UNL     1     -11.454  13.238  64.047  1.00  0.00    -0.388 C  
BRANCH  17  18
HETATM   18  N   UNL     1     -11.983  14.516  64.445  1.00  0.00    -0.585 N  
HETATM   19  H   UNL     1     -12.983  14.629  64.615  1.00  0.00     0.000 HD 
BRANCH  18  20
HETATM   20  C   UNL     1     -11.133  15.580  64.594  1.00  0.00    -0.359 C  
HETATM   21  O   UNL     1     -11.392  16.717  64.223  1.00  0.00    -1.116 OA 
BRANCH  20  22
HETATM   22  N   UNL     1      -9.959  15.232  65.220  1.00  0.00    -0.322 N  
HETATM   23  H   UNL     1      -9.177  14.822  64.710  1.00  0.00     0.000 HD 
BRANCH  22  24
HETATM   24  C   UNL     1      -9.897  15.478  66.635  1.00  0.00    -0.254 C  
HETATM   25  N   UNL     1      -9.846  16.861  67.044  1.00  0.00    -0.262 N  
HETATM   26  O   UNL     1     -11.915  14.131  67.205  1.00  0.00    -0.401 OA 
HETATM   27  C   UNL     1     -10.562  17.064  68.206  1.00  0.00    -0.372 C  
HETATM   28  N   UNL     1     -11.319  15.964  68.443  1.00  0.00    -0.362 NA 
HETATM   29  O   UNL     1     -10.564  18.073  68.891  1.00  0.00    -0.206 OA 
HETATM   30  C   UNL     1     -11.168  15.073  67.421  1.00  0.00    -0.335 C  
BRANCH  25  31
HETATM   31  C   UNL     1      -8.939  17.816  66.492  1.00  0.00    -0.261 C  
HETATM   32  H   UNL     1      -7.321  17.761  65.435  1.00  0.00     0.000 HD 
HETATM   33  O   UNL     1      -7.925  17.126  65.802  1.00  0.00    -0.476 OA 
ENDBRANCH  25  31
ENDBRANCH  22  24
ENDBRANCH  20  22
ENDBRANCH  18  20
ENDBRANCH  17  18
ENDBRANCH  15  17
ENDBRANCH  13  15
ENDBRANCH  11  13
ENDBRANCH   5  11
ENDBRANCH   2   4
TORSDOF 10
ENDMDL
MODEL       70
REMARK 921   NORMALIZED FREE ENERGY PREDICTED BY IDOCK:   -5.87 KCAL/MOL
REMARK 922        TOTAL FREE ENERGY PREDICTED BY IDOCK:  -11.30 KCAL/MOL
REMARK 923 INTER-LIGAND FREE ENERGY PREDICTED BY IDOCK:   -9.09 KCAL/MOL
REMARK 924 INTRA-LIGAND FREE ENERGY PREDICTED BY IDOCK:   -2.21 KCAL/MOL
REMARK 927      BINDING AFFINITY PREDICTED BY RF-SCORE:    0.00 PKD
ROOT
HETATM    1  O   UNL     1      -8.215  11.783  66.459  1.00  0.00    -0.286 OA 
HETATM    2  C   UNL     1      -8.982  11.123  65.481  1.00  0.00    -0.166 C  
HETATM    3  H   UNL     1      -7.583  11.173  66.820  1.00  0.00     0.000 HD 
ENDROOT
BRANCH   2   4
HETATM    4  N   UNL     1      -9.935  12.043  64.937  1.00  0.00    -0.251 N  
HETATM    5  C   UNL     1     -11.019  12.547  65.755  1.00  0.00    -0.292 C  
HETATM    6  O   UNL     1      -9.704  11.303  62.745  1.00  0.00    -0.322 OA 
HETATM    7  C   UNL     1     -12.158  12.521  64.711  1.00  0.00    -0.434 C  
HETATM    8  N   UNL     1     -11.606  12.308  63.486  1.00  0.00    -0.471 NA 
HETATM    9  O   UNL     1     -13.348  12.727  64.896  1.00  0.00    -0.736 OA 
HETATM   10  C   UNL     1     -10.336  11.866  63.624  1.00  0.00    -0.441 C  
BRANCH   5  11
HETATM   11  N   UNL     1     -10.771  13.905  66.172  1.00  0.00    -0.281 N  
HETATM   12  H   UNL     1     -10.146  14.493  65.622  1.00  0.00     0.000 HD 
BRANCH  11  13
HETATM   13  C   UNL     1     -11.360  14.413  67.294  1.00  0.00    -0.342 C  
HETATM   14  O   UNL     1     -11.403  15.607  67.556  1.00  0.00    -0.300 OA 
BRANCH  13  15
HETATM   15  N   UNL     1     -11.966  13.444  68.049  1.00  0.00    -0.347 N  
HETATM   16  H   UNL     1     -12.386  12.633  67.596  1.00  0.00     0.000 HD 
BRANCH  15  17
HETATM   17  C   UNL     1     -12.010  13.573  69.475  1.00  0.00    -0.334 C  
BRANCH  17  18
HETATM   18  N   UNL     1     -11.598  12.366  70.143  1.00  0.00    -0.539 N  
HETATM   19  H   UNL     1     -11.711  12.272  71.153  1.00  0.00     0.000 HD 
BRANCH  18  20
HETATM   20  C   UNL     1     -11.052  11.345  69.411  1.00  0.00    -0.241 C  
HETATM   21  O   UNL     1     -10.030  11.453  68.746  1.00  0.00    -0.206 OA 
BRANCH  20  22
HETATM   22  N   UNL     1     -11.772  10.178  69.517  1.00  0.00    -0.459 N  
HETATM   23  H   UNL     1     -12.610  10.010  68.959  1.00  0.00     0.000 HD 
BRANCH  22  24
HETATM   24  C   UNL     1     -11.278   9.210  70.457  1.00  0.00    -0.264 C  
HETATM   25  N   UNL     1     -12.267   8.531  71.258  1.00  0.00    -0.293 N  
HETATM   26  O   UNL     1      -9.973   7.896  68.789  1.00  0.00    -0.176 OA 
HETATM   27  C   UNL     1     -11.917   7.213  71.472  1.00  0.00    -0.326 C  
HETATM   28  N   UNL     1     -10.901   6.897  70.630  1.00  0.00    -0.236 NA 
HETATM   29  O   UNL     1     -12.449   6.436  72.246  1.00  0.00    -0.230 OA 
HETATM   30  C   UNL     1     -10.627   7.959  69.819  1.00  0.00    -0.242 C  
BRANCH  25  31
HETATM   31  C   UNL     1     -13.303   9.204  71.975  1.00  0.00    -0.445 C  
HETATM   32  H   UNL     1     -13.605  10.991  72.649  1.00  0.00     0.000 HD 
HETATM   33  O   UNL     1     -12.917  10.543  72.171  1.00  0.00    -0.435 OA 
ENDBRANCH  25  31
ENDBRANCH  22  24
ENDBRANCH  20  22
ENDBRANCH  18  20
ENDBRANCH  17  18
ENDBRANCH  15  17
ENDBRANCH  13  15
ENDBRANCH  11  13
ENDBRANCH   5  11
ENDBRANCH   2   4
TORSDOF 10
ENDMDL
MODEL       71
REMARK 921   NORMALIZED FREE ENERGY PREDICTED BY IDOCK:   -5.87 KCAL/MOL
REMARK 922        TOTAL FREE ENERGY PREDICTED BY IDOCK:  -11.30 KCAL/MOL
REMARK 923 INTER-LIGAND FREE ENERGY PREDICTED BY IDOCK:   -9.48 KCAL/MOL
REMARK 924 INTRA-LIGAND FREE ENERGY PREDICTED BY IDOCK:   -1.82 KCAL/MOL
REMARK 927      BINDING AFFINITY PREDICTED BY RF-SCORE:    0.00 PKD
ROOT
HETATM    1  O   UNL     1     -10.955   9.323  67.243  1.00  0.00    -0.369 OA 
HETATM    2  C   UNL     1     -10.420   8.051  66.964  1.00  0.00    -0.340 C  
HETATM    3  H   UNL     1     -10.730   9.915  66.535  1.00  0.00     0.000 HD 
ENDROOT
BRANCH   2   4
HETATM    4  N   UNL     1     -10.759   7.159  68.032  1.00  0.00    -0.195 N  
HETATM    5  C   UNL     1     -10.327   7.439  69.387  1.00  0.00    -0.210 C  
HETATM    6  O   UNL     1     -10.903   5.272  66.684  1.00  0.00    -0.258 OA 
HETATM    7  C   UNL     1      -9.956   6.007  69.836  1.00  0.00    -0.176 C  
HETATM    8  N   UNL     1     -10.430   5.135  68.905  1.00  0.00    -0.122 NA 
HETATM    9  O   UNL     1      -9.404   5.667  70.871  1.00  0.00    -0.155 OA 
HETATM   10  C   UNL     1     -10.754   5.800  67.774  1.00  0.00    -0.223 C  
BRANCH   5  11
HETATM   11  N   UNL     1     -11.418   7.934  70.190  1.00  0.00    -0.466 N  
HETATM   12  H   UNL     1     -12.193   7.315  70.422  1.00  0.00     0.000 HD 
BRANCH  11  13
HETATM   13  C   UNL     1     -11.426   9.222  70.643  1.00  0.00    -0.274 C  
HETATM   14  O   UNL     1     -10.477   9.751  71.205  1.00  0.00    -0.274 OA 
BRANCH  13  15
HETATM   15  N   UNL     1     -12.586   9.879  70.327  1.00  0.00    -0.516 N  
HETATM   16  H   UNL     1     -13.468   9.368  70.291  1.00  0.00     0.000 HD 
BRANCH  15  17
HETATM   17  C   UNL     1     -12.559  11.283  70.046  1.00  0.00    -0.104 C  
BRANCH  17  18
HETATM   18  N   UNL     1     -11.764  11.590  68.886  1.00  0.00    -0.312 N  
HETATM   19  H   UNL     1     -11.203  10.864  68.439  1.00  0.00     0.000 HD 
BRANCH  18  20
HETATM   20  C   UNL     1     -11.768  12.866  68.386  1.00  0.00    -0.345 C  
HETATM   21  O   UNL     1     -11.975  13.863  69.064  1.00  0.00    -0.336 OA 
BRANCH  20  22
HETATM   22  N   UNL     1     -11.499  12.903  67.037  1.00  0.00    -0.319 N  
HETATM   23  H   UNL     1     -10.860  12.242  66.597  1.00  0.00     0.000 HD 
BRANCH  22  24
HETATM   24  C   UNL     1     -12.171  13.927  66.285  1.00  0.00    -0.461 C  
HETATM   25  N   UNL     1     -11.348  15.001  65.786  1.00  0.00    -0.317 N  
HETATM   26  O   UNL     1     -13.234  12.371  64.653  1.00  0.00    -0.822 OA 
HETATM   27  C   UNL     1     -11.773  15.420  64.542  1.00  0.00    -0.277 C  
HETATM   28  N   UNL     1     -12.650  14.504  64.057  1.00  0.00    -0.799 NA 
HETATM   29  O   UNL     1     -11.400  16.413  63.942  1.00  0.00    -0.967 OA 
HETATM   30  C   UNL     1     -12.753  13.460  64.928  1.00  0.00    -0.304 C  
BRANCH  25  31
HETATM   31  C   UNL     1     -10.420  15.727  66.594  1.00  0.00    -0.302 C  
HETATM   32  H   UNL     1      -8.634  15.437  67.276  1.00  0.00     0.000 HD 
HETATM   33  O   UNL     1      -9.252  14.955  66.739  1.00  0.00    -0.229 OA 
ENDBRANCH  25  31
ENDBRANCH  22  24
ENDBRANCH  20  22
ENDBRANCH  18  20
ENDBRANCH  17  18
ENDBRANCH  15  17
ENDBRANCH  13  15
ENDBRANCH  11  13
ENDBRANCH   5  11
ENDBRANCH   2   4
TORSDOF 10
ENDMDL
MODEL       72
REMARK 921   NORMALIZED FREE ENERGY PREDICTED BY IDOCK:   -5.87 KCAL/MOL
REMARK 922        TOTAL FREE ENERGY PREDICTED BY IDOCK:  -11.29 KCAL/MOL
REMARK 923 INTER-LIGAND FREE ENERGY PREDICTED BY IDOCK:   -9.07 KCAL/MOL
REMARK 924 INTRA-LIGAND FREE ENERGY PREDICTED BY IDOCK:   -2.23 KCAL/MOL
REMARK 927      BINDING AFFINITY PREDICTED BY RF-SCORE:    0.00 PKD
ROOT
HETATM    1  O   UNL     1     -11.176  18.448  68.250  1.00  0.00    -0.042 OA 
HETATM    2  C   UNL     1     -10.274  19.478  68.575  1.00  0.00    -0.416 C  
HETATM    3  H   UNL     1     -11.955  18.539  68.786  1.00  0.00     0.000 HD 
ENDROOT
BRANCH   2   4
HETATM    4  N   UNL     1      -9.099  19.340  67.767  1.00  0.00    -0.300 N  
HETATM    5  C   UNL     1      -7.782  19.425  68.365  1.00  0.00    -0.328 C  
HETATM    6  O   UNL     1     -10.100  20.119  65.819  1.00  0.00    -0.444 OA 
HETATM    7  C   UNL     1      -7.056  20.233  67.265  1.00  0.00    -0.280 C  
HETATM    8  N   UNL     1      -7.857  20.267  66.166  1.00  0.00    -0.219 NA 
HETATM    9  O   UNL     1      -5.931  20.709  67.306  1.00  0.00    -0.186 OA 
HETATM   10  C   UNL     1      -9.112  19.893  66.499  1.00  0.00    -0.379 C  
BRANCH   5  11
HETATM   11  N   UNL     1      -7.181  18.121  68.489  1.00  0.00    -0.259 N  
HETATM   12  H   UNL     1      -6.197  18.043  68.746  1.00  0.00     0.000 HD 
BRANCH  11  13
HETATM   13  C   UNL     1      -7.910  16.989  68.268  1.00  0.00    -0.216 C  
HETATM   14  O   UNL     1      -8.764  16.570  69.037  1.00  0.00    -0.251 OA 
BRANCH  13  15
HETATM   15  N   UNL     1      -7.635  16.420  67.052  1.00  0.00    -0.181 N  
HETATM   16  H   UNL     1      -6.777  15.885  66.921  1.00  0.00     0.000 HD 
BRANCH  15  17
HETATM   17  C   UNL     1      -8.554  16.579  65.964  1.00  0.00    -0.206 C  
BRANCH  17  18
HETATM   18  N   UNL     1      -9.920  16.387  66.375  1.00  0.00    -0.286 N  
HETATM   19  H   UNL     1     -10.183  16.493  67.355  1.00  0.00     0.000 HD 
BRANCH  18  20
HETATM   20  C   UNL     1     -10.866  16.061  65.438  1.00  0.00    -0.328 C  
HETATM   21  O   UNL     1     -11.209  16.805  64.529  1.00  0.00    -0.997 OA 
BRANCH  20  22
HETATM   22  N   UNL     1     -11.378  14.799  65.625  1.00  0.00    -0.345 N  
HETATM   23  H   UNL     1     -12.141  14.618  66.276  1.00  0.00     0.000 HD 
BRANCH  22  24
HETATM   24  C   UNL     1     -10.776  13.749  64.848  1.00  0.00    -0.399 C  
HETATM   25  N   UNL     1     -10.416  12.549  65.563  1.00  0.00    -0.273 N  
HETATM   26  O   UNL     1     -12.593  13.634  63.146  1.00  0.00    -0.792 OA 
HETATM   27  C   UNL     1     -10.629  11.425  64.791  1.00  0.00    -0.316 C  
HETATM   28  N   UNL     1     -11.373  11.779  63.714  1.00  0.00    -0.420 NA 
HETATM   29  O   UNL     1     -10.262  10.290  65.042  1.00  0.00    -0.320 OA 
HETATM   30  C   UNL     1     -11.712  13.098  63.801  1.00  0.00    -0.461 C  
BRANCH  25  31
HETATM   31  C   UNL     1      -9.665  12.547  66.778  1.00  0.00    -0.234 C  
HETATM   32  H   UNL     1      -8.217  13.584  67.530  1.00  0.00     0.000 HD 
HETATM   33  O   UNL     1      -8.717  13.585  66.722  1.00  0.00    -0.188 OA 
ENDBRANCH  25  31
ENDBRANCH  22  24
ENDBRANCH  20  22
ENDBRANCH  18  20
ENDBRANCH  17  18
ENDBRANCH  15  17
ENDBRANCH  13  15
ENDBRANCH  11  13
ENDBRANCH   5  11
ENDBRANCH   2   4
TORSDOF 10
ENDMDL
MODEL       73
REMARK 921   NORMALIZED FREE ENERGY PREDICTED BY IDOCK:   -5.84 KCAL/MOL
REMARK 922        TOTAL FREE ENERGY PREDICTED BY IDOCK:  -11.25 KCAL/MOL
REMARK 923 INTER-LIGAND FREE ENERGY PREDICTED BY IDOCK:   -9.70 KCAL/MOL
REMARK 924 INTRA-LIGAND FREE ENERGY PREDICTED BY IDOCK:   -1.55 KCAL/MOL
REMARK 927      BINDING AFFINITY PREDICTED BY RF-SCORE:    0.00 PKD
ROOT
HETATM    1  O   UNL     1      -9.884  16.918  65.826  1.00  0.00    -0.514 OA 
HETATM    2  C   UNL     1      -9.768  15.520  65.717  1.00  0.00    -0.348 C  
HETATM    3  H   UNL     1      -9.028  17.286  66.008  1.00  0.00     0.000 HD 
ENDROOT
BRANCH   2   4
HETATM    4  N   UNL     1     -11.060  14.965  65.442  1.00  0.00    -0.348 N  
HETATM    5  C   UNL     1     -11.305  13.549  65.627  1.00  0.00    -0.298 C  
HETATM    6  O   UNL     1     -11.635  16.564  63.856  1.00  0.00    -1.175 OA 
HETATM    7  C   UNL     1     -12.189  13.281  64.387  1.00  0.00    -0.390 C  
HETATM    8  N   UNL     1     -12.546  14.481  63.854  1.00  0.00    -0.789 NA 
HETATM    9  O   UNL     1     -12.583  12.203  63.969  1.00  0.00    -0.511 OA 
HETATM   10  C   UNL     1     -11.765  15.460  64.359  1.00  0.00    -0.258 C  
BRANCH   5  11
HETATM   11  N   UNL     1     -12.064  13.304  66.828  1.00  0.00    -0.373 N  
HETATM   12  H   UNL     1     -13.052  13.554  66.858  1.00  0.00     0.000 HD 
BRANCH  11  13
HETATM   13  C   UNL     1     -11.478  12.744  67.926  1.00  0.00    -0.317 C  
HETATM   14  O   UNL     1     -11.393  13.303  69.011  1.00  0.00    -0.256 OA 
BRANCH  13  15
HETATM   15  N   UNL     1     -11.069  11.456  67.698  1.00  0.00    -0.248 N  
HETATM   16  H   UNL     1     -11.709  10.785  67.275  1.00  0.00     0.000 HD 
BRANCH  15  17
HETATM   17  C   UNL     1      -9.741  11.054  68.056  1.00  0.00    -0.172 C  
BRANCH  17  18
HETATM   18  N   UNL     1      -9.597  10.855  69.474  1.00  0.00    -0.423 N  
HETATM   19  H   UNL     1      -9.518  11.656  70.101  1.00  0.00     0.000 HD 
BRANCH  18  20
HETATM   20  C   UNL     1      -9.568   9.580  69.976  1.00  0.00    -0.238 C  
HETATM   21  O   UNL     1      -8.550   9.026  70.369  1.00  0.00    -0.153 OA 
BRANCH  20  22
HETATM   22  N   UNL     1     -10.812   8.996  70.001  1.00  0.00    -0.232 N  
HETATM   23  H   UNL     1     -11.333   8.801  69.146  1.00  0.00     0.000 HD 
BRANCH  22  24
HETATM   24  C   UNL     1     -11.337   8.675  71.301  1.00  0.00    -0.281 C  
HETATM   25  N   UNL     1     -12.559   9.341  71.681  1.00  0.00    -0.342 N  
HETATM   26  O   UNL     1     -11.371   6.208  70.947  1.00  0.00    -0.313 OA 
HETATM   27  C   UNL     1     -13.375   8.504  72.416  1.00  0.00    -0.282 C  
HETATM   28  N   UNL     1     -12.900   7.238  72.308  1.00  0.00    -0.033 NA 
HETATM   29  O   UNL     1     -14.382   8.822  73.024  1.00  0.00    -0.438 OA 
HETATM   30  C   UNL     1     -11.832   7.217  71.459  1.00  0.00    -0.304 C  
BRANCH  25  31
HETATM   31  C   UNL     1     -12.760  10.750  71.571  1.00  0.00    -0.431 C  
HETATM   32  H   UNL     1     -12.973  12.026  70.133  1.00  0.00     0.000 HD 
HETATM   33  O   UNL     1     -12.839  11.088  70.207  1.00  0.00    -0.233 OA 
ENDBRANCH  25  31
ENDBRANCH  22  24
ENDBRANCH  20  22
ENDBRANCH  18  20
ENDBRANCH  17  18
ENDBRANCH  15  17
ENDBRANCH  13  15
ENDBRANCH  11  13
ENDBRANCH   5  11
ENDBRANCH   2   4
TORSDOF 10
ENDMDL
MODEL       74
REMARK 921   NORMALIZED FREE ENERGY PREDICTED BY IDOCK:   -5.84 KCAL/MOL
REMARK 922        TOTAL FREE ENERGY PREDICTED BY IDOCK:  -11.25 KCAL/MOL
REMARK 923 INTER-LIGAND FREE ENERGY PREDICTED BY IDOCK:   -9.18 KCAL/MOL
REMARK 924 INTRA-LIGAND FREE ENERGY PREDICTED BY IDOCK:   -2.06 KCAL/MOL
REMARK 927      BINDING AFFINITY PREDICTED BY RF-SCORE:    0.00 PKD
ROOT
HETATM    1  O   UNL     1     -10.797   8.289  72.930  1.00  0.00    -0.320 OA 
HETATM    2  C   UNL     1     -11.331   7.853  71.703  1.00  0.00    -0.258 C  
HETATM    3  H   UNL     1     -10.283   7.587  73.310  1.00  0.00     0.000 HD 
ENDROOT
BRANCH   2   4
HETATM    4  N   UNL     1     -12.108   8.912  71.130  1.00  0.00    -0.291 N  
HETATM    5  C   UNL     1     -11.461   9.987  70.405  1.00  0.00    -0.314 C  
HETATM    6  O   UNL     1     -13.845   8.745  72.666  1.00  0.00    -0.399 OA 
HETATM    7  C   UNL     1     -12.309  11.178  70.908  1.00  0.00    -0.399 C  
HETATM    8  N   UNL     1     -13.395  10.680  71.559  1.00  0.00    -0.318 NA 
HETATM    9  O   UNL     1     -12.116  12.369  70.713  1.00  0.00    -0.333 OA 
HETATM   10  C   UNL     1     -13.205   9.372  71.836  1.00  0.00    -0.429 C  
BRANCH   5  11
HETATM   11  N   UNL     1     -11.633   9.833  68.982  1.00  0.00    -0.455 N  
HETATM   12  H   UNL     1     -12.375   9.231  68.627  1.00  0.00     0.000 HD 
BRANCH  11  13
HETATM   13  C   UNL     1     -10.816  10.483  68.103  1.00  0.00    -0.253 C  
HETATM   14  O   UNL     1     -10.882  10.349  66.888  1.00  0.00    -0.236 OA 
BRANCH  13  15
HETATM   15  N   UNL     1      -9.970  11.361  68.727  1.00  0.00    -0.289 N  
HETATM   16  H   UNL     1      -9.600  11.142  69.652  1.00  0.00     0.000 HD 
BRANCH  15  17
HETATM   17  C   UNL     1      -9.606  12.586  68.081  1.00  0.00    -0.215 C  
BRANCH  17  18
HETATM   18  N   UNL     1     -10.685  13.538  68.073  1.00  0.00    -0.245 N  
HETATM   19  H   UNL     1     -11.087  13.868  68.951  1.00  0.00     0.000 HD 
BRANCH  18  20
HETATM   20  C   UNL     1     -11.169  13.999  66.877  1.00  0.00    -0.313 C  
HETATM   21  O   UNL     1     -12.207  13.604  66.364  1.00  0.00    -0.425 OA 
BRANCH  20  22
HETATM   22  N   UNL     1     -10.364  14.965  66.321  1.00  0.00    -0.283 N  
HETATM   23  H   UNL     1      -9.532  14.728  65.781  1.00  0.00     0.000 HD 
BRANCH  22  24
HETATM   24  C   UNL     1     -10.761  16.328  66.545  1.00  0.00    -0.187 C  
HETATM   25  N   UNL     1      -9.830  17.157  67.270  1.00  0.00    -0.258 N  
HETATM   26  O   UNL     1     -11.218  16.844  64.150  1.00  0.00    -1.176 OA 
HETATM   27  C   UNL     1      -9.828  18.449  66.783  1.00  0.00    -0.342 C  
HETATM   28  N   UNL     1     -10.490  18.462  65.599  1.00  0.00    -0.619 NA 
HETATM   29  O   UNL     1      -9.288  19.417  67.291  1.00  0.00    -0.302 OA 
HETATM   30  C   UNL     1     -10.863  17.194  65.265  1.00  0.00    -0.036 C  
BRANCH  25  31
HETATM   31  C   UNL     1      -9.222  16.773  68.504  1.00  0.00    -0.243 C  
HETATM   32  H   UNL     1      -9.813  15.992  70.171  1.00  0.00     0.000 HD 
HETATM   33  O   UNL     1     -10.217  16.247  69.349  1.00  0.00    -0.245 OA 
ENDBRANCH  25  31
ENDBRANCH  22  24
ENDBRANCH  20  22
ENDBRANCH  18  20
ENDBRANCH  17  18
ENDBRANCH  15  17
ENDBRANCH  13  15
ENDBRANCH  11  13
ENDBRANCH   5  11
ENDBRANCH   2   4
TORSDOF 10
ENDMDL
MODEL       75
REMARK 921   NORMALIZED FREE ENERGY PREDICTED BY IDOCK:   -5.83 KCAL/MOL
REMARK 922        TOTAL FREE ENERGY PREDICTED BY IDOCK:  -11.24 KCAL/MOL
REMARK 923 INTER-LIGAND FREE ENERGY PREDICTED BY IDOCK:   -9.17 KCAL/MOL
REMARK 924 INTRA-LIGAND FREE ENERGY PREDICTED BY IDOCK:   -2.07 KCAL/MOL
REMARK 927      BINDING AFFINITY PREDICTED BY RF-SCORE:    0.00 PKD
ROOT
HETATM    1  O   UNL     1     -13.228  13.867  66.185  1.00  0.00    -0.377 OA 
HETATM    2  C   UNL     1     -12.831  13.896  64.835  1.00  0.00    -0.180 C  
HETATM    3  H   UNL     1     -14.119  13.544  66.238  1.00  0.00     0.000 HD 
ENDROOT
BRANCH   2   4
HETATM    4  N   UNL     1     -11.487  14.384  64.755  1.00  0.00    -0.386 N  
HETATM    5  C   UNL     1     -10.488  13.943  65.707  1.00  0.00    -0.307 C  
HETATM    6  O   UNL     1     -12.061  16.402  63.756  1.00  0.00    -0.927 OA 
HETATM    7  C   UNL     1      -9.746  15.280  65.935  1.00  0.00    -0.355 C  
HETATM    8  N   UNL     1     -10.165  16.163  64.989  1.00  0.00    -0.506 NA 
HETATM    9  O   UNL     1      -8.875  15.522  66.757  1.00  0.00    -0.221 OA 
HETATM   10  C   UNL     1     -11.293  15.707  64.401  1.00  0.00    -0.263 C  
BRANCH   5  11
HETATM   11  N   UNL     1      -9.591  12.982  65.114  1.00  0.00    -0.487 N  
HETATM   12  H   UNL     1      -9.000  13.263  64.332  1.00  0.00     0.000 HD 
BRANCH  11  13
HETATM   13  C   UNL     1      -9.521  11.703  65.585  1.00  0.00    -0.209 C  
HETATM   14  O   UNL     1      -9.109  10.758  64.927  1.00  0.00    -0.192 OA 
BRANCH  13  15
HETATM   15  N   UNL     1      -9.889  11.611  66.902  1.00  0.00    -0.196 N  
HETATM   16  H   UNL     1     -10.875  11.546  67.153  1.00  0.00     0.000 HD 
BRANCH  15  17
HETATM   17  C   UNL     1      -8.886  11.609  67.926  1.00  0.00    -0.155 C  
BRANCH  17  18
HETATM   18  N   UNL     1      -9.291  10.852  69.081  1.00  0.00    -0.378 N  
HETATM   19  H   UNL     1      -8.969  11.121  70.011  1.00  0.00     0.000 HD 
BRANCH  18  20
HETATM   20  C   UNL     1     -10.113   9.768  68.922  1.00  0.00    -0.183 C  
HETATM   21  O   UNL     1      -9.732   8.676  68.522  1.00  0.00    -0.157 OA 
BRANCH  20  22
HETATM   22  N   UNL     1     -11.415  10.039  69.274  1.00  0.00    -0.445 N  
HETATM   23  H   UNL     1     -12.192   9.868  68.636  1.00  0.00     0.000 HD 
BRANCH  22  24
HETATM   24  C   UNL     1     -11.617  10.575  70.592  1.00  0.00    -0.352 C  
HETATM   25  N   UNL     1     -12.244  11.872  70.667  1.00  0.00    -0.374 N  
HETATM   26  O   UNL     1     -12.845   8.594  71.475  1.00  0.00    -0.323 OA 
HETATM   27  C   UNL     1     -13.089  11.956  71.756  1.00  0.00    -0.360 C  
HETATM   28  N   UNL     1     -13.280  10.706  72.247  1.00  0.00    -0.295 NA 
HETATM   29  O   UNL     1     -13.621  12.964  72.187  1.00  0.00    -0.528 OA 
HETATM   30  C   UNL     1     -12.636   9.798  71.460  1.00  0.00    -0.398 C  
BRANCH  25  31
HETATM   31  C   UNL     1     -11.822  13.001  69.901  1.00  0.00    -0.307 C  
HETATM   32  H   UNL     1     -11.746  13.472  68.028  1.00  0.00     0.000 HD 
HETATM   33  O   UNL     1     -12.027  12.721  68.537  1.00  0.00    -0.308 OA 
ENDBRANCH  25  31
ENDBRANCH  22  24
ENDBRANCH  20  22
ENDBRANCH  18  20
ENDBRANCH  17  18
ENDBRANCH  15  17
ENDBRANCH  13  15
ENDBRANCH  11  13
ENDBRANCH   5  11
ENDBRANCH   2   4
TORSDOF 10
ENDMDL
MODEL       76
REMARK 921   NORMALIZED FREE ENERGY PREDICTED BY IDOCK:   -5.83 KCAL/MOL
REMARK 922        TOTAL FREE ENERGY PREDICTED BY IDOCK:  -11.23 KCAL/MOL
REMARK 923 INTER-LIGAND FREE ENERGY PREDICTED BY IDOCK:  -10.38 KCAL/MOL
REMARK 924 INTRA-LIGAND FREE ENERGY PREDICTED BY IDOCK:   -0.85 KCAL/MOL
REMARK 927      BINDING AFFINITY PREDICTED BY RF-SCORE:    0.00 PKD
ROOT
HETATM    1  O   UNL     1      -9.676   8.620  72.580  1.00  0.00    -0.276 OA 
HETATM    2  C   UNL     1      -9.987   8.883  71.233  1.00  0.00    -0.288 C  
HETATM    3  H   UNL     1      -8.744   8.741  72.711  1.00  0.00     0.000 HD 
ENDROOT
BRANCH   2   4
HETATM    4  N   UNL     1     -11.394   8.701  71.035  1.00  0.00    -0.266 N  
HETATM    5  C   UNL     1     -12.348   9.538  71.733  1.00  0.00    -0.394 C  
HETATM    6  O   UNL     1     -11.233   6.444  70.500  1.00  0.00    -0.300 OA 
HETATM    7  C   UNL     1     -13.417   8.475  72.073  1.00  0.00    -0.381 C  
HETATM    8  N   UNL     1     -13.132   7.346  71.369  1.00  0.00    -0.367 NA 
HETATM    9  O   UNL     1     -14.404   8.606  72.783  1.00  0.00    -0.520 OA 
HETATM   10  C   UNL     1     -11.870   7.410  70.890  1.00  0.00    -0.290 C  
BRANCH   5  11
HETATM   11  N   UNL     1     -12.912  10.531  70.852  1.00  0.00    -0.382 N  
HETATM   12  H   UNL     1     -13.640  10.263  70.191  1.00  0.00     0.000 HD 
BRANCH  11  13
HETATM   13  C   UNL     1     -12.483  11.827  70.891  1.00  0.00    -0.318 C  
HETATM   14  O   UNL     1     -12.873  12.647  71.711  1.00  0.00    -0.312 OA 
BRANCH  13  15
HETATM   15  N   UNL     1     -11.509  12.082  69.962  1.00  0.00    -0.522 N  
HETATM   16  H   UNL     1     -10.791  12.781  70.154  1.00  0.00     0.000 HD 
BRANCH  15  17
HETATM   17  C   UNL     1     -11.501  11.368  68.720  1.00  0.00    -0.290 C  
BRANCH  17  18
HETATM   18  N   UNL     1     -11.711  12.237  67.592  1.00  0.00    -0.350 N  
HETATM   19  H   UNL     1     -12.305  11.941  66.817  1.00  0.00     0.000 HD 
BRANCH  18  20
HETATM   20  C   UNL     1     -11.105  13.466  67.567  1.00  0.00    -0.274 C  
HETATM   21  O   UNL     1     -11.555  14.459  68.123  1.00  0.00    -0.295 OA 
BRANCH  20  22
HETATM   22  N   UNL     1      -9.928  13.458  66.857  1.00  0.00    -0.246 N  
HETATM   23  H   UNL     1      -9.170  12.811  67.076  1.00  0.00     0.000 HD 
BRANCH  22  24
HETATM   24  C   UNL     1      -9.825  14.413  65.788  1.00  0.00    -0.302 C  
HETATM   25  N   UNL     1     -11.026  14.658  65.028  1.00  0.00    -0.380 N  
HETATM   26  O   UNL     1      -8.897  16.251  67.193  1.00  0.00    -0.183 OA 
HETATM   27  C   UNL     1     -11.123  15.985  64.660  1.00  0.00    -0.332 C  
HETATM   28  N   UNL     1     -10.208  16.694  65.367  1.00  0.00    -0.616 NA 
HETATM   29  O   UNL     1     -11.921  16.465  63.874  1.00  0.00    -1.023 OA 
HETATM   30  C   UNL     1      -9.562  15.870  66.242  1.00  0.00    -0.316 C  
BRANCH  25  31
HETATM   31  C   UNL     1     -11.841  13.620  64.480  1.00  0.00    -0.412 C  
HETATM   32  H   UNL     1     -13.651  12.987  64.723  1.00  0.00     0.000 HD 
HETATM   33  O   UNL     1     -13.109  13.677  65.087  1.00  0.00    -0.750 OA 
ENDBRANCH  25  31
ENDBRANCH  22  24
ENDBRANCH  20  22
ENDBRANCH  18  20
ENDBRANCH  17  18
ENDBRANCH  15  17
ENDBRANCH  13  15
ENDBRANCH  11  13
ENDBRANCH   5  11
ENDBRANCH   2   4
TORSDOF 10
ENDMDL
MODEL       77
REMARK 921   NORMALIZED FREE ENERGY PREDICTED BY IDOCK:   -5.81 KCAL/MOL
REMARK 922        TOTAL FREE ENERGY PREDICTED BY IDOCK:  -11.20 KCAL/MOL
REMARK 923 INTER-LIGAND FREE ENERGY PREDICTED BY IDOCK:   -9.53 KCAL/MOL
REMARK 924 INTRA-LIGAND FREE ENERGY PREDICTED BY IDOCK:   -1.67 KCAL/MOL
REMARK 927      BINDING AFFINITY PREDICTED BY RF-SCORE:    0.00 PKD
ROOT
HETATM    1  O   UNL     1     -12.137   5.397  73.010  1.00  0.00    -0.547 OA 
HETATM    2  C   UNL     1     -10.911   6.087  73.044  1.00  0.00    -0.257 C  
HETATM    3  H   UNL     1     -12.049   4.587  73.497  1.00  0.00     0.000 HD 
ENDROOT
BRANCH   2   4
HETATM    4  N   UNL     1     -11.044   7.309  72.309  1.00  0.00    -0.248 N  
HETATM    5  C   UNL     1     -11.618   7.307  70.978  1.00  0.00    -0.299 C  
HETATM    6  O   UNL     1      -9.258   8.370  73.353  1.00  0.00    -0.200 OA 
HETATM    7  C   UNL     1     -10.684   8.333  70.297  1.00  0.00    -0.235 C  
HETATM    8  N   UNL     1      -9.953   8.949  71.266  1.00  0.00    -0.260 NA 
HETATM    9  O   UNL     1     -10.632   8.627  69.112  1.00  0.00    -0.224 OA 
HETATM   10  C   UNL     1     -10.034   8.249  72.419  1.00  0.00    -0.309 C  
BRANCH   5  11
HETATM   11  N   UNL     1     -12.968   7.812  70.993  1.00  0.00    -0.547 N  
HETATM   12  H   UNL     1     -13.729   7.224  70.653  1.00  0.00     0.000 HD 
BRANCH  11  13
HETATM   13  C   UNL     1     -13.243   9.067  71.455  1.00  0.00    -0.334 C  
HETATM   14  O   UNL     1     -13.535   9.314  72.617  1.00  0.00    -0.444 OA 
BRANCH  13  15
HETATM   15  N   UNL     1     -13.077  10.026  70.491  1.00  0.00    -0.599 N  
HETATM   16  H   UNL     1     -13.277   9.808  69.515  1.00  0.00     0.000 HD 
BRANCH  15  17
HETATM   17  C   UNL     1     -12.621  11.334  70.856  1.00  0.00    -0.371 C  
BRANCH  17  18
HETATM   18  N   UNL     1     -11.432  11.715  70.139  1.00  0.00    -0.499 N  
HETATM   19  H   UNL     1     -10.543  11.812  70.630  1.00  0.00     0.000 HD 
BRANCH  18  20
HETATM   20  C   UNL     1     -11.504  11.946  68.790  1.00  0.00    -0.290 C  
HETATM   21  O   UNL     1     -12.210  11.303  68.025  1.00  0.00    -0.621 OA 
BRANCH  20  22
HETATM   22  N   UNL     1     -10.704  12.991  68.392  1.00  0.00    -0.249 N  
HETATM   23  H   UNL     1      -9.876  13.268  68.920  1.00  0.00     0.000 HD 
BRANCH  22  24
HETATM   24  C   UNL     1     -11.099  13.670  67.188  1.00  0.00    -0.297 C  
HETATM   25  N   UNL     1     -10.788  15.076  67.114  1.00  0.00    -0.307 N  
HETATM   26  O   UNL     1      -9.946  12.100  65.634  1.00  0.00    -0.244 OA 
HETATM   27  C   UNL     1     -10.432  15.442  65.831  1.00  0.00    -0.340 C  
HETATM   28  N   UNL     1     -10.212  14.314  65.109  1.00  0.00    -0.396 NA 
HETATM   29  O   UNL     1     -10.286  16.577  65.412  1.00  0.00    -0.566 OA 
HETATM   30  C   UNL     1     -10.348  13.220  65.912  1.00  0.00    -0.292 C  
BRANCH  25  31
HETATM   31  C   UNL     1     -11.096  16.012  68.149  1.00  0.00    -0.344 C  
HETATM   32  H   UNL     1     -10.316  16.536  69.838  1.00  0.00     0.000 HD 
HETATM   33  O   UNL     1     -10.111  15.914  69.149  1.00  0.00    -0.211 OA 
ENDBRANCH  25  31
ENDBRANCH  22  24
ENDBRANCH  20  22
ENDBRANCH  18  20
ENDBRANCH  17  18
ENDBRANCH  15  17
ENDBRANCH  13  15
ENDBRANCH  11  13
ENDBRANCH   5  11
ENDBRANCH   2   4
TORSDOF 10
ENDMDL
MODEL       78
REMARK 921   NORMALIZED FREE ENERGY PREDICTED BY IDOCK:   -5.79 KCAL/MOL
REMARK 922        TOTAL FREE ENERGY PREDICTED BY IDOCK:  -11.17 KCAL/MOL
REMARK 923 INTER-LIGAND FREE ENERGY PREDICTED BY IDOCK:   -8.88 KCAL/MOL
REMARK 924 INTRA-LIGAND FREE ENERGY PREDICTED BY IDOCK:   -2.29 KCAL/MOL
REMARK 927      BINDING AFFINITY PREDICTED BY RF-SCORE:    0.00 PKD
ROOT
HETATM    1  O   UNL     1     -10.935  18.472  68.192  1.00  0.00    -0.255 OA 
HETATM    2  C   UNL     1     -10.144  19.480  68.776  1.00  0.00    -0.430 C  
HETATM    3  H   UNL     1     -11.791  18.474  68.603  1.00  0.00     0.000 HD 
ENDROOT
BRANCH   2   4
HETATM    4  N   UNL     1      -8.853  19.477  68.157  1.00  0.00    -0.323 N  
HETATM    5  C   UNL     1      -7.651  19.490  68.965  1.00  0.00    -0.321 C  
HETATM    6  O   UNL     1      -9.562  20.519  66.204  1.00  0.00    -0.229 OA 
HETATM    7  C   UNL     1      -6.790  20.459  68.123  1.00  0.00    -0.270 C  
HETATM    8  N   UNL     1      -7.408  20.643  66.925  1.00  0.00    -0.300 NA 
HETATM    9  O   UNL     1      -5.703  20.938  68.411  1.00  0.00    -0.299 OA 
HETATM   10  C   UNL     1      -8.686  20.209  66.995  1.00  0.00    -0.337 C  
BRANCH   5  11
HETATM   11  N   UNL     1      -7.030  18.190  68.998  1.00  0.00    -0.271 N  
HETATM   12  H   UNL     1      -6.101  18.086  69.406  1.00  0.00     0.000 HD 
BRANCH  11  13
HETATM   13  C   UNL     1      -7.667  17.095  68.489  1.00  0.00    -0.248 C  
HETATM   14  O   UNL     1      -8.623  16.555  69.028  1.00  0.00    -0.246 OA 
BRANCH  13  15
HETATM   15  N   UNL     1      -7.168  16.720  67.270  1.00  0.00    -0.157 N  
HETATM   16  H   UNL     1      -6.245  16.292  67.206  1.00  0.00     0.000 HD 
BRANCH  15  17
HETATM   17  C   UNL     1      -7.945  16.931  66.084  1.00  0.00    -0.255 C  
BRANCH  17  18
HETATM   18  N   UNL     1      -9.355  16.773  66.323  1.00  0.00    -0.278 N  
HETATM   19  H   UNL     1      -9.768  17.092  67.199  1.00  0.00     0.000 HD 
BRANCH  18  20
HETATM   20  C   UNL     1     -10.140  16.190  65.362  1.00  0.00    -0.186 C  
HETATM   21  O   UNL     1     -10.824  16.820  64.567  1.00  0.00    -0.886 OA 
BRANCH  20  22
HETATM   22  N   UNL     1     -10.063  14.817  65.382  1.00  0.00    -0.371 N  
HETATM   23  H   UNL     1      -9.668  14.288  64.605  1.00  0.00     0.000 HD 
BRANCH  22  24
HETATM   24  C   UNL     1     -10.570  14.170  66.561  1.00  0.00    -0.282 C  
HETATM   25  N   UNL     1     -11.404  13.013  66.349  1.00  0.00    -0.304 N  
HETATM   26  O   UNL     1      -8.347  13.866  67.647  1.00  0.00    -0.155 OA 
HETATM   27  C   UNL     1     -11.185  12.055  67.318  1.00  0.00    -0.311 C  
HETATM   28  N   UNL     1     -10.056  12.381  67.997  1.00  0.00    -0.208 NA 
HETATM   29  O   UNL     1     -11.851  11.053  67.514  1.00  0.00    -0.571 OA 
HETATM   30  C   UNL     1      -9.493  13.495  67.446  1.00  0.00    -0.225 C  
BRANCH  25  31
HETATM   31  C   UNL     1     -12.511  12.990  65.446  1.00  0.00    -0.476 C  
HETATM   32  H   UNL     1     -13.958  14.182  64.975  1.00  0.00     0.000 HD 
HETATM   33  O   UNL     1     -13.222  14.197  65.576  1.00  0.00    -0.688 OA 
ENDBRANCH  25  31
ENDBRANCH  22  24
ENDBRANCH  20  22
ENDBRANCH  18  20
ENDBRANCH  17  18
ENDBRANCH  15  17
ENDBRANCH  13  15
ENDBRANCH  11  13
ENDBRANCH   5  11
ENDBRANCH   2   4
TORSDOF 10
ENDMDL
MODEL       79
REMARK 921   NORMALIZED FREE ENERGY PREDICTED BY IDOCK:   -5.79 KCAL/MOL
REMARK 922        TOTAL FREE ENERGY PREDICTED BY IDOCK:  -11.17 KCAL/MOL
REMARK 923 INTER-LIGAND FREE ENERGY PREDICTED BY IDOCK:   -9.81 KCAL/MOL
REMARK 924 INTRA-LIGAND FREE ENERGY PREDICTED BY IDOCK:   -1.36 KCAL/MOL
REMARK 927      BINDING AFFINITY PREDICTED BY RF-SCORE:    0.00 PKD
ROOT
HETATM    1  O   UNL     1     -12.376  13.916  63.189  1.00  0.00    -1.122 OA 
HETATM    2  C   UNL     1     -12.443  14.089  64.584  1.00  0.00    -0.335 C  
HETATM    3  H   UNL     1     -13.154  13.456  62.897  1.00  0.00     0.000 HD 
ENDROOT
BRANCH   2   4
HETATM    4  N   UNL     1     -11.269  14.782  65.024  1.00  0.00    -0.375 N  
HETATM    5  C   UNL     1     -10.687  14.492  66.318  1.00  0.00    -0.309 C  
HETATM    6  O   UNL     1     -11.681  16.697  63.772  1.00  0.00    -1.015 OA 
HETATM    7  C   UNL     1     -10.307  15.925  66.753  1.00  0.00    -0.298 C  
HETATM    8  N   UNL     1     -10.433  16.743  65.673  1.00  0.00    -0.527 NA 
HETATM    9  O   UNL     1      -9.889  16.291  67.841  1.00  0.00    -0.232 OA 
HETATM   10  C   UNL     1     -11.146  16.124  64.707  1.00  0.00    -0.333 C  
BRANCH   5  11
HETATM   11  N   UNL     1      -9.496  13.690  66.186  1.00  0.00    -0.466 N  
HETATM   12  H   UNL     1      -8.957  13.729  65.322  1.00  0.00     0.000 HD 
BRANCH  11  13
HETATM   13  C   UNL     1      -9.079  12.880  67.203  1.00  0.00    -0.220 C  
HETATM   14  O   UNL     1      -8.201  13.185  67.998  1.00  0.00    -0.137 OA 
BRANCH  13  15
HETATM   15  N   UNL     1      -9.809  11.723  67.281  1.00  0.00    -0.185 N  
HETATM   16  H   UNL     1      -9.693  10.998  66.573  1.00  0.00     0.000 HD 
BRANCH  15  17
HETATM   17  C   UNL     1     -10.736  11.534  68.356  1.00  0.00    -0.208 C  
BRANCH  17  18
HETATM   18  N   UNL     1     -10.098  11.021  69.540  1.00  0.00    -0.441 N  
HETATM   19  H   UNL     1      -9.102  11.181  69.698  1.00  0.00     0.000 HD 
BRANCH  18  20
HETATM   20  C   UNL     1     -10.838  10.317  70.453  1.00  0.00    -0.253 C  
HETATM   21  O   UNL     1     -11.870  10.735  70.961  1.00  0.00    -0.323 OA 
BRANCH  20  22
HETATM   22  N   UNL     1     -10.299   9.082  70.727  1.00  0.00    -0.223 N  
HETATM   23  H   UNL     1      -9.662   8.616  70.081  1.00  0.00     0.000 HD 
BRANCH  22  24
HETATM   24  C   UNL     1     -10.684   8.485  71.977  1.00  0.00    -0.340 C  
HETATM   25  N   UNL     1     -11.229   7.151  71.909  1.00  0.00    -0.243 N  
HETATM   26  O   UNL     1      -8.485   8.829  73.098  1.00  0.00    -0.386 OA 
HETATM   27  C   UNL     1     -10.830   6.393  72.991  1.00  0.00    -0.259 C  
HETATM   28  N   UNL     1      -9.825   7.048  73.626  1.00  0.00    -0.247 NA 
HETATM   29  O   UNL     1     -11.259   5.298  73.310  1.00  0.00    -0.305 OA 
HETATM   30  C   UNL     1      -9.511   8.185  72.942  1.00  0.00    -0.275 C  
BRANCH  25  31
HETATM   31  C   UNL     1     -12.273   6.767  71.013  1.00  0.00    -0.352 C  
HETATM   32  H   UNL     1     -12.385   6.059  69.217  1.00  0.00     0.000 HD 
HETATM   33  O   UNL     1     -11.691   6.315  69.814  1.00  0.00    -0.403 OA 
ENDBRANCH  25  31
ENDBRANCH  22  24
ENDBRANCH  20  22
ENDBRANCH  18  20
ENDBRANCH  17  18
ENDBRANCH  15  17
ENDBRANCH  13  15
ENDBRANCH  11  13
ENDBRANCH   5  11
ENDBRANCH   2   4
TORSDOF 10
ENDMDL
MODEL       80
REMARK 921   NORMALIZED FREE ENERGY PREDICTED BY IDOCK:   -5.78 KCAL/MOL
REMARK 922        TOTAL FREE ENERGY PREDICTED BY IDOCK:  -11.16 KCAL/MOL
REMARK 923 INTER-LIGAND FREE ENERGY PREDICTED BY IDOCK:   -9.00 KCAL/MOL
REMARK 924 INTRA-LIGAND FREE ENERGY PREDICTED BY IDOCK:   -2.16 KCAL/MOL
REMARK 927      BINDING AFFINITY PREDICTED BY RF-SCORE:    0.00 PKD
ROOT
HETATM    1  O   UNL     1      -8.504  14.920  69.793  1.00  0.00    -0.442 OA 
HETATM    2  C   UNL     1      -7.812  15.872  69.021  1.00  0.00    -0.216 C  
HETATM    3  H   UNL     1      -7.988  14.124  69.837  1.00  0.00     0.000 HD 
ENDROOT
BRANCH   2   4
HETATM    4  N   UNL     1      -8.591  17.073  68.954  1.00  0.00    -0.236 N  
HETATM    5  C   UNL     1      -9.996  17.018  68.607  1.00  0.00    -0.294 C  
HETATM    6  O   UNL     1      -6.795  18.450  68.426  1.00  0.00    -0.226 OA 
HETATM    7  C   UNL     1     -10.083  18.270  67.704  1.00  0.00    -0.356 C  
HETATM    8  N   UNL     1      -8.931  18.978  67.849  1.00  0.00    -0.293 NA 
HETATM    9  O   UNL     1     -11.030  18.637  67.024  1.00  0.00    -0.320 OA 
HETATM   10  C   UNL     1      -7.991  18.211  68.445  1.00  0.00    -0.302 C  
BRANCH   5  11
HETATM   11  N   UNL     1     -10.828  17.198  69.771  1.00  0.00    -0.293 N  
HETATM   12  H   UNL     1     -11.046  18.140  70.093  1.00  0.00     0.000 HD 
BRANCH  11  13
HETATM   13  C   UNL     1     -11.327  16.123  70.449  1.00  0.00    -0.363 C  
HETATM   14  O   UNL     1     -11.718  16.173  71.608  1.00  0.00    -0.467 OA 
BRANCH  13  15
HETATM   15  N   UNL     1     -11.417  15.006  69.662  1.00  0.00    -0.276 N  
HETATM   16  H   UNL     1     -10.929  14.972  68.767  1.00  0.00     0.000 HD 
BRANCH  15  17
HETATM   17  C   UNL     1     -12.196  13.885  70.097  1.00  0.00    -0.358 C  
BRANCH  17  18
HETATM   18  N   UNL     1     -11.652  12.634  69.640  1.00  0.00    -0.432 N  
HETATM   19  H   UNL     1     -11.804  11.779  70.177  1.00  0.00     0.000 HD 
BRANCH  18  20
HETATM   20  C   UNL     1     -10.927  12.599  68.478  1.00  0.00    -0.261 C  
HETATM   21  O   UNL     1      -9.733  12.856  68.411  1.00  0.00    -0.223 OA 
BRANCH  20  22
HETATM   22  N   UNL     1     -11.689  12.230  67.394  1.00  0.00    -0.356 N  
HETATM   23  H   UNL     1     -12.584  11.752  67.501  1.00  0.00     0.000 HD 
BRANCH  22  24
HETATM   24  C   UNL     1     -11.153  12.557  66.101  1.00  0.00    -0.298 C  
HETATM   25  N   UNL     1     -10.639  11.456  65.323  1.00  0.00    -0.280 N  
HETATM   26  O   UNL     1     -13.182  13.757  65.292  1.00  0.00    -0.755 OA 
HETATM   27  C   UNL     1     -10.904  11.628  63.979  1.00  0.00    -0.392 C  
HETATM   28  N   UNL     1     -11.808  12.631  63.845  1.00  0.00    -0.424 NA 
HETATM   29  O   UNL     1     -10.452  10.969  63.059  1.00  0.00    -0.238 OA 
HETATM   30  C   UNL     1     -12.194  13.071  65.077  1.00  0.00    -0.453 C  
BRANCH  25  31
HETATM   31  C   UNL     1      -9.726  10.483  65.834  1.00  0.00    -0.217 C  
HETATM   32  H   UNL     1      -9.833   8.932  66.982  1.00  0.00     0.000 HD 
HETATM   33  O   UNL     1     -10.440   9.579  66.642  1.00  0.00    -0.231 OA 
ENDBRANCH  25  31
ENDBRANCH  22  24
ENDBRANCH  20  22
ENDBRANCH  18  20
ENDBRANCH  17  18
ENDBRANCH  15  17
ENDBRANCH  13  15
ENDBRANCH  11  13
ENDBRANCH   5  11
ENDBRANCH   2   4
TORSDOF 10
ENDMDL
MODEL       81
REMARK 921   NORMALIZED FREE ENERGY PREDICTED BY IDOCK:   -5.78 KCAL/MOL
REMARK 922        TOTAL FREE ENERGY PREDICTED BY IDOCK:  -11.15 KCAL/MOL
REMARK 923 INTER-LIGAND FREE ENERGY PREDICTED BY IDOCK:  -10.05 KCAL/MOL
REMARK 924 INTRA-LIGAND FREE ENERGY PREDICTED BY IDOCK:   -1.10 KCAL/MOL
REMARK 927      BINDING AFFINITY PREDICTED BY RF-SCORE:    0.00 PKD
ROOT
HETATM    1  O   UNL     1     -11.466   6.777  68.118  1.00  0.00    -0.545 OA 
HETATM    2  C   UNL     1     -11.351   6.298  69.436  1.00  0.00    -0.378 C  
HETATM    3  H   UNL     1     -11.527   6.037  67.525  1.00  0.00     0.000 HD 
ENDROOT
BRANCH   2   4
HETATM    4  N   UNL     1     -11.258   7.413  70.330  1.00  0.00    -0.269 N  
HETATM    5  C   UNL     1      -9.996   8.100  70.518  1.00  0.00    -0.187 C  
HETATM    6  O   UNL     1     -13.000   6.719  71.704  1.00  0.00    -0.345 OA 
HETATM    7  C   UNL     1     -10.066   8.345  72.043  1.00  0.00    -0.294 C  
HETATM    8  N   UNL     1     -11.331   8.066  72.460  1.00  0.00    -0.382 NA 
HETATM    9  O   UNL     1      -9.189   8.785  72.771  1.00  0.00    -0.305 OA 
HETATM   10  C   UNL     1     -11.986   7.368  71.506  1.00  0.00    -0.307 C  
BRANCH   5  11
HETATM   11  N   UNL     1      -9.981   9.362  69.821  1.00  0.00    -0.187 N  
HETATM   12  H   UNL     1      -9.096   9.848  69.681  1.00  0.00     0.000 HD 
BRANCH  11  13
HETATM   13  C   UNL     1     -11.135   9.915  69.347  1.00  0.00    -0.199 C  
HETATM   14  O   UNL     1     -11.978  10.442  70.060  1.00  0.00    -0.268 OA 
BRANCH  13  15
HETATM   15  N   UNL     1     -11.203   9.887  67.979  1.00  0.00    -0.521 N  
HETATM   16  H   UNL     1     -11.628   9.090  67.506  1.00  0.00     0.000 HD 
BRANCH  15  17
HETATM   17  C   UNL     1     -10.677  10.978  67.214  1.00  0.00    -0.265 C  
BRANCH  17  18
HETATM   18  N   UNL     1     -11.277  12.235  67.576  1.00  0.00    -0.278 N  
HETATM   19  H   UNL     1     -11.149  12.616  68.514  1.00  0.00     0.000 HD 
BRANCH  18  20
HETATM   20  C   UNL     1     -12.022  12.917  66.650  1.00  0.00    -0.366 C  
HETATM   21  O   UNL     1     -12.447  12.419  65.617  1.00  0.00    -0.640 OA 
BRANCH  20  22
HETATM   22  N   UNL     1     -12.251  14.222  67.017  1.00  0.00    -0.575 N  
HETATM   23  H   UNL     1     -13.194  14.585  67.160  1.00  0.00     0.000 HD 
BRANCH  22  24
HETATM   24  C   UNL     1     -11.086  15.047  67.190  1.00  0.00    -0.332 C  
HETATM   25  N   UNL     1     -10.846  16.039  66.170  1.00  0.00    -0.237 N  
HETATM   26  O   UNL     1     -11.664  15.805  69.492  1.00  0.00    -0.340 OA 
HETATM   27  C   UNL     1     -10.329  17.198  66.713  1.00  0.00    -0.302 C  
HETATM   28  N   UNL     1     -10.475  17.142  68.061  1.00  0.00    -0.354 NA 
HETATM   29  O   UNL     1      -9.862  18.143  66.101  1.00  0.00    -0.443 OA 
HETATM   30  C   UNL     1     -11.141  16.003  68.406  1.00  0.00    -0.351 C  
BRANCH  25  31
HETATM   31  C   UNL     1     -10.858  15.754  64.771  1.00  0.00    -0.344 C  
HETATM   32  H   UNL     1     -11.669  16.524  63.193  1.00  0.00     0.000 HD 
HETATM   33  O   UNL     1     -11.661  16.712  64.124  1.00  0.00    -1.034 OA 
ENDBRANCH  25  31
ENDBRANCH  22  24
ENDBRANCH  20  22
ENDBRANCH  18  20
ENDBRANCH  17  18
ENDBRANCH  15  17
ENDBRANCH  13  15
ENDBRANCH  11  13
ENDBRANCH   5  11
ENDBRANCH   2   4
TORSDOF 10
ENDMDL
MODEL       82
REMARK 921   NORMALIZED FREE ENERGY PREDICTED BY IDOCK:   -5.78 KCAL/MOL
REMARK 922        TOTAL FREE ENERGY PREDICTED BY IDOCK:  -11.15 KCAL/MOL
REMARK 923 INTER-LIGAND FREE ENERGY PREDICTED BY IDOCK:   -9.04 KCAL/MOL
REMARK 924 INTRA-LIGAND FREE ENERGY PREDICTED BY IDOCK:   -2.11 KCAL/MOL
REMARK 927      BINDING AFFINITY PREDICTED BY RF-SCORE:    0.00 PKD
ROOT
HETATM    1  O   UNL     1      -9.810   5.310  68.114  1.00  0.00    -0.136 OA 
HETATM    2  C   UNL     1     -10.577   6.164  67.300  1.00  0.00    -0.290 C  
HETATM    3  H   UNL     1      -9.812   4.439  67.736  1.00  0.00     0.000 HD 
ENDROOT
BRANCH   2   4
HETATM    4  N   UNL     1     -10.575   7.478  67.870  1.00  0.00    -0.209 N  
HETATM    5  C   UNL     1      -9.638   8.479  67.403  1.00  0.00    -0.160 C  
HETATM    6  O   UNL     1     -11.406   6.806  69.935  1.00  0.00    -0.315 OA 
HETATM    7  C   UNL     1      -9.270   9.133  68.754  1.00  0.00    -0.136 C  
HETATM    8  N   UNL     1     -10.145   8.684  69.694  1.00  0.00    -0.196 NA 
HETATM    9  O   UNL     1      -8.405   9.968  68.971  1.00  0.00    -0.115 OA 
HETATM   10  C   UNL     1     -10.803   7.599  69.230  1.00  0.00    -0.099 C  
BRANCH   5  11
HETATM   11  N   UNL     1     -10.288   9.446  66.554  1.00  0.00    -0.232 N  
HETATM   12  H   UNL     1     -11.183   9.844  66.840  1.00  0.00     0.000 HD 
BRANCH  11  13
HETATM   13  C   UNL     1      -9.724   9.836  65.374  1.00  0.00    -0.313 C  
HETATM   14  O   UNL     1      -8.541   9.680  65.103  1.00  0.00    -0.138 OA 
BRANCH  13  15
HETATM   15  N   UNL     1     -10.646  10.348  64.499  1.00  0.00    -0.192 N  
HETATM   16  H   UNL     1     -11.635  10.353  64.746  1.00  0.00     0.000 HD 
BRANCH  15  17
HETATM   17  C   UNL     1     -10.218  10.875  63.237  1.00  0.00    -0.257 C  
BRANCH  17  18
HETATM   18  N   UNL     1     -10.600  12.252  63.065  1.00  0.00    -0.543 N  
HETATM   19  H   UNL     1      -9.925  12.934  62.720  1.00  0.00     0.000 HD 
BRANCH  18  20
HETATM   20  C   UNL     1     -11.879  12.638  63.369  1.00  0.00    -0.514 C  
HETATM   21  O   UNL     1     -12.874  11.983  63.090  1.00  0.00    -0.661 OA 
BRANCH  20  22
HETATM   22  N   UNL     1     -11.921  13.840  64.036  1.00  0.00    -0.586 N  
HETATM   23  H   UNL     1     -12.536  14.598  63.742  1.00  0.00     0.000 HD 
BRANCH  22  24
HETATM   24  C   UNL     1     -11.047  13.967  65.171  1.00  0.00    -0.341 C  
HETATM   25  N   UNL     1     -10.940  15.282  65.754  1.00  0.00    -0.344 N  
HETATM   26  O   UNL     1     -12.110  12.146  66.500  1.00  0.00    -0.627 OA 
HETATM   27  C   UNL     1     -10.823  15.211  67.127  1.00  0.00    -0.320 C  
HETATM   28  N   UNL     1     -11.131  13.949  67.519  1.00  0.00    -0.279 NA 
HETATM   29  O   UNL     1     -10.542  16.127  67.881  1.00  0.00    -0.290 OA 
HETATM   30  C   UNL     1     -11.515  13.212  66.438  1.00  0.00    -0.334 C  
BRANCH  25  31
HETATM   31  C   UNL     1     -10.686  16.466  64.995  1.00  0.00    -0.259 C  
HETATM   32  H   UNL     1     -11.486  17.351  63.474  1.00  0.00     0.000 HD 
HETATM   33  O   UNL     1     -11.655  16.564  63.979  1.00  0.00    -1.154 OA 
ENDBRANCH  25  31
ENDBRANCH  22  24
ENDBRANCH  20  22
ENDBRANCH  18  20
ENDBRANCH  17  18
ENDBRANCH  15  17
ENDBRANCH  13  15
ENDBRANCH  11  13
ENDBRANCH   5  11
ENDBRANCH   2   4
TORSDOF 10
ENDMDL
MODEL       83
REMARK 921   NORMALIZED FREE ENERGY PREDICTED BY IDOCK:   -5.78 KCAL/MOL
REMARK 922        TOTAL FREE ENERGY PREDICTED BY IDOCK:  -11.15 KCAL/MOL
REMARK 923 INTER-LIGAND FREE ENERGY PREDICTED BY IDOCK:   -9.36 KCAL/MOL
REMARK 924 INTRA-LIGAND FREE ENERGY PREDICTED BY IDOCK:   -1.79 KCAL/MOL
REMARK 927      BINDING AFFINITY PREDICTED BY RF-SCORE:    0.00 PKD
ROOT
HETATM    1  O   UNL     1     -11.655  11.240  62.925  1.00  0.00    -0.834 OA 
HETATM    2  C   UNL     1     -12.528  12.174  63.515  1.00  0.00    -0.555 C  
HETATM    3  H   UNL     1     -12.106  10.804  62.212  1.00  0.00     0.000 HD 
ENDROOT
BRANCH   2   4
HETATM    4  N   UNL     1     -11.848  12.831  64.591  1.00  0.00    -0.353 N  
HETATM    5  C   UNL     1     -11.528  12.111  65.807  1.00  0.00    -0.361 C  
HETATM    6  O   UNL     1     -12.643  14.952  64.069  1.00  0.00    -0.832 OA 
HETATM    7  C   UNL     1     -11.838  13.214  66.844  1.00  0.00    -0.386 C  
HETATM    8  N   UNL     1     -12.002  14.389  66.177  1.00  0.00    -0.388 NA 
HETATM    9  O   UNL     1     -11.865  13.111  68.062  1.00  0.00    -0.348 OA 
HETATM   10  C   UNL     1     -12.172  14.150  64.859  1.00  0.00    -0.438 C  
BRANCH   5  11
HETATM   11  N   UNL     1     -10.128  11.772  65.859  1.00  0.00    -0.226 N  
HETATM   12  H   UNL     1      -9.524  12.233  66.539  1.00  0.00     0.000 HD 
BRANCH  11  13
HETATM   13  C   UNL     1      -9.599  10.842  65.011  1.00  0.00    -0.254 C  
HETATM   14  O   UNL     1      -8.727  11.090  64.190  1.00  0.00    -0.062 OA 
BRANCH  13  15
HETATM   15  N   UNL     1     -10.097   9.586  65.239  1.00  0.00    -0.316 N  
HETATM   16  H   UNL     1     -10.769   9.178  64.590  1.00  0.00     0.000 HD 
BRANCH  15  17
HETATM   17  C   UNL     1      -9.671   8.846  66.390  1.00  0.00    -0.262 C  
BRANCH  17  18
HETATM   18  N   UNL     1     -10.738   8.656  67.338  1.00  0.00    -0.453 N  
HETATM   19  H   UNL     1     -11.560   8.107  67.085  1.00  0.00     0.000 HD 
BRANCH  18  20
HETATM   20  C   UNL     1     -10.640   9.218  68.584  1.00  0.00    -0.187 C  
HETATM   21  O   UNL     1      -9.980  10.219  68.830  1.00  0.00    -0.164 OA 
BRANCH  20  22
HETATM   22  N   UNL     1     -11.377   8.541  69.527  1.00  0.00    -0.416 N  
HETATM   23  H   UNL     1     -12.368   8.731  69.675  1.00  0.00     0.000 HD 
BRANCH  22  24
HETATM   24  C   UNL     1     -10.671   7.548  70.290  1.00  0.00    -0.238 C  
HETATM   25  N   UNL     1     -11.227   7.215  71.578  1.00  0.00    -0.240 N  
HETATM   26  O   UNL     1     -10.669   5.818  68.497  1.00  0.00    -0.236 OA 
HETATM   27  C   UNL     1     -11.076   5.871  71.854  1.00  0.00    -0.268 C  
HETATM   28  N   UNL     1     -10.709   5.237  70.713  1.00  0.00    -0.183 NA 
HETATM   29  O   UNL     1     -11.281   5.320  72.923  1.00  0.00    -0.279 OA 
HETATM   30  C   UNL     1     -10.686   6.126  69.679  1.00  0.00    -0.319 C  
BRANCH  25  31
HETATM   31  C   UNL     1     -11.607   8.187  72.553  1.00  0.00    -0.404 C  
HETATM   32  H   UNL     1     -13.136   9.327  72.871  1.00  0.00     0.000 HD 
HETATM   33  O   UNL     1     -12.884   8.679  72.223  1.00  0.00    -0.360 OA 
ENDBRANCH  25  31
ENDBRANCH  22  24
ENDBRANCH  20  22
ENDBRANCH  18  20
ENDBRANCH  17  18
ENDBRANCH  15  17
ENDBRANCH  13  15
ENDBRANCH  11  13
ENDBRANCH   5  11
ENDBRANCH   2   4
TORSDOF 10
ENDMDL
MODEL       84
REMARK 921   NORMALIZED FREE ENERGY PREDICTED BY IDOCK:   -5.77 KCAL/MOL
REMARK 922        TOTAL FREE ENERGY PREDICTED BY IDOCK:  -11.13 KCAL/MOL
REMARK 923 INTER-LIGAND FREE ENERGY PREDICTED BY IDOCK:   -9.49 KCAL/MOL
REMARK 924 INTRA-LIGAND FREE ENERGY PREDICTED BY IDOCK:   -1.64 KCAL/MOL
REMARK 927      BINDING AFFINITY PREDICTED BY RF-SCORE:    0.00 PKD
ROOT
HETATM    1  O   UNL     1     -12.844   6.034  72.505  1.00  0.00    -0.507 OA 
HETATM    2  C   UNL     1     -11.518   5.562  72.477  1.00  0.00    -0.244 C  
HETATM    3  H   UNL     1     -13.267   5.718  73.295  1.00  0.00     0.000 HD 
ENDROOT
BRANCH   2   4
HETATM    4  N   UNL     1     -10.880   6.037  71.286  1.00  0.00    -0.262 N  
HETATM    5  C   UNL     1     -11.626   6.805  70.310  1.00  0.00    -0.362 C  
HETATM    6  O   UNL     1      -9.292   4.341  71.215  1.00  0.00    -0.130 OA 
HETATM    7  C   UNL     1     -11.041   6.201  69.012  1.00  0.00    -0.367 C  
HETATM    8  N   UNL     1      -9.953   5.455  69.345  1.00  0.00    -0.190 NA 
HETATM    9  O   UNL     1     -11.411   6.395  67.864  1.00  0.00    -0.263 OA 
HETATM   10  C   UNL     1      -9.946   5.219  70.675  1.00  0.00    -0.218 C  
BRANCH   5  11
HETATM   11  N   UNL     1     -11.297   8.207  70.387  1.00  0.00    -0.397 N  
HETATM   12  H   UNL     1     -10.452   8.551  69.932  1.00  0.00     0.000 HD 
BRANCH  11  13
HETATM   13  C   UNL     1     -12.101   9.080  71.060  1.00  0.00    -0.251 C  
HETATM   14  O   UNL     1     -12.468   8.912  72.215  1.00  0.00    -0.372 OA 
BRANCH  13  15
HETATM   15  N   UNL     1     -12.384  10.201  70.326  1.00  0.00    -0.487 N  
HETATM   16  H   UNL     1     -12.563  10.124  69.325  1.00  0.00     0.000 HD 
BRANCH  15  17
HETATM   17  C   UNL     1     -12.426  11.483  70.965  1.00  0.00    -0.356 C  
BRANCH  17  18
HETATM   18  N   UNL     1     -11.752  12.496  70.197  1.00  0.00    -0.537 N  
HETATM   19  H   UNL     1     -10.987  12.244  69.571  1.00  0.00     0.000 HD 
BRANCH  18  20
HETATM   20  C   UNL     1     -12.147  13.803  70.313  1.00  0.00    -0.355 C  
HETATM   21  O   UNL     1     -12.215  14.403  71.378  1.00  0.00    -0.338 OA 
BRANCH  20  22
HETATM   22  N   UNL     1     -12.447  14.372  69.097  1.00  0.00    -0.545 N  
HETATM   23  H   UNL     1     -13.404  14.605  68.833  1.00  0.00     0.000 HD 
BRANCH  22  24
HETATM   24  C   UNL     1     -11.335  14.619  68.221  1.00  0.00    -0.297 C  
HETATM   25  N   UNL     1     -11.574  14.428  66.811  1.00  0.00    -0.371 N  
HETATM   26  O   UNL     1     -10.871  16.919  69.060  1.00  0.00    -0.314 OA 
HETATM   27  C   UNL     1     -10.890  15.361  66.058  1.00  0.00    -0.314 C  
HETATM   28  N   UNL     1     -10.438  16.335  66.888  1.00  0.00    -0.309 NA 
HETATM   29  O   UNL     1     -10.749  15.356  64.847  1.00  0.00    -0.420 OA 
HETATM   30  C   UNL     1     -10.873  16.095  68.158  1.00  0.00    -0.329 C  
BRANCH  25  31
HETATM   31  C   UNL     1     -12.186  13.260  66.263  1.00  0.00    -0.377 C  
HETATM   32  H   UNL     1     -12.406  11.414  66.797  1.00  0.00     0.000 HD 
HETATM   33  O   UNL     1     -12.000  12.192  67.162  1.00  0.00    -0.580 OA 
ENDBRANCH  25  31
ENDBRANCH  22  24
ENDBRANCH  20  22
ENDBRANCH  18  20
ENDBRANCH  17  18
ENDBRANCH  15  17
ENDBRANCH  13  15
ENDBRANCH  11  13
ENDBRANCH   5  11
ENDBRANCH   2   4
TORSDOF 10
ENDMDL
MODEL       85
REMARK 921   NORMALIZED FREE ENERGY PREDICTED BY IDOCK:   -5.76 KCAL/MOL
REMARK 922        TOTAL FREE ENERGY PREDICTED BY IDOCK:  -11.13 KCAL/MOL
REMARK 923 INTER-LIGAND FREE ENERGY PREDICTED BY IDOCK:   -8.82 KCAL/MOL
REMARK 924 INTRA-LIGAND FREE ENERGY PREDICTED BY IDOCK:   -2.31 KCAL/MOL
REMARK 927      BINDING AFFINITY PREDICTED BY RF-SCORE:    0.00 PKD
ROOT
HETATM    1  O   UNL     1     -13.452   7.396  72.251  1.00  0.00    -0.508 OA 
HETATM    2  C   UNL     1     -12.296   8.199  72.245  1.00  0.00    -0.323 C  
HETATM    3  H   UNL     1     -14.103   7.797  72.813  1.00  0.00     0.000 HD 
ENDROOT
BRANCH   2   4
HETATM    4  N   UNL     1     -11.313   7.594  71.397  1.00  0.00    -0.253 N  
HETATM    5  C   UNL     1     -11.290   7.883  69.977  1.00  0.00    -0.027 C  
HETATM    6  O   UNL     1     -11.042   5.700  72.718  1.00  0.00    -0.254 OA 
HETATM    7  C   UNL     1     -10.966   6.471  69.436  1.00  0.00    -0.337 C  
HETATM    8  N   UNL     1     -10.599   5.689  70.487  1.00  0.00    -0.278 NA 
HETATM    9  O   UNL     1     -10.955   6.101  68.272  1.00  0.00    -0.307 OA 
HETATM   10  C   UNL     1     -10.954   6.281  71.648  1.00  0.00    -0.261 C  
BRANCH   5  11
HETATM   11  N   UNL     1     -10.218   8.789  69.647  1.00  0.00    -0.204 N  
HETATM   12  H   UNL     1      -9.252   8.506  69.810  1.00  0.00     0.000 HD 
BRANCH  11  13
HETATM   13  C   UNL     1     -10.478  10.021  69.119  1.00  0.00    -0.219 C  
HETATM   14  O   UNL     1      -9.608  10.809  68.775  1.00  0.00    -0.175 OA 
BRANCH  13  15
HETATM   15  N   UNL     1     -11.819  10.240  68.944  1.00  0.00    -0.509 N  
HETATM   16  H   UNL     1     -12.308   9.810  68.159  1.00  0.00     0.000 HD 
BRANCH  15  17
HETATM   17  C   UNL     1     -12.533  11.075  69.863  1.00  0.00    -0.219 C  
BRANCH  17  18
HETATM   18  N   UNL     1     -11.712  12.137  70.384  1.00  0.00    -0.532 N  
HETATM   19  H   UNL     1     -10.974  11.934  71.058  1.00  0.00     0.000 HD 
BRANCH  18  20
HETATM   20  C   UNL     1     -11.930  13.423  69.965  1.00  0.00    -0.337 C  
HETATM   21  O   UNL     1     -12.823  14.139  70.400  1.00  0.00    -0.320 OA 
BRANCH  20  22
HETATM   22  N   UNL     1     -11.026  13.827  69.011  1.00  0.00    -0.280 N  
HETATM   23  H   UNL     1     -10.022  13.686  69.127  1.00  0.00     0.000 HD 
BRANCH  22  24
HETATM   24  C   UNL     1     -11.576  14.458  67.842  1.00  0.00    -0.345 C  
HETATM   25  N   UNL     1     -10.770  15.486  67.230  1.00  0.00    -0.304 N  
HETATM   26  O   UNL     1     -11.977  12.340  66.590  1.00  0.00    -0.598 OA 
HETATM   27  C   UNL     1     -10.884  15.456  65.855  1.00  0.00    -0.325 C  
HETATM   28  N   UNL     1     -11.490  14.295  65.500  1.00  0.00    -0.322 NA 
HETATM   29  O   UNL     1     -10.473  16.295  65.072  1.00  0.00    -0.621 OA 
HETATM   30  C   UNL     1     -11.711  13.533  66.609  1.00  0.00    -0.387 C  
BRANCH  25  31
HETATM   31  C   UNL     1     -10.181  16.567  67.954  1.00  0.00    -0.273 C  
HETATM   32  H   UNL     1     -10.588  17.560  69.562  1.00  0.00     0.000 HD 
HETATM   33  O   UNL     1     -10.980  16.841  69.080  1.00  0.00    -0.301 OA 
ENDBRANCH  25  31
ENDBRANCH  22  24
ENDBRANCH  20  22
ENDBRANCH  18  20
ENDBRANCH  17  18
ENDBRANCH  15  17
ENDBRANCH  13  15
ENDBRANCH  11  13
ENDBRANCH   5  11
ENDBRANCH   2   4
TORSDOF 10
ENDMDL
MODEL       86
REMARK 921   NORMALIZED FREE ENERGY PREDICTED BY IDOCK:   -5.73 KCAL/MOL
REMARK 922        TOTAL FREE ENERGY PREDICTED BY IDOCK:  -11.08 KCAL/MOL
REMARK 923 INTER-LIGAND FREE ENERGY PREDICTED BY IDOCK:   -8.53 KCAL/MOL
REMARK 924 INTRA-LIGAND FREE ENERGY PREDICTED BY IDOCK:   -2.55 KCAL/MOL
REMARK 927      BINDING AFFINITY PREDICTED BY RF-SCORE:    0.00 PKD
ROOT
HETATM    1  O   UNL     1     -12.684  11.902  71.120  1.00  0.00    -0.371 OA 
HETATM    2  C   UNL     1     -13.171  12.955  71.917  1.00  0.00    -0.423 C  
HETATM    3  H   UNL     1     -12.874  11.077  71.549  1.00  0.00     0.000 HD 
ENDROOT
BRANCH   2   4
HETATM    4  N   UNL     1     -12.886  14.200  71.270  1.00  0.00    -0.340 N  
HETATM    5  C   UNL     1     -11.869  14.277  70.241  1.00  0.00    -0.307 C  
HETATM    6  O   UNL     1     -13.540  15.519  73.069  1.00  0.00    -0.518 OA 
HETATM    7  C   UNL     1     -11.231  15.634  70.615  1.00  0.00    -0.359 C  
HETATM    8  N   UNL     1     -12.038  16.246  71.523  1.00  0.00    -0.362 NA 
HETATM    9  O   UNL     1     -10.223  16.141  70.146  1.00  0.00    -0.163 OA 
HETATM   10  C   UNL     1     -12.915  15.354  72.034  1.00  0.00    -0.401 C  
BRANCH   5  11
HETATM   11  N   UNL     1     -12.461  14.361  68.929  1.00  0.00    -0.553 N  
HETATM   12  H   UNL     1     -13.280  14.950  68.784  1.00  0.00     0.000 HD 
BRANCH  11  13
HETATM   13  C   UNL     1     -11.939  13.664  67.878  1.00  0.00    -0.347 C  
HETATM   14  O   UNL     1     -11.971  14.056  66.719  1.00  0.00    -0.402 OA 
BRANCH  13  15
HETATM   15  N   UNL     1     -11.305  12.517  68.276  1.00  0.00    -0.263 N  
HETATM   16  H   UNL     1     -10.509  12.568  68.912  1.00  0.00     0.000 HD 
BRANCH  15  17
HETATM   17  C   UNL     1     -11.761  11.245  67.799  1.00  0.00    -0.176 C  
BRANCH  17  18
HETATM   18  N   UNL     1     -11.314  10.160  68.632  1.00  0.00    -0.478 N  
HETATM   19  H   UNL     1     -11.853   9.295  68.683  1.00  0.00     0.000 HD 
BRANCH  18  20
HETATM   20  C   UNL     1     -10.159  10.298  69.356  1.00  0.00    -0.235 C  
HETATM   21  O   UNL     1      -9.079  10.595  68.864  1.00  0.00    -0.165 OA 
BRANCH  20  22
HETATM   22  N   UNL     1     -10.350  10.077  70.699  1.00  0.00    -0.389 N  
HETATM   23  H   UNL     1     -10.258  10.824  71.387  1.00  0.00     0.000 HD 
BRANCH  22  24
HETATM   24  C   UNL     1     -10.688   8.732  71.079  1.00  0.00    -0.229 C  
HETATM   25  N   UNL     1      -9.996   8.197  72.227  1.00  0.00    -0.236 N  
HETATM   26  O   UNL     1     -13.143   9.133  71.235  1.00  0.00    -0.311 OA 
HETATM   27  C   UNL     1     -10.826   7.390  72.978  1.00  0.00    -0.375 C  
HETATM   28  N   UNL     1     -12.103   7.580  72.561  1.00  0.00    -0.179 NA 
HETATM   29  O   UNL     1     -10.494   6.661  73.897  1.00  0.00    -0.331 OA 
HETATM   30  C   UNL     1     -12.134   8.548  71.600  1.00  0.00    -0.321 C  
BRANCH  25  31
HETATM   31  C   UNL     1      -8.579   8.252  72.393  1.00  0.00    -0.206 C  
HETATM   32  H   UNL     1      -7.346   9.079  73.632  1.00  0.00     0.000 HD 
HETATM   33  O   UNL     1      -8.289   9.042  73.521  1.00  0.00    -0.095 OA 
ENDBRANCH  25  31
ENDBRANCH  22  24
ENDBRANCH  20  22
ENDBRANCH  18  20
ENDBRANCH  17  18
ENDBRANCH  15  17
ENDBRANCH  13  15
ENDBRANCH  11  13
ENDBRANCH   5  11
ENDBRANCH   2   4
TORSDOF 10
ENDMDL
MODEL       87
REMARK 921   NORMALIZED FREE ENERGY PREDICTED BY IDOCK:   -5.73 KCAL/MOL
REMARK 922        TOTAL FREE ENERGY PREDICTED BY IDOCK:  -11.08 KCAL/MOL
REMARK 923 INTER-LIGAND FREE ENERGY PREDICTED BY IDOCK:   -9.29 KCAL/MOL
REMARK 924 INTRA-LIGAND FREE ENERGY PREDICTED BY IDOCK:   -1.79 KCAL/MOL
REMARK 927      BINDING AFFINITY PREDICTED BY RF-SCORE:    0.00 PKD
ROOT
HETATM    1  O   UNL     1     -13.491   9.767  72.249  1.00  0.00    -0.521 OA 
HETATM    2  C   UNL     1     -12.708   8.641  72.567  1.00  0.00    -0.294 C  
HETATM    3  H   UNL     1     -14.362   9.648  72.609  1.00  0.00     0.000 HD 
ENDROOT
BRANCH   2   4
HETATM    4  N   UNL     1     -11.394   8.820  72.025  1.00  0.00    -0.361 N  
HETATM    5  C   UNL     1     -11.215   9.130  70.621  1.00  0.00    -0.270 C  
HETATM    6  O   UNL     1     -10.345   7.442  73.576  1.00  0.00    -0.342 OA 
HETATM    7  C   UNL     1      -9.977   8.253  70.324  1.00  0.00    -0.186 C  
HETATM    8  N   UNL     1      -9.472   7.817  71.509  1.00  0.00    -0.143 NA 
HETATM    9  O   UNL     1      -9.464   8.027  69.238  1.00  0.00    -0.155 OA 
HETATM   10  C   UNL     1     -10.379   8.004  72.493  1.00  0.00    -0.306 C  
BRANCH   5  11
HETATM   11  N   UNL     1     -10.884  10.520  70.432  1.00  0.00    -0.447 N  
HETATM   12  H   UNL     1     -10.061  10.908  70.892  1.00  0.00     0.000 HD 
BRANCH  11  13
HETATM   13  C   UNL     1     -11.657  11.325  69.646  1.00  0.00    -0.330 C  
HETATM   14  O   UNL     1     -12.156  10.964  68.589  1.00  0.00    -0.527 OA 
BRANCH  13  15
HETATM   15  N   UNL     1     -11.878  12.552  70.213  1.00  0.00    -0.538 N  
HETATM   16  H   UNL     1     -11.991  12.634  71.223  1.00  0.00     0.000 HD 
BRANCH  15  17
HETATM   17  C   UNL     1     -11.949  13.720  69.386  1.00  0.00    -0.347 C  
BRANCH  17  18
HETATM   18  N   UNL     1     -10.884  13.767  68.419  1.00  0.00    -0.244 N  
HETATM   19  H   UNL     1      -9.923  13.573  68.703  1.00  0.00     0.000 HD 
BRANCH  18  20
HETATM   20  C   UNL     1     -11.171  14.075  67.115  1.00  0.00    -0.313 C  
HETATM   21  O   UNL     1     -12.082  13.562  66.479  1.00  0.00    -0.402 OA 
BRANCH  20  22
HETATM   22  N   UNL     1     -10.328  15.033  66.603  1.00  0.00    -0.272 N  
HETATM   23  H   UNL     1      -9.435  14.792  66.173  1.00  0.00     0.000 HD 
BRANCH  22  24
HETATM   24  C   UNL     1     -10.778  16.395  66.709  1.00  0.00    -0.180 C  
HETATM   25  N   UNL     1      -9.880  17.318  67.357  1.00  0.00    -0.265 N  
HETATM   26  O   UNL     1     -11.249  16.683  64.278  1.00  0.00    -1.098 OA 
HETATM   27  C   UNL     1      -9.927  18.562  66.761  1.00  0.00    -0.360 C  
HETATM   28  N   UNL     1     -10.586  18.447  65.581  1.00  0.00    -0.596 NA 
HETATM   29  O   UNL     1      -9.424  19.590  67.182  1.00  0.00    -0.311 OA 
HETATM   30  C   UNL     1     -10.910  17.141  65.359  1.00  0.00    -0.046 C  
BRANCH  25  31
HETATM   31  C   UNL     1      -9.261  17.066  68.620  1.00  0.00    -0.266 C  
HETATM   32  H   UNL     1      -7.949  15.826  69.312  1.00  0.00     0.000 HD 
HETATM   33  O   UNL     1      -8.361  15.994  68.473  1.00  0.00    -0.173 OA 
ENDBRANCH  25  31
ENDBRANCH  22  24
ENDBRANCH  20  22
ENDBRANCH  18  20
ENDBRANCH  17  18
ENDBRANCH  15  17
ENDBRANCH  13  15
ENDBRANCH  11  13
ENDBRANCH   5  11
ENDBRANCH   2   4
TORSDOF 10
ENDMDL
MODEL       88
REMARK 921   NORMALIZED FREE ENERGY PREDICTED BY IDOCK:   -5.72 KCAL/MOL
REMARK 922        TOTAL FREE ENERGY PREDICTED BY IDOCK:  -11.06 KCAL/MOL
REMARK 923 INTER-LIGAND FREE ENERGY PREDICTED BY IDOCK:   -8.64 KCAL/MOL
REMARK 924 INTRA-LIGAND FREE ENERGY PREDICTED BY IDOCK:   -2.42 KCAL/MOL
REMARK 927      BINDING AFFINITY PREDICTED BY RF-SCORE:    0.00 PKD
ROOT
HETATM    1  O   UNL     1     -12.133  12.864  65.826  1.00  0.00    -0.422 OA 
HETATM    2  C   UNL     1     -12.192  14.222  65.463  1.00  0.00    -0.402 C  
HETATM    3  H   UNL     1     -12.798  12.387  65.345  1.00  0.00     0.000 HD 
ENDROOT
BRANCH   2   4
HETATM    4  N   UNL     1     -11.189  14.942  66.189  1.00  0.00    -0.336 N  
HETATM    5  C   UNL     1     -11.188  14.943  67.638  1.00  0.00    -0.323 C  
HETATM    6  O   UNL     1     -10.823  16.519  64.521  1.00  0.00    -0.802 OA 
HETATM    7  C   UNL     1     -10.805  16.419  67.891  1.00  0.00    -0.328 C  
HETATM    8  N   UNL     1     -10.396  16.959  66.711  1.00  0.00    -0.308 NA 
HETATM    9  O   UNL     1     -10.785  17.014  68.958  1.00  0.00    -0.322 OA 
HETATM   10  C   UNL     1     -10.769  16.161  65.686  1.00  0.00    -0.310 C  
BRANCH   5  11
HETATM   11  N   UNL     1     -10.161  14.076  68.159  1.00  0.00    -0.238 N  
HETATM   12  H   UNL     1     -10.177  13.812  69.144  1.00  0.00     0.000 HD 
BRANCH  11  13
HETATM   13  C   UNL     1      -9.166  13.604  67.352  1.00  0.00    -0.222 C  
HETATM   14  O   UNL     1      -8.162  14.243  67.067  1.00  0.00    -0.180 OA 
BRANCH  13  15
HETATM   15  N   UNL     1      -9.379  12.307  66.966  1.00  0.00    -0.198 N  
HETATM   16  H   UNL     1      -9.733  12.105  66.031  1.00  0.00     0.000 HD 
BRANCH  15  17
HETATM   17  C   UNL     1      -9.105  11.235  67.876  1.00  0.00    -0.150 C  
BRANCH  17  18
HETATM   18  N   UNL     1     -10.281  10.458  68.171  1.00  0.00    -0.155 N  
HETATM   19  H   UNL     1     -10.353   9.492  67.851  1.00  0.00     0.000 HD 
BRANCH  18  20
HETATM   20  C   UNL     1     -11.302  11.028  68.885  1.00  0.00    -0.280 C  
HETATM   21  O   UNL     1     -12.242  11.623  68.375  1.00  0.00    -0.498 OA 
BRANCH  20  22
HETATM   22  N   UNL     1     -11.162  10.845  70.241  1.00  0.00    -0.460 N  
HETATM   23  H   UNL     1     -10.768  11.567  70.844  1.00  0.00     0.000 HD 
BRANCH  22  24
HETATM   24  C   UNL     1     -11.601   9.578  70.759  1.00  0.00    -0.308 C  
HETATM   25  N   UNL     1     -10.648   8.847  71.558  1.00  0.00    -0.301 N  
HETATM   26  O   UNL     1     -13.658  10.463  71.853  1.00  0.00    -0.297 OA 
HETATM   27  C   UNL     1     -11.271   8.185  72.597  1.00  0.00    -0.378 C  
HETATM   28  N   UNL     1     -12.538   8.656  72.707  1.00  0.00    -0.255 NA 
HETATM   29  O   UNL     1     -10.770   7.351  73.332  1.00  0.00    -0.379 OA 
HETATM   30  C   UNL     1     -12.735   9.664  71.809  1.00  0.00    -0.420 C  
BRANCH  25  31
HETATM   31  C   UNL     1      -9.300   8.601  71.155  1.00  0.00    -0.216 C  
HETATM   32  H   UNL     1      -8.413   7.927  69.574  1.00  0.00     0.000 HD 
HETATM   33  O   UNL     1      -9.310   8.092  69.843  1.00  0.00    -0.156 OA 
ENDBRANCH  25  31
ENDBRANCH  22  24
ENDBRANCH  20  22
ENDBRANCH  18  20
ENDBRANCH  17  18
ENDBRANCH  15  17
ENDBRANCH  13  15
ENDBRANCH  11  13
ENDBRANCH   5  11
ENDBRANCH   2   4
TORSDOF 10
ENDMDL
MODEL       89
REMARK 921   NORMALIZED FREE ENERGY PREDICTED BY IDOCK:   -5.71 KCAL/MOL
REMARK 922        TOTAL FREE ENERGY PREDICTED BY IDOCK:  -11.04 KCAL/MOL
REMARK 923 INTER-LIGAND FREE ENERGY PREDICTED BY IDOCK:   -9.39 KCAL/MOL
REMARK 924 INTRA-LIGAND FREE ENERGY PREDICTED BY IDOCK:   -1.65 KCAL/MOL
REMARK 927      BINDING AFFINITY PREDICTED BY RF-SCORE:    0.00 PKD
ROOT
HETATM    1  O   UNL     1      -9.858  16.567  66.267  1.00  0.00    -0.280 OA 
HETATM    2  C   UNL     1      -9.747  15.288  65.691  1.00  0.00    -0.325 C  
HETATM    3  H   UNL     1      -8.990  16.885  66.483  1.00  0.00     0.000 HD 
ENDROOT
BRANCH   2   4
HETATM    4  N   UNL     1     -11.057  14.808  65.366  1.00  0.00    -0.340 N  
HETATM    5  C   UNL     1     -11.349  13.389  65.402  1.00  0.00    -0.291 C  
HETATM    6  O   UNL     1     -11.581  16.584  63.960  1.00  0.00    -1.154 OA 
HETATM    7  C   UNL     1     -12.243  13.283  64.145  1.00  0.00    -0.401 C  
HETATM    8  N   UNL     1     -12.561  14.543  63.743  1.00  0.00    -0.750 NA 
HETATM    9  O   UNL     1     -12.674  12.268  63.617  1.00  0.00    -0.713 OA 
HETATM   10  C   UNL     1     -11.747  15.438  64.345  1.00  0.00    -0.258 C  
BRANCH   5  11
HETATM   11  N   UNL     1     -12.113  13.044  66.574  1.00  0.00    -0.385 N  
HETATM   12  H   UNL     1     -13.002  13.511  66.751  1.00  0.00     0.000 HD 
BRANCH  11  13
HETATM   13  C   UNL     1     -11.664  12.100  67.452  1.00  0.00    -0.304 C  
HETATM   14  O   UNL     1     -12.376  11.547  68.278  1.00  0.00    -0.468 OA 
BRANCH  13  15
HETATM   15  N   UNL     1     -10.346  11.786  67.249  1.00  0.00    -0.203 N  
HETATM   16  H   UNL     1     -10.015  11.551  66.314  1.00  0.00     0.000 HD 
BRANCH  15  17
HETATM   17  C   UNL     1      -9.432  11.786  68.353  1.00  0.00    -0.188 C  
BRANCH  17  18
HETATM   18  N   UNL     1      -9.862  10.913  69.414  1.00  0.00    -0.428 N  
HETATM   19  H   UNL     1     -10.368  11.289  70.217  1.00  0.00     0.000 HD 
BRANCH  18  20
HETATM   20  C   UNL     1      -9.585   9.574  69.337  1.00  0.00    -0.180 C  
HETATM   21  O   UNL     1      -8.468   9.099  69.493  1.00  0.00    -0.117 OA 
BRANCH  20  22
HETATM   22  N   UNL     1     -10.705   8.819  69.078  1.00  0.00    -0.386 N  
HETATM   23  H   UNL     1     -11.094   8.738  68.139  1.00  0.00     0.000 HD 
BRANCH  22  24
HETATM   24  C   UNL     1     -11.294   8.150  70.206  1.00  0.00    -0.132 C  
HETATM   25  N   UNL     1     -10.505   7.111  70.820  1.00  0.00    -0.211 N  
HETATM   26  O   UNL     1     -11.762  10.228  71.502  1.00  0.00    -0.311 OA 
HETATM   27  C   UNL     1     -10.672   7.100  72.190  1.00  0.00    -0.215 C  
HETATM   28  N   UNL     1     -11.301   8.245  72.554  1.00  0.00    -0.391 NA 
HETATM   29  O   UNL     1     -10.284   6.241  72.963  1.00  0.00    -0.181 OA 
HETATM   30  C   UNL     1     -11.485   9.038  71.460  1.00  0.00    -0.337 C  
BRANCH  25  31
HETATM   31  C   UNL     1      -9.879   6.056  70.088  1.00  0.00    -0.173 C  
HETATM   32  H   UNL     1     -10.268   5.039  68.490  1.00  0.00     0.000 HD 
HETATM   33  O   UNL     1     -10.684   5.741  68.977  1.00  0.00    -0.274 OA 
ENDBRANCH  25  31
ENDBRANCH  22  24
ENDBRANCH  20  22
ENDBRANCH  18  20
ENDBRANCH  17  18
ENDBRANCH  15  17
ENDBRANCH  13  15
ENDBRANCH  11  13
ENDBRANCH   5  11
ENDBRANCH   2   4
TORSDOF 10
ENDMDL
MODEL       90
REMARK 921   NORMALIZED FREE ENERGY PREDICTED BY IDOCK:   -5.70 KCAL/MOL
REMARK 922        TOTAL FREE ENERGY PREDICTED BY IDOCK:  -11.03 KCAL/MOL
REMARK 923 INTER-LIGAND FREE ENERGY PREDICTED BY IDOCK:   -8.95 KCAL/MOL
REMARK 924 INTRA-LIGAND FREE ENERGY PREDICTED BY IDOCK:   -2.08 KCAL/MOL
REMARK 927      BINDING AFFINITY PREDICTED BY RF-SCORE:    0.00 PKD
ROOT
HETATM    1  O   UNL     1     -11.439  14.263  68.247  1.00  0.00    -0.272 OA 
HETATM    2  C   UNL     1     -12.009  13.406  67.288  1.00  0.00    -0.347 C  
HETATM    3  H   UNL     1     -11.704  13.977  69.113  1.00  0.00     0.000 HD 
ENDROOT
BRANCH   2   4
HETATM    4  N   UNL     1     -11.609  13.837  65.982  1.00  0.00    -0.334 N  
HETATM    5  C   UNL     1     -11.031  15.152  65.788  1.00  0.00    -0.349 C  
HETATM    6  O   UNL     1     -13.140  12.504  64.849  1.00  0.00    -0.833 OA 
HETATM    7  C   UNL     1     -11.716  15.536  64.456  1.00  0.00    -0.253 C  
HETATM    8  N   UNL     1     -12.311  14.422  63.949  1.00  0.00    -0.762 NA 
HETATM    9  O   UNL     1     -11.688  16.615  63.885  1.00  0.00    -1.153 OA 
HETATM   10  C   UNL     1     -12.395  13.470  64.904  1.00  0.00    -0.407 C  
BRANCH   5  11
HETATM   11  N   UNL     1      -9.604  15.071  65.597  1.00  0.00    -0.448 N  
HETATM   12  H   UNL     1      -9.219  14.359  64.977  1.00  0.00     0.000 HD 
BRANCH  11  13
HETATM   13  C   UNL     1      -8.761  15.935  66.234  1.00  0.00    -0.337 C  
HETATM   14  O   UNL     1      -8.403  17.006  65.764  1.00  0.00    -0.500 OA 
BRANCH  13  15
HETATM   15  N   UNL     1      -8.428  15.506  67.492  1.00  0.00    -0.165 N  
HETATM   16  H   UNL     1      -8.836  15.957  68.310  1.00  0.00     0.000 HD 
BRANCH  15  17
HETATM   17  C   UNL     1      -7.505  14.422  67.656  1.00  0.00    -0.175 C  
BRANCH  17  18
HETATM   18  N   UNL     1      -7.964  13.460  68.623  1.00  0.00    -0.280 N  
HETATM   19  H   UNL     1      -7.821  13.623  69.620  1.00  0.00     0.000 HD 
BRANCH  18  20
HETATM   20  C   UNL     1      -8.594  12.321  68.193  1.00  0.00    -0.181 C  
HETATM   21  O   UNL     1      -8.867  12.094  67.022  1.00  0.00    -0.189 OA 
BRANCH  20  22
HETATM   22  N   UNL     1      -8.875  11.455  69.224  1.00  0.00    -0.355 N  
HETATM   23  H   UNL     1      -8.822  11.743  70.200  1.00  0.00     0.000 HD 
BRANCH  22  24
HETATM   24  C   UNL     1      -9.247  10.119  68.845  1.00  0.00    -0.172 C  
HETATM   25  N   UNL     1      -8.686   9.049  69.633  1.00  0.00    -0.137 N  
HETATM   26  O   UNL     1     -11.706  10.517  68.937  1.00  0.00    -0.240 OA 
HETATM   27  C   UNL     1      -9.591   8.020  69.794  1.00  0.00    -0.171 C  
HETATM   28  N   UNL     1     -10.814   8.459  69.404  1.00  0.00    -0.145 NA 
HETATM   29  O   UNL     1      -9.361   6.914  70.253  1.00  0.00    -0.162 OA 
HETATM   30  C   UNL     1     -10.742   9.776  69.058  1.00  0.00    -0.217 C  
BRANCH  25  31
HETATM   31  C   UNL     1      -7.296   8.940  69.943  1.00  0.00    -0.054 C  
HETATM   32  H   UNL     1      -6.056   9.817  71.140  1.00  0.00     0.000 HD 
HETATM   33  O   UNL     1      -6.980   9.889  70.933  1.00  0.00    -0.310 OA 
ENDBRANCH  25  31
ENDBRANCH  22  24
ENDBRANCH  20  22
ENDBRANCH  18  20
ENDBRANCH  17  18
ENDBRANCH  15  17
ENDBRANCH  13  15
ENDBRANCH  11  13
ENDBRANCH   5  11
ENDBRANCH   2   4
TORSDOF 10
ENDMDL
MODEL       91
REMARK 921   NORMALIZED FREE ENERGY PREDICTED BY IDOCK:   -5.69 KCAL/MOL
REMARK 922        TOTAL FREE ENERGY PREDICTED BY IDOCK:  -11.02 KCAL/MOL
REMARK 923 INTER-LIGAND FREE ENERGY PREDICTED BY IDOCK:   -9.24 KCAL/MOL
REMARK 924 INTRA-LIGAND FREE ENERGY PREDICTED BY IDOCK:   -1.78 KCAL/MOL
REMARK 927      BINDING AFFINITY PREDICTED BY RF-SCORE:    0.00 PKD
ROOT
HETATM    1  O   UNL     1     -11.632  11.147  63.169  1.00  0.00    -0.776 OA 
HETATM    2  C   UNL     1     -10.477  11.877  63.502  1.00  0.00    -0.459 C  
HETATM    3  H   UNL     1     -11.383  10.399  62.640  1.00  0.00     0.000 HD 
ENDROOT
BRANCH   2   4
HETATM    4  N   UNL     1     -10.853  13.006  64.300  1.00  0.00    -0.385 N  
HETATM    5  C   UNL     1     -10.634  12.998  65.732  1.00  0.00    -0.277 C  
HETATM    6  O   UNL     1     -12.553  13.704  62.877  1.00  0.00    -0.621 OA 
HETATM    7  C   UNL     1     -11.941  13.682  66.193  1.00  0.00    -0.416 C  
HETATM    8  N   UNL     1     -12.556  14.202  65.096  1.00  0.00    -0.602 NA 
HETATM    9  O   UNL     1     -12.351  13.821  67.336  1.00  0.00    -0.312 OA 
HETATM   10  C   UNL     1     -12.019  13.676  63.974  1.00  0.00    -0.431 C  
BRANCH   5  11
HETATM   11  N   UNL     1      -9.503  13.818  66.091  1.00  0.00    -0.471 N  
HETATM   12  H   UNL     1      -9.293  14.652  65.545  1.00  0.00     0.000 HD 
BRANCH  11  13
HETATM   13  C   UNL     1      -8.709  13.491  67.152  1.00  0.00    -0.215 C  
HETATM   14  O   UNL     1      -8.439  14.263  68.062  1.00  0.00    -0.147 OA 
BRANCH  13  15
HETATM   15  N   UNL     1      -8.315  12.179  67.125  1.00  0.00    -0.178 N  
HETATM   16  H   UNL     1      -8.451  11.623  66.281  1.00  0.00     0.000 HD 
BRANCH  15  17
HETATM   17  C   UNL     1      -7.714  11.588  68.284  1.00  0.00    -0.123 C  
BRANCH  17  18
HETATM   18  N   UNL     1      -8.695  11.104  69.218  1.00  0.00    -0.380 N  
HETATM   19  H   UNL     1      -9.384  11.742  69.619  1.00  0.00     0.000 HD 
BRANCH  18  20
HETATM   20  C   UNL     1      -8.698   9.779  69.566  1.00  0.00    -0.185 C  
HETATM   21  O   UNL     1      -7.683   9.123  69.757  1.00  0.00    -0.070 OA 
BRANCH  20  22
HETATM   22  N   UNL     1      -9.970   9.270  69.690  1.00  0.00    -0.182 N  
HETATM   23  H   UNL     1     -10.453   8.831  68.907  1.00  0.00     0.000 HD 
BRANCH  22  24
HETATM   24  C   UNL     1     -10.578   9.392  70.987  1.00  0.00    -0.330 C  
HETATM   25  N   UNL     1     -11.907   9.953  71.021  1.00  0.00    -0.345 N  
HETATM   26  O   UNL     1     -10.265   7.004  71.627  1.00  0.00    -0.194 OA 
HETATM   27  C   UNL     1     -12.680   9.344  71.989  1.00  0.00    -0.403 C  
HETATM   28  N   UNL     1     -12.041   8.223  72.407  1.00  0.00    -0.377 NA 
HETATM   29  O   UNL     1     -13.776   9.709  72.379  1.00  0.00    -0.414 OA 
HETATM   30  C   UNL     1     -10.899   8.047  71.683  1.00  0.00    -0.237 C  
BRANCH  25  31
HETATM   31  C   UNL     1     -12.272  11.165  70.359  1.00  0.00    -0.369 C  
HETATM   32  H   UNL     1     -12.167  11.862  68.559  1.00  0.00     0.000 HD 
HETATM   33  O   UNL     1     -11.924  11.056  69.000  1.00  0.00    -0.337 OA 
ENDBRANCH  25  31
ENDBRANCH  22  24
ENDBRANCH  20  22
ENDBRANCH  18  20
ENDBRANCH  17  18
ENDBRANCH  15  17
ENDBRANCH  13  15
ENDBRANCH  11  13
ENDBRANCH   5  11
ENDBRANCH   2   4
TORSDOF 10
ENDMDL
MODEL       92
REMARK 921   NORMALIZED FREE ENERGY PREDICTED BY IDOCK:   -5.66 KCAL/MOL
REMARK 922        TOTAL FREE ENERGY PREDICTED BY IDOCK:  -10.96 KCAL/MOL
REMARK 923 INTER-LIGAND FREE ENERGY PREDICTED BY IDOCK:   -9.00 KCAL/MOL
REMARK 924 INTRA-LIGAND FREE ENERGY PREDICTED BY IDOCK:   -1.97 KCAL/MOL
REMARK 927      BINDING AFFINITY PREDICTED BY RF-SCORE:    0.00 PKD
ROOT
HETATM    1  O   UNL     1     -12.526  14.098  67.593  1.00  0.00    -0.540 OA 
HETATM    2  C   UNL     1     -12.574  13.745  66.232  1.00  0.00    -0.321 C  
HETATM    3  H   UNL     1     -13.207  13.628  68.058  1.00  0.00     0.000 HD 
ENDROOT
BRANCH   2   4
HETATM    4  N   UNL     1     -11.547  14.455  65.529  1.00  0.00    -0.341 N  
HETATM    5  C   UNL     1     -10.466  15.089  66.255  1.00  0.00    -0.304 C  
HETATM    6  O   UNL     1     -12.889  15.010  63.714  1.00  0.00    -0.651 OA 
HETATM    7  C   UNL     1     -10.340  16.393  65.435  1.00  0.00    -0.262 C  
HETATM    8  N   UNL     1     -11.074  16.251  64.298  1.00  0.00    -0.750 NA 
HETATM    9  O   UNL     1      -9.654  17.372  65.687  1.00  0.00    -0.519 OA 
HETATM   10  C   UNL     1     -11.910  15.196  64.419  1.00  0.00    -0.305 C  
BRANCH   5  11
HETATM   11  N   UNL     1      -9.247  14.326  66.147  1.00  0.00    -0.510 N  
HETATM   12  H   UNL     1      -8.534  14.610  65.476  1.00  0.00     0.000 HD 
BRANCH  11  13
HETATM   13  C   UNL     1      -9.035  13.228  66.930  1.00  0.00    -0.207 C  
HETATM   14  O   UNL     1      -9.106  13.241  68.151  1.00  0.00    -0.198 OA 
BRANCH  13  15
HETATM   15  N   UNL     1      -8.815  12.095  66.191  1.00  0.00    -0.402 N  
HETATM   16  H   UNL     1      -7.863  11.821  65.949  1.00  0.00     0.000 HD 
BRANCH  15  17
HETATM   17  C   UNL     1      -9.923  11.297  65.759  1.00  0.00    -0.237 C  
BRANCH  17  18
HETATM   18  N   UNL     1      -9.676   9.888  65.927  1.00  0.00    -0.242 N  
HETATM   19  H   UNL     1      -9.680   9.265  65.119  1.00  0.00     0.000 HD 
BRANCH  18  20
HETATM   20  C   UNL     1      -9.437   9.392  67.181  1.00  0.00    -0.145 C  
HETATM   21  O   UNL     1      -8.334   9.384  67.711  1.00  0.00    -0.114 OA 
BRANCH  20  22
HETATM   22  N   UNL     1     -10.576   8.913  67.784  1.00  0.00    -0.391 N  
HETATM   23  H   UNL     1     -11.390   8.621  67.244  1.00  0.00     0.000 HD 
BRANCH  22  24
HETATM   24  C   UNL     1     -10.554   8.850  69.220  1.00  0.00    -0.207 C  
HETATM   25  N   UNL     1     -11.401   9.787  69.916  1.00  0.00    -0.223 N  
HETATM   26  O   UNL     1     -11.082   6.418  69.364  1.00  0.00    -0.323 OA 
HETATM   27  C   UNL     1     -11.949   9.220  71.049  1.00  0.00    -0.300 C  
HETATM   28  N   UNL     1     -11.746   7.879  70.998  1.00  0.00    -0.284 NA 
HETATM   29  O   UNL     1     -12.557   9.800  71.932  1.00  0.00    -0.385 OA 
HETATM   30  C   UNL     1     -11.141   7.549  69.822  1.00  0.00    -0.129 C  
BRANCH  25  31
HETATM   31  C   UNL     1     -11.428  11.188  69.638  1.00  0.00    -0.310 C  
HETATM   32  H   UNL     1     -12.486  12.377  68.540  1.00  0.00     0.000 HD 
HETATM   33  O   UNL     1     -12.468  11.446  68.726  1.00  0.00    -0.396 OA 
ENDBRANCH  25  31
ENDBRANCH  22  24
ENDBRANCH  20  22
ENDBRANCH  18  20
ENDBRANCH  17  18
ENDBRANCH  15  17
ENDBRANCH  13  15
ENDBRANCH  11  13
ENDBRANCH   5  11
ENDBRANCH   2   4
TORSDOF 10
ENDMDL
MODEL       93
REMARK 921   NORMALIZED FREE ENERGY PREDICTED BY IDOCK:   -5.65 KCAL/MOL
REMARK 922        TOTAL FREE ENERGY PREDICTED BY IDOCK:  -10.95 KCAL/MOL
REMARK 923 INTER-LIGAND FREE ENERGY PREDICTED BY IDOCK:   -9.05 KCAL/MOL
REMARK 924 INTRA-LIGAND FREE ENERGY PREDICTED BY IDOCK:   -1.90 KCAL/MOL
REMARK 927      BINDING AFFINITY PREDICTED BY RF-SCORE:    0.00 PKD
ROOT
HETATM    1  O   UNL     1      -9.521  16.377  66.130  1.00  0.00    -0.295 OA 
HETATM    2  C   UNL     1      -9.599  15.113  65.516  1.00  0.00    -0.188 C  
HETATM    3  H   UNL     1      -8.608  16.634  66.193  1.00  0.00     0.000 HD 
ENDROOT
BRANCH   2   4
HETATM    4  N   UNL     1     -10.975  14.726  65.420  1.00  0.00    -0.338 N  
HETATM    5  C   UNL     1     -11.347  13.326  65.448  1.00  0.00    -0.295 C  
HETATM    6  O   UNL     1     -11.631  16.603  64.216  1.00  0.00    -0.989 OA 
HETATM    7  C   UNL     1     -12.461  13.338  64.378  1.00  0.00    -0.290 C  
HETATM    8  N   UNL     1     -12.766  14.635  64.098  1.00  0.00    -0.718 NA 
HETATM    9  O   UNL     1     -13.047  12.380  63.896  1.00  0.00    -0.763 OA 
HETATM   10  C   UNL     1     -11.798  15.448  64.575  1.00  0.00    -0.256 C  
BRANCH   5  11
HETATM   11  N   UNL     1     -11.903  12.960  66.727  1.00  0.00    -0.387 N  
HETATM   12  H   UNL     1     -12.623  13.546  67.149  1.00  0.00     0.000 HD 
BRANCH  11  13
HETATM   13  C   UNL     1     -11.480  11.839  67.382  1.00  0.00    -0.305 C  
HETATM   14  O   UNL     1     -12.219  11.113  68.032  1.00  0.00    -0.584 OA 
BRANCH  13  15
HETATM   15  N   UNL     1     -10.153  11.577  67.161  1.00  0.00    -0.195 N  
HETATM   16  H   UNL     1      -9.857  11.150  66.284  1.00  0.00     0.000 HD 
BRANCH  15  17
HETATM   17  C   UNL     1      -9.184  11.902  68.165  1.00  0.00    -0.187 C  
BRANCH  17  18
HETATM   18  N   UNL     1      -9.014  10.840  69.121  1.00  0.00    -0.328 N  
HETATM   19  H   UNL     1      -8.698  11.046  70.069  1.00  0.00     0.000 HD 
BRANCH  18  20
HETATM   20  C   UNL     1      -9.282   9.549  68.749  1.00  0.00    -0.140 C  
HETATM   21  O   UNL     1      -8.667   8.950  67.876  1.00  0.00    -0.128 OA 
BRANCH  20  22
HETATM   22  N   UNL     1     -10.312   8.995  69.473  1.00  0.00    -0.204 N  
HETATM   23  H   UNL     1     -11.205   9.472  69.590  1.00  0.00     0.000 HD 
BRANCH  22  24
HETATM   24  C   UNL     1     -10.056   7.705  70.053  1.00  0.00    -0.204 C  
HETATM   25  N   UNL     1     -10.460   7.529  71.427  1.00  0.00    -0.209 N  
HETATM   26  O   UNL     1     -11.230   6.404  68.280  1.00  0.00    -0.309 OA 
HETATM   27  C   UNL     1     -10.939   6.253  71.647  1.00  0.00    -0.261 C  
HETATM   28  N   UNL     1     -11.144   5.659  70.445  1.00  0.00    -0.213 NA 
HETATM   29  O   UNL     1     -11.188   5.747  72.727  1.00  0.00    -0.271 OA 
HETATM   30  C   UNL     1     -10.877   6.544  69.442  1.00  0.00    -0.308 C  
BRANCH  25  31
HETATM   31  C   UNL     1     -10.129   8.444  72.473  1.00  0.00    -0.292 C  
HETATM   32  H   UNL     1      -8.610   9.546  72.940  1.00  0.00     0.000 HD 
HETATM   33  O   UNL     1      -8.831   8.937  72.244  1.00  0.00    -0.397 OA 
ENDBRANCH  25  31
ENDBRANCH  22  24
ENDBRANCH  20  22
ENDBRANCH  18  20
ENDBRANCH  17  18
ENDBRANCH  15  17
ENDBRANCH  13  15
ENDBRANCH  11  13
ENDBRANCH   5  11
ENDBRANCH   2   4
TORSDOF 10
ENDMDL
MODEL       94
REMARK 921   NORMALIZED FREE ENERGY PREDICTED BY IDOCK:   -5.64 KCAL/MOL
REMARK 922        TOTAL FREE ENERGY PREDICTED BY IDOCK:  -10.94 KCAL/MOL
REMARK 923 INTER-LIGAND FREE ENERGY PREDICTED BY IDOCK:   -9.43 KCAL/MOL
REMARK 924 INTRA-LIGAND FREE ENERGY PREDICTED BY IDOCK:   -1.51 KCAL/MOL
REMARK 927      BINDING AFFINITY PREDICTED BY RF-SCORE:    0.00 PKD
ROOT
HETATM    1  O   UNL     1      -9.912  17.250  65.656  1.00  0.00    -0.553 OA 
HETATM    2  C   UNL     1      -9.904  15.856  65.851  1.00  0.00    -0.351 C  
HETATM    3  H   UNL     1      -9.028  17.581  65.764  1.00  0.00     0.000 HD 
ENDROOT
BRANCH   2   4
HETATM    4  N   UNL     1     -11.237  15.356  65.689  1.00  0.00    -0.261 N  
HETATM    5  C   UNL     1     -11.602  14.056  66.215  1.00  0.00    -0.369 C  
HETATM    6  O   UNL     1     -11.666  16.546  63.739  1.00  0.00    -1.086 OA 
HETATM    7  C   UNL     1     -12.498  13.557  65.059  1.00  0.00    -0.417 C  
HETATM    8  N   UNL     1     -12.751  14.609  64.234  1.00  0.00    -0.678 NA 
HETATM    9  O   UNL     1     -12.981  12.444  64.913  1.00  0.00    -0.762 OA 
HETATM   10  C   UNL     1     -11.892  15.618  64.499  1.00  0.00    -0.172 C  
BRANCH   5  11
HETATM   11  N   UNL     1     -12.385  14.183  67.419  1.00  0.00    -0.562 N  
HETATM   12  H   UNL     1     -13.358  14.482  67.357  1.00  0.00     0.000 HD 
BRANCH  11  13
HETATM   13  C   UNL     1     -11.842  13.908  68.641  1.00  0.00    -0.372 C  
HETATM   14  O   UNL     1     -11.205  14.718  69.299  1.00  0.00    -0.256 OA 
BRANCH  13  15
HETATM   15  N   UNL     1     -12.161  12.650  69.082  1.00  0.00    -0.209 N  
HETATM   16  H   UNL     1     -12.754  12.532  69.902  1.00  0.00     0.000 HD 
BRANCH  15  17
HETATM   17  C   UNL     1     -11.658  11.501  68.389  1.00  0.00    -0.308 C  
BRANCH  17  18
HETATM   18  N   UNL     1     -12.027  10.270  69.038  1.00  0.00    -0.502 N  
HETATM   19  H   UNL     1     -12.869   9.770  68.752  1.00  0.00     0.000 HD 
BRANCH  18  20
HETATM   20  C   UNL     1     -11.238   9.776  70.043  1.00  0.00    -0.251 C  
HETATM   21  O   UNL     1     -11.311  10.142  71.209  1.00  0.00    -0.325 OA 
BRANCH  20  22
HETATM   22  N   UNL     1     -10.363   8.812  69.600  1.00  0.00    -0.208 N  
HETATM   23  H   UNL     1      -9.364   8.993  69.509  1.00  0.00     0.000 HD 
BRANCH  22  24
HETATM   24  C   UNL     1     -10.938   7.536  69.273  1.00  0.00    -0.038 C  
HETATM   25  N   UNL     1     -10.307   6.803  68.203  1.00  0.00    -0.174 N  
HETATM   26  O   UNL     1     -10.825   6.618  71.588  1.00  0.00    -0.226 OA 
HETATM   27  C   UNL     1     -10.311   5.446  68.456  1.00  0.00    -0.149 C  
HETATM   28  N   UNL     1     -10.650   5.254  69.756  1.00  0.00    -0.281 NA 
HETATM   29  O   UNL     1     -10.015   4.560  67.674  1.00  0.00    -0.152 OA 
HETATM   30  C   UNL     1     -10.799   6.459  70.377  1.00  0.00    -0.286 C  
BRANCH  25  31
HETATM   31  C   UNL     1      -9.996   7.372  66.930  1.00  0.00    -0.236 C  
HETATM   32  H   UNL     1     -10.546   8.926  65.920  1.00  0.00     0.000 HD 
HETATM   33  O   UNL     1     -10.753   8.547  66.766  1.00  0.00    -0.238 OA 
ENDBRANCH  25  31
ENDBRANCH  22  24
ENDBRANCH  20  22
ENDBRANCH  18  20
ENDBRANCH  17  18
ENDBRANCH  15  17
ENDBRANCH  13  15
ENDBRANCH  11  13
ENDBRANCH   5  11
ENDBRANCH   2   4
TORSDOF 10
ENDMDL
MODEL       95
REMARK 921   NORMALIZED FREE ENERGY PREDICTED BY IDOCK:   -5.64 KCAL/MOL
REMARK 922        TOTAL FREE ENERGY PREDICTED BY IDOCK:  -10.93 KCAL/MOL
REMARK 923 INTER-LIGAND FREE ENERGY PREDICTED BY IDOCK:   -9.06 KCAL/MOL
REMARK 924 INTRA-LIGAND FREE ENERGY PREDICTED BY IDOCK:   -1.88 KCAL/MOL
REMARK 927      BINDING AFFINITY PREDICTED BY RF-SCORE:    0.00 PKD
ROOT
HETATM    1  O   UNL     1     -12.942  10.545  70.061  1.00  0.00    -0.492 OA 
HETATM    2  C   UNL     1     -11.900  11.487  70.151  1.00  0.00    -0.356 C  
HETATM    3  H   UNL     1     -12.567   9.679  69.959  1.00  0.00     0.000 HD 
ENDROOT
BRANCH   2   4
HETATM    4  N   UNL     1     -12.465  12.794  70.305  1.00  0.00    -0.168 N  
HETATM    5  C   UNL     1     -11.781  13.957  69.777  1.00  0.00    -0.309 C  
HETATM    6  O   UNL     1     -13.629  12.285  72.251  1.00  0.00    -0.472 OA 
HETATM    7  C   UNL     1     -12.049  14.953  70.928  1.00  0.00    -0.317 C  
HETATM    8  N   UNL     1     -12.985  14.408  71.751  1.00  0.00    -0.328 NA 
HETATM    9  O   UNL     1     -11.582  16.073  71.072  1.00  0.00    -0.390 OA 
HETATM   10  C   UNL     1     -13.114  13.089  71.491  1.00  0.00    -0.310 C  
BRANCH   5  11
HETATM   11  N   UNL     1     -12.409  14.428  68.568  1.00  0.00    -0.594 N  
HETATM   12  H   UNL     1     -13.421  14.350  68.464  1.00  0.00     0.000 HD 
BRANCH  11  13
HETATM   13  C   UNL     1     -11.670  14.976  67.561  1.00  0.00    -0.253 C  
HETATM   14  O   UNL     1     -10.863  15.881  67.725  1.00  0.00    -0.311 OA 
BRANCH  13  15
HETATM   15  N   UNL     1     -11.873  14.346  66.362  1.00  0.00    -0.395 N  
HETATM   16  H   UNL     1     -12.590  13.625  66.279  1.00  0.00     0.000 HD 
BRANCH  15  17
HETATM   17  C   UNL     1     -11.077  14.699  65.224  1.00  0.00    -0.360 C  
BRANCH  17  18
HETATM   18  N   UNL     1     -10.743  13.554  64.418  1.00  0.00    -0.499 N  
HETATM   19  H   UNL     1      -9.777  13.388  64.133  1.00  0.00     0.000 HD 
BRANCH  18  20
HETATM   20  C   UNL     1     -11.733  12.688  64.035  1.00  0.00    -0.424 C  
HETATM   21  O   UNL     1     -12.862  13.041  63.718  1.00  0.00    -0.667 OA 
BRANCH  20  22
HETATM   22  N   UNL     1     -11.316  11.378  64.035  1.00  0.00    -0.408 N  
HETATM   23  H   UNL     1     -11.952  10.610  63.823  1.00  0.00     0.000 HD 
BRANCH  22  24
HETATM   24  C   UNL     1      -9.931  11.153  64.350  1.00  0.00    -0.301 C  
HETATM   25  N   UNL     1      -9.648  10.644  65.669  1.00  0.00    -0.204 N  
HETATM   26  O   UNL     1      -9.465   9.705  62.376  1.00  0.00    -0.216 OA 
HETATM   27  C   UNL     1      -8.594   9.752  65.644  1.00  0.00    -0.141 C  
HETATM   28  N   UNL     1      -8.343   9.421  64.353  1.00  0.00    -0.156 NA 
HETATM   29  O   UNL     1      -8.009   9.291  66.609  1.00  0.00    -0.106 OA 
HETATM   30  C   UNL     1      -9.256  10.022  63.537  1.00  0.00    -0.277 C  
BRANCH  25  31
HETATM   31  C   UNL     1     -10.182  11.208  66.867  1.00  0.00    -0.222 C  
HETATM   32  H   UNL     1     -11.942  11.501  67.613  1.00  0.00     0.000 HD 
HETATM   33  O   UNL     1     -11.586  11.125  66.816  1.00  0.00    -0.381 OA 
ENDBRANCH  25  31
ENDBRANCH  22  24
ENDBRANCH  20  22
ENDBRANCH  18  20
ENDBRANCH  17  18
ENDBRANCH  15  17
ENDBRANCH  13  15
ENDBRANCH  11  13
ENDBRANCH   5  11
ENDBRANCH   2   4
TORSDOF 10
ENDMDL
MODEL       96
REMARK 921   NORMALIZED FREE ENERGY PREDICTED BY IDOCK:   -5.62 KCAL/MOL
REMARK 922        TOTAL FREE ENERGY PREDICTED BY IDOCK:  -10.90 KCAL/MOL
REMARK 923 INTER-LIGAND FREE ENERGY PREDICTED BY IDOCK:   -9.07 KCAL/MOL
REMARK 924 INTRA-LIGAND FREE ENERGY PREDICTED BY IDOCK:   -1.84 KCAL/MOL
REMARK 927      BINDING AFFINITY PREDICTED BY RF-SCORE:    0.00 PKD
ROOT
HETATM    1  O   UNL     1     -12.089  12.598  70.302  1.00  0.00    -0.349 OA 
HETATM    2  C   UNL     1     -12.437  11.384  70.923  1.00  0.00    -0.379 C  
HETATM    3  H   UNL     1     -12.813  13.206  70.387  1.00  0.00     0.000 HD 
ENDROOT
BRANCH   2   4
HETATM    4  N   UNL     1     -11.345  10.466  70.794  1.00  0.00    -0.331 N  
HETATM    5  C   UNL     1     -10.665  10.307  69.524  1.00  0.00    -0.249 C  
HETATM    6  O   UNL     1     -12.070   9.047  72.487  1.00  0.00    -0.284 OA 
HETATM    7  C   UNL     1     -10.458   8.775  69.538  1.00  0.00    -0.220 C  
HETATM    8  N   UNL     1     -10.745   8.319  70.787  1.00  0.00    -0.214 NA 
HETATM    9  O   UNL     1     -10.038   8.069  68.633  1.00  0.00    -0.188 OA 
HETATM   10  C   UNL     1     -11.417   9.265  71.479  1.00  0.00    -0.384 C  
BRANCH   5  11
HETATM   11  N   UNL     1      -9.386  10.972  69.531  1.00  0.00    -0.364 N  
HETATM   12  H   UNL     1      -8.838  11.000  70.390  1.00  0.00     0.000 HD 
BRANCH  11  13
HETATM   13  C   UNL     1      -8.898  11.565  68.402  1.00  0.00    -0.163 C  
HETATM   14  O   UNL     1      -8.185  12.559  68.412  1.00  0.00    -0.161 OA 
BRANCH  13  15
HETATM   15  N   UNL     1      -9.229  10.876  67.266  1.00  0.00    -0.151 N  
HETATM   16  H   UNL     1      -8.935   9.906  67.153  1.00  0.00     0.000 HD 
BRANCH  15  17
HETATM   17  C   UNL     1      -9.990  11.519  66.236  1.00  0.00    -0.220 C  
BRANCH  17  18
HETATM   18  N   UNL     1     -10.466  12.815  66.640  1.00  0.00    -0.255 N  
HETATM   19  H   UNL     1      -9.840  13.470  67.111  1.00  0.00     0.000 HD 
BRANCH  18  20
HETATM   20  C   UNL     1     -11.767  13.164  66.388  1.00  0.00    -0.379 C  
HETATM   21  O   UNL     1     -12.530  12.497  65.703  1.00  0.00    -0.648 OA 
BRANCH  20  22
HETATM   22  N   UNL     1     -12.124  14.341  67.002  1.00  0.00    -0.521 N  
HETATM   23  H   UNL     1     -13.100  14.621  67.104  1.00  0.00     0.000 HD 
BRANCH  22  24
HETATM   24  C   UNL     1     -11.045  15.155  67.490  1.00  0.00    -0.319 C  
HETATM   25  N   UNL     1     -10.642  16.257  66.651  1.00  0.00    -0.287 N  
HETATM   26  O   UNL     1     -12.092  15.646  69.698  1.00  0.00    -0.364 OA 
HETATM   27  C   UNL     1     -10.282  17.355  67.407  1.00  0.00    -0.326 C  
HETATM   28  N   UNL     1     -10.690  17.148  68.685  1.00  0.00    -0.335 NA 
HETATM   29  O   UNL     1      -9.736  18.367  67.005  1.00  0.00    -0.290 OA 
HETATM   30  C   UNL     1     -11.372  15.970  68.766  1.00  0.00    -0.380 C  
BRANCH  25  31
HETATM   31  C   UNL     1     -10.367  16.130  65.255  1.00  0.00    -0.252 C  
HETATM   32  H   UNL     1     -11.082  16.863  63.616  1.00  0.00     0.000 HD 
HETATM   33  O   UNL     1     -11.264  16.948  64.544  1.00  0.00    -1.057 OA 
ENDBRANCH  25  31
ENDBRANCH  22  24
ENDBRANCH  20  22
ENDBRANCH  18  20
ENDBRANCH  17  18
ENDBRANCH  15  17
ENDBRANCH  13  15
ENDBRANCH  11  13
ENDBRANCH   5  11
ENDBRANCH   2   4
TORSDOF 10
ENDMDL
MODEL       97
REMARK 921   NORMALIZED FREE ENERGY PREDICTED BY IDOCK:   -5.62 KCAL/MOL
REMARK 922        TOTAL FREE ENERGY PREDICTED BY IDOCK:  -10.90 KCAL/MOL
REMARK 923 INTER-LIGAND FREE ENERGY PREDICTED BY IDOCK:   -9.16 KCAL/MOL
REMARK 924 INTRA-LIGAND FREE ENERGY PREDICTED BY IDOCK:   -1.75 KCAL/MOL
REMARK 927      BINDING AFFINITY PREDICTED BY RF-SCORE:    0.00 PKD
ROOT
HETATM    1  O   UNL     1     -12.462  12.134  71.019  1.00  0.00    -0.370 OA 
HETATM    2  C   UNL     1     -12.902  10.806  71.168  1.00  0.00    -0.414 C  
HETATM    3  H   UNL     1     -13.212  12.715  71.070  1.00  0.00     0.000 HD 
ENDROOT
BRANCH   2   4
HETATM    4  N   UNL     1     -11.772   9.929  71.091  1.00  0.00    -0.368 N  
HETATM    5  C   UNL     1     -11.077   9.736  69.835  1.00  0.00    -0.254 C  
HETATM    6  O   UNL     1     -12.451   8.567  72.848  1.00  0.00    -0.276 OA 
HETATM    7  C   UNL     1     -10.805   8.217  69.926  1.00  0.00    -0.213 C  
HETATM    8  N   UNL     1     -11.083   7.812  71.195  1.00  0.00    -0.244 NA 
HETATM    9  O   UNL     1     -10.350   7.485  69.060  1.00  0.00    -0.204 OA 
HETATM   10  C   UNL     1     -11.800   8.762  71.834  1.00  0.00    -0.367 C  
BRANCH   5  11
HETATM   11  N   UNL     1      -9.826  10.454  69.815  1.00  0.00    -0.413 N  
HETATM   12  H   UNL     1      -9.243  10.471  70.651  1.00  0.00     0.000 HD 
BRANCH  11  13
HETATM   13  C   UNL     1      -9.413  11.112  68.693  1.00  0.00    -0.193 C  
HETATM   14  O   UNL     1      -9.917  10.955  67.589  1.00  0.00    -0.169 OA 
BRANCH  13  15
HETATM   15  N   UNL     1      -8.427  12.026  68.957  1.00  0.00    -0.349 N  
HETATM   16  H   UNL     1      -8.183  12.248  69.922  1.00  0.00     0.000 HD 
BRANCH  15  17
HETATM   17  C   UNL     1      -7.740  12.669  67.877  1.00  0.00    -0.141 C  
BRANCH  17  18
HETATM   18  N   UNL     1      -8.142  14.042  67.718  1.00  0.00    -0.152 N  
HETATM   19  H   UNL     1      -7.924  14.729  68.439  1.00  0.00     0.000 HD 
BRANCH  18  20
HETATM   20  C   UNL     1      -8.821  14.418  66.589  1.00  0.00    -0.159 C  
HETATM   21  O   UNL     1      -8.883  15.571  66.183  1.00  0.00    -0.320 OA 
BRANCH  20  22
HETATM   22  N   UNL     1      -9.417  13.354  65.954  1.00  0.00    -0.494 N  
HETATM   23  H   UNL     1      -9.073  12.400  66.063  1.00  0.00     0.000 HD 
BRANCH  22  24
HETATM   24  C   UNL     1     -10.551  13.663  65.127  1.00  0.00    -0.361 C  
HETATM   25  N   UNL     1     -10.983  12.629  64.218  1.00  0.00    -0.340 N  
HETATM   26  O   UNL     1     -12.052  14.314  67.007  1.00  0.00    -0.425 OA 
HETATM   27  C   UNL     1     -12.358  12.610  64.101  1.00  0.00    -0.436 C  
HETATM   28  N   UNL     1     -12.884  13.377  65.089  1.00  0.00    -0.716 NA 
HETATM   29  O   UNL     1     -13.010  11.978  63.287  1.00  0.00    -0.736 OA 
HETATM   30  C   UNL     1     -11.885  13.840  65.893  1.00  0.00    -0.383 C  
BRANCH  25  31
HETATM   31  C   UNL     1     -10.102  11.930  63.338  1.00  0.00    -0.438 C  
HETATM   32  H   UNL     1      -8.768  10.540  63.508  1.00  0.00     0.000 HD 
HETATM   33  O   UNL     1      -9.355  11.005  64.093  1.00  0.00    -0.221 OA 
ENDBRANCH  25  31
ENDBRANCH  22  24
ENDBRANCH  20  22
ENDBRANCH  18  20
ENDBRANCH  17  18
ENDBRANCH  15  17
ENDBRANCH  13  15
ENDBRANCH  11  13
ENDBRANCH   5  11
ENDBRANCH   2   4
TORSDOF 10
ENDMDL
MODEL       98
REMARK 921   NORMALIZED FREE ENERGY PREDICTED BY IDOCK:   -5.62 KCAL/MOL
REMARK 922        TOTAL FREE ENERGY PREDICTED BY IDOCK:  -10.90 KCAL/MOL
REMARK 923 INTER-LIGAND FREE ENERGY PREDICTED BY IDOCK:   -8.85 KCAL/MOL
REMARK 924 INTRA-LIGAND FREE ENERGY PREDICTED BY IDOCK:   -2.05 KCAL/MOL
REMARK 927      BINDING AFFINITY PREDICTED BY RF-SCORE:    0.00 PKD
ROOT
HETATM    1  O   UNL     1     -10.986  10.847  63.309  1.00  0.00    -0.675 OA 
HETATM    2  C   UNL     1      -9.810  10.510  64.003  1.00  0.00    -0.324 C  
HETATM    3  H   UNL     1     -10.790  10.910  62.382  1.00  0.00     0.000 HD 
ENDROOT
BRANCH   2   4
HETATM    4  N   UNL     1     -10.106  10.414  65.402  1.00  0.00    -0.290 N  
HETATM    5  C   UNL     1     -10.255  11.610  66.204  1.00  0.00    -0.226 C  
HETATM    6  O   UNL     1      -9.107   8.333  65.679  1.00  0.00    -0.156 OA 
HETATM    7  C   UNL     1      -9.536  11.144  67.491  1.00  0.00    -0.168 C  
HETATM    8  N   UNL     1      -9.334   9.802  67.401  1.00  0.00    -0.133 NA 
HETATM    9  O   UNL     1      -9.249  11.813  68.472  1.00  0.00    -0.196 OA 
HETATM   10  C   UNL     1      -9.513   9.394  66.125  1.00  0.00    -0.226 C  
BRANCH   5  11
HETATM   11  N   UNL     1     -11.642  11.876  66.491  1.00  0.00    -0.320 N  
HETATM   12  H   UNL     1     -12.227  11.136  66.877  1.00  0.00     0.000 HD 
BRANCH  11  13
HETATM   13  C   UNL     1     -12.185  13.106  66.251  1.00  0.00    -0.355 C  
HETATM   14  O   UNL     1     -12.341  13.959  67.114  1.00  0.00    -0.372 OA 
BRANCH  13  15
HETATM   15  N   UNL     1     -12.458  13.306  64.924  1.00  0.00    -0.551 N  
HETATM   16  H   UNL     1     -13.007  12.620  64.407  1.00  0.00     0.000 HD 
BRANCH  15  17
HETATM   17  C   UNL     1     -11.971  14.480  64.263  1.00  0.00    -0.397 C  
BRANCH  17  18
HETATM   18  N   UNL     1     -10.862  15.076  64.959  1.00  0.00    -0.399 N  
HETATM   19  H   UNL     1     -10.070  14.503  65.252  1.00  0.00     0.000 HD 
BRANCH  18  20
HETATM   20  C   UNL     1     -10.877  16.420  65.226  1.00  0.00    -0.258 C  
HETATM   21  O   UNL     1     -11.251  17.269  64.429  1.00  0.00    -1.082 OA 
BRANCH  20  22
HETATM   22  N   UNL     1     -10.437  16.709  66.497  1.00  0.00    -0.290 N  
HETATM   23  H   UNL     1     -11.034  16.586  67.315  1.00  0.00     0.000 HD 
BRANCH  22  24
HETATM   24  C   UNL     1      -9.088  17.193  66.606  1.00  0.00    -0.258 C  
HETATM   25  N   UNL     1      -8.926  18.527  67.130  1.00  0.00    -0.273 N  
HETATM   26  O   UNL     1      -8.246  15.266  67.944  1.00  0.00    -0.137 OA 
HETATM   27  C   UNL     1      -7.799  18.619  67.922  1.00  0.00    -0.257 C  
HETATM   28  N   UNL     1      -7.359  17.364  68.188  1.00  0.00    -0.198 NA 
HETATM   29  O   UNL     1      -7.299  19.641  68.360  1.00  0.00    -0.300 OA 
HETATM   30  C   UNL     1      -8.214  16.450  67.646  1.00  0.00    -0.153 C  
BRANCH  25  31
HETATM   31  C   UNL     1      -9.656  19.659  66.654  1.00  0.00    -0.380 C  
HETATM   32  H   UNL     1     -11.377  20.465  67.011  1.00  0.00     0.000 HD 
HETATM   33  O   UNL     1     -10.891  19.712  67.327  1.00  0.00    -0.474 OA 
ENDBRANCH  25  31
ENDBRANCH  22  24
ENDBRANCH  20  22
ENDBRANCH  18  20
ENDBRANCH  17  18
ENDBRANCH  15  17
ENDBRANCH  13  15
ENDBRANCH  11  13
ENDBRANCH   5  11
ENDBRANCH   2   4
TORSDOF 10
ENDMDL
MODEL       99
REMARK 921   NORMALIZED FREE ENERGY PREDICTED BY IDOCK:   -5.61 KCAL/MOL
REMARK 922        TOTAL FREE ENERGY PREDICTED BY IDOCK:  -10.89 KCAL/MOL
REMARK 923 INTER-LIGAND FREE ENERGY PREDICTED BY IDOCK:   -9.02 KCAL/MOL
REMARK 924 INTRA-LIGAND FREE ENERGY PREDICTED BY IDOCK:   -1.87 KCAL/MOL
REMARK 927      BINDING AFFINITY PREDICTED BY RF-SCORE:    0.00 PKD
ROOT
HETATM    1  O   UNL     1     -13.125   8.777  70.903  1.00  0.00    -0.505 OA 
HETATM    2  C   UNL     1     -12.252   9.697  71.513  1.00  0.00    -0.399 C  
HETATM    3  H   UNL     1     -13.608   8.315  71.578  1.00  0.00     0.000 HD 
ENDROOT
BRANCH   2   4
HETATM    4  N   UNL     1     -11.523  10.392  70.495  1.00  0.00    -0.327 N  
HETATM    5  C   UNL     1     -12.089  11.564  69.858  1.00  0.00    -0.316 C  
HETATM    6  O   UNL     1     -10.322   8.529  69.796  1.00  0.00    -0.203 OA 
HETATM    7  C   UNL     1     -11.636  11.305  68.403  1.00  0.00    -0.308 C  
HETATM    8  N   UNL     1     -10.728  10.291  68.416  1.00  0.00    -0.212 NA 
HETATM    9  O   UNL     1     -11.952  11.925  67.399  1.00  0.00    -0.603 OA 
HETATM   10  C   UNL     1     -10.777   9.645  69.601  1.00  0.00    -0.240 C  
BRANCH   5  11
HETATM   11  N   UNL     1     -11.476  12.772  70.351  1.00  0.00    -0.420 N  
HETATM   12  H   UNL     1     -10.469  12.798  70.508  1.00  0.00     0.000 HD 
BRANCH  11  13
HETATM   13  C   UNL     1     -12.225  13.884  70.609  1.00  0.00    -0.373 C  
HETATM   14  O   UNL     1     -12.472  14.289  71.737  1.00  0.00    -0.340 OA 
BRANCH  13  15
HETATM   15  N   UNL     1     -12.601  14.537  69.465  1.00  0.00    -0.560 N  
HETATM   16  H   UNL     1     -13.551  14.437  69.109  1.00  0.00     0.000 HD 
BRANCH  15  17
HETATM   17  C   UNL     1     -11.657  15.361  68.770  1.00  0.00    -0.368 C  
BRANCH  17  18
HETATM   18  N   UNL     1     -11.554  15.013  67.377  1.00  0.00    -0.330 N  
HETATM   19  H   UNL     1     -12.331  14.550  66.903  1.00  0.00     0.000 HD 
BRANCH  18  20
HETATM   20  C   UNL     1     -10.406  15.309  66.691  1.00  0.00    -0.280 C  
HETATM   21  O   UNL     1      -9.976  14.641  65.761  1.00  0.00    -0.306 OA 
BRANCH  20  22
HETATM   22  N   UNL     1      -9.795  16.450  67.157  1.00  0.00    -0.244 N  
HETATM   23  H   UNL     1      -9.950  16.796  68.104  1.00  0.00     0.000 HD 
BRANCH  22  24
HETATM   24  C   UNL     1      -8.925  17.126  66.233  1.00  0.00    -0.228 C  
HETATM   25  N   UNL     1      -8.985  18.567  66.233  1.00  0.00    -0.256 N  
HETATM   26  O   UNL     1      -6.835  16.010  67.007  1.00  0.00    -0.204 OA 
HETATM   27  C   UNL     1      -7.737  19.119  66.024  1.00  0.00    -0.247 C  
HETATM   28  N   UNL     1      -6.807  18.142  66.168  1.00  0.00    -0.239 NA 
HETATM   29  O   UNL     1      -7.489  20.290  65.798  1.00  0.00    -0.276 OA 
HETATM   30  C   UNL     1      -7.414  16.978  66.537  1.00  0.00    -0.292 C  
BRANCH  25  31
HETATM   31  C   UNL     1     -10.203  19.309  66.158  1.00  0.00    -0.470 C  
HETATM   32  H   UNL     1     -11.733  19.606  67.302  1.00  0.00     0.000 HD 
HETATM   33  O   UNL     1     -10.923  19.113  67.352  1.00  0.00    -0.475 OA 
ENDBRANCH  25  31
ENDBRANCH  22  24
ENDBRANCH  20  22
ENDBRANCH  18  20
ENDBRANCH  17  18
ENDBRANCH  15  17
ENDBRANCH  13  15
ENDBRANCH  11  13
ENDBRANCH   5  11
ENDBRANCH   2   4
TORSDOF 10
ENDMDL
MODEL      100
REMARK 921   NORMALIZED FREE ENERGY PREDICTED BY IDOCK:   -5.61 KCAL/MOL
REMARK 922        TOTAL FREE ENERGY PREDICTED BY IDOCK:  -10.89 KCAL/MOL
REMARK 923 INTER-LIGAND FREE ENERGY PREDICTED BY IDOCK:   -9.01 KCAL/MOL
REMARK 924 INTRA-LIGAND FREE ENERGY PREDICTED BY IDOCK:   -1.87 KCAL/MOL
REMARK 927      BINDING AFFINITY PREDICTED BY RF-SCORE:    0.00 PKD
ROOT
HETATM    1  O   UNL     1     -10.846  11.820  69.535  1.00  0.00    -0.442 OA 
HETATM    2  C   UNL     1     -11.164  10.526  69.083  1.00  0.00    -0.256 C  
HETATM    3  H   UNL     1     -11.628  12.223  69.894  1.00  0.00     0.000 HD 
ENDROOT
BRANCH   2   4
HETATM    4  N   UNL     1      -9.986   9.919  68.541  1.00  0.00    -0.155 N  
HETATM    5  C   UNL     1      -9.980   9.409  67.185  1.00  0.00    -0.204 C  
HETATM    6  O   UNL     1      -9.160   9.208  70.594  1.00  0.00    -0.216 OA 
HETATM    7  C   UNL     1      -9.161   8.116  67.404  1.00  0.00    -0.134 C  
HETATM    8  N   UNL     1      -8.610   8.169  68.647  1.00  0.00    -0.127 NA 
HETATM    9  O   UNL     1      -8.955   7.217  66.603  1.00  0.00    -0.134 OA 
HETATM   10  C   UNL     1      -9.214   9.132  69.377  1.00  0.00    -0.156 C  
BRANCH   5  11
HETATM   11  N   UNL     1      -9.266  10.294  66.298  1.00  0.00    -0.156 N  
HETATM   12  H   UNL     1      -8.748  11.083  66.684  1.00  0.00     0.000 HD 
BRANCH  11  13
HETATM   13  C   UNL     1      -9.273  10.090  64.948  1.00  0.00    -0.239 C  
HETATM   14  O   UNL     1      -8.335   9.608  64.329  1.00  0.00    -0.144 OA 
BRANCH  13  15
HETATM   15  N   UNL     1     -10.478  10.411  64.379  1.00  0.00    -0.306 N  
HETATM   16  H   UNL     1     -11.344  10.063  64.788  1.00  0.00     0.000 HD 
BRANCH  15  17
HETATM   17  C   UNL     1     -10.518  11.236  63.209  1.00  0.00    -0.305 C  
BRANCH  17  18
HETATM   18  N   UNL     1     -11.722  12.021  63.138  1.00  0.00    -0.718 N  
HETATM   19  H   UNL     1     -12.553  11.649  62.676  1.00  0.00     0.000 HD 
BRANCH  18  20
HETATM   20  C   UNL     1     -11.745  13.272  63.697  1.00  0.00    -0.394 C  
HETATM   21  O   UNL     1     -12.737  13.987  63.727  1.00  0.00    -0.734 OA 
BRANCH  20  22
HETATM   22  N   UNL     1     -10.530  13.631  64.233  1.00  0.00    -0.603 N  
HETATM   23  H   UNL     1      -9.694  13.726  63.657  1.00  0.00     0.000 HD 
BRANCH  22  24
HETATM   24  C   UNL     1     -10.507  13.863  65.651  1.00  0.00    -0.312 C  
HETATM   25  N   UNL     1     -10.882  15.185  66.091  1.00  0.00    -0.326 N  
HETATM   26  O   UNL     1     -11.979  11.939  66.237  1.00  0.00    -0.554 OA 
HETATM   27  C   UNL     1     -11.590  15.135  67.275  1.00  0.00    -0.223 C  
HETATM   28  N   UNL     1     -11.954  13.848  67.503  1.00  0.00    -0.394 NA 
HETATM   29  O   UNL     1     -11.890  16.080  67.983  1.00  0.00    -0.126 OA 
HETATM   30  C   UNL     1     -11.561  13.065  66.458  1.00  0.00    -0.356 C  
BRANCH  25  31
HETATM   31  C   UNL     1     -10.339  16.386  65.540  1.00  0.00    -0.313 C  
HETATM   32  H   UNL     1     -10.677  17.492  63.991  1.00  0.00     0.000 HD 
HETATM   33  O   UNL     1     -11.038  16.694  64.358  1.00  0.00    -0.985 OA 
ENDBRANCH  25  31
ENDBRANCH  22  24
ENDBRANCH  20  22
ENDBRANCH  18  20
ENDBRANCH  17  18
ENDBRANCH  15  17
ENDBRANCH  13  15
ENDBRANCH  11  13
ENDBRANCH   5  11
ENDBRANCH   2   4
TORSDOF 10
ENDMDL
MODEL      101
REMARK 921   NORMALIZED FREE ENERGY PREDICTED BY IDOCK:   -5.61 KCAL/MOL
REMARK 922        TOTAL FREE ENERGY PREDICTED BY IDOCK:  -10.88 KCAL/MOL
REMARK 923 INTER-LIGAND FREE ENERGY PREDICTED BY IDOCK:   -8.71 KCAL/MOL
REMARK 924 INTRA-LIGAND FREE ENERGY PREDICTED BY IDOCK:   -2.17 KCAL/MOL
REMARK 927      BINDING AFFINITY PREDICTED BY RF-SCORE:    0.00 PKD
ROOT
HETATM    1  O   UNL     1     -12.218  10.816  68.245  1.00  0.00    -0.815 OA 
HETATM    2  C   UNL     1     -12.616  11.115  69.562  1.00  0.00     0.068 C  
HETATM    3  H   UNL     1     -12.759  11.310  67.640  1.00  0.00     0.000 HD 
ENDROOT
BRANCH   2   4
HETATM    4  N   UNL     1     -11.802  10.371  70.475  1.00  0.00    -0.310 N  
HETATM    5  C   UNL     1     -10.801   9.447  69.981  1.00  0.00    -0.241 C  
HETATM    6  O   UNL     1     -13.369  10.370  72.192  1.00  0.00    -0.441 OA 
HETATM    7  C   UNL     1     -10.990   8.300  71.000  1.00  0.00    -0.245 C  
HETATM    8  N   UNL     1     -11.776   8.757  72.011  1.00  0.00    -0.359 NA 
HETATM    9  O   UNL     1     -10.480   7.189  70.979  1.00  0.00    -0.214 OA 
HETATM   10  C   UNL     1     -12.387   9.902  71.638  1.00  0.00    -0.406 C  
BRANCH   5  11
HETATM   11  N   UNL     1      -9.475   9.998  70.108  1.00  0.00    -0.396 N  
HETATM   12  H   UNL     1      -9.131  10.275  71.027  1.00  0.00     0.000 HD 
BRANCH  11  13
HETATM   13  C   UNL     1      -8.673  10.155  69.014  1.00  0.00    -0.161 C  
HETATM   14  O   UNL     1      -7.560   9.658  68.912  1.00  0.00    -0.073 OA 
BRANCH  13  15
HETATM   15  N   UNL     1      -9.287  10.862  68.014  1.00  0.00    -0.155 N  
HETATM   16  H   UNL     1     -10.132  10.497  67.576  1.00  0.00     0.000 HD 
BRANCH  15  17
HETATM   17  C   UNL     1      -8.740  12.115  67.585  1.00  0.00    -0.172 C  
BRANCH  17  18
HETATM   18  N   UNL     1      -9.122  12.441  66.236  1.00  0.00    -0.393 N  
HETATM   19  H   UNL     1      -8.549  12.134  65.450  1.00  0.00     0.000 HD 
BRANCH  18  20
HETATM   20  C   UNL     1     -10.264  13.166  66.016  1.00  0.00    -0.286 C  
HETATM   21  O   UNL     1     -11.370  12.835  66.423  1.00  0.00    -0.292 OA 
BRANCH  20  22
HETATM   22  N   UNL     1     -10.028  14.314  65.298  1.00  0.00    -0.550 N  
HETATM   23  H   UNL     1      -9.545  14.298  64.400  1.00  0.00     0.000 HD 
BRANCH  22  24
HETATM   24  C   UNL     1     -10.502  15.538  65.885  1.00  0.00    -0.342 C  
HETATM   25  N   UNL     1      -9.506  16.384  66.495  1.00  0.00    -0.255 N  
HETATM   26  O   UNL     1     -11.677  16.348  63.841  1.00  0.00    -1.085 OA 
HETATM   27  C   UNL     1      -9.793  17.719  66.293  1.00  0.00    -0.294 C  
HETATM   28  N   UNL     1     -10.761  17.811  65.347  1.00  0.00    -0.569 NA 
HETATM   29  O   UNL     1      -9.247  18.669  66.827  1.00  0.00    -0.288 OA 
HETATM   30  C   UNL     1     -11.063  16.568  64.874  1.00  0.00    -0.190 C  
BRANCH  25  31
HETATM   31  C   UNL     1      -8.533  15.914  67.429  1.00  0.00    -0.175 C  
HETATM   32  H   UNL     1      -6.834  14.995  67.336  1.00  0.00     0.000 HD 
HETATM   33  O   UNL     1      -7.481  15.309  66.716  1.00  0.00    -0.074 OA 
ENDBRANCH  25  31
ENDBRANCH  22  24
ENDBRANCH  20  22
ENDBRANCH  18  20
ENDBRANCH  17  18
ENDBRANCH  15  17
ENDBRANCH  13  15
ENDBRANCH  11  13
ENDBRANCH   5  11
ENDBRANCH   2   4
TORSDOF 10
ENDMDL
MODEL      102
REMARK 921   NORMALIZED FREE ENERGY PREDICTED BY IDOCK:   -5.61 KCAL/MOL
REMARK 922        TOTAL FREE ENERGY PREDICTED BY IDOCK:  -10.88 KCAL/MOL
REMARK 923 INTER-LIGAND FREE ENERGY PREDICTED BY IDOCK:   -8.74 KCAL/MOL
REMARK 924 INTRA-LIGAND FREE ENERGY PREDICTED BY IDOCK:   -2.14 KCAL/MOL
REMARK 927      BINDING AFFINITY PREDICTED BY RF-SCORE:    0.00 PKD
ROOT
HETATM    1  O   UNL     1     -12.190  11.622  67.629  1.00  0.00    -0.544 OA 
HETATM    2  C   UNL     1     -11.132  12.195  66.899  1.00  0.00    -0.297 C  
HETATM    3  H   UNL     1     -12.181  11.971  68.512  1.00  0.00     0.000 HD 
ENDROOT
BRANCH   2   4
HETATM    4  N   UNL     1     -11.146  11.668  65.568  1.00  0.00    -0.272 N  
HETATM    5  C   UNL     1      -9.950  11.080  64.999  1.00  0.00    -0.285 C  
HETATM    6  O   UNL     1     -12.838  13.069  64.810  1.00  0.00    -0.708 OA 
HETATM    7  C   UNL     1     -10.059  11.629  63.558  1.00  0.00    -0.425 C  
HETATM    8  N   UNL     1     -11.300  12.164  63.401  1.00  0.00    -0.426 NA 
HETATM    9  O   UNL     1      -9.231  11.549  62.662  1.00  0.00    -0.340 OA 
HETATM   10  C   UNL     1     -11.881  12.339  64.607  1.00  0.00    -0.367 C  
BRANCH   5  11
HETATM   11  N   UNL     1     -10.034   9.641  64.980  1.00  0.00    -0.391 N  
HETATM   12  H   UNL     1     -10.887   9.191  64.650  1.00  0.00     0.000 HD 
BRANCH  11  13
HETATM   13  C   UNL     1      -8.986   8.872  65.399  1.00  0.00    -0.182 C  
HETATM   14  O   UNL     1      -7.868   8.922  64.905  1.00  0.00    -0.110 OA 
BRANCH  13  15
HETATM   15  N   UNL     1      -9.307   8.099  66.483  1.00  0.00    -0.192 N  
HETATM   16  H   UNL     1      -9.899   7.277  66.366  1.00  0.00     0.000 HD 
BRANCH  15  17
HETATM   17  C   UNL     1      -8.812   8.448  67.781  1.00  0.00    -0.137 C  
BRANCH  17  18
HETATM   18  N   UNL     1      -9.856   8.913  68.655  1.00  0.00    -0.163 N  
HETATM   19  H   UNL     1     -10.768   8.456  68.656  1.00  0.00     0.000 HD 
BRANCH  18  20
HETATM   20  C   UNL     1      -9.616   9.976  69.486  1.00  0.00    -0.230 C  
HETATM   21  O   UNL     1      -8.906  10.928  69.187  1.00  0.00    -0.135 OA 
BRANCH  20  22
HETATM   22  N   UNL     1     -10.270   9.862  70.690  1.00  0.00    -0.370 N  
HETATM   23  H   UNL     1      -9.770   9.873  71.578  1.00  0.00     0.000 HD 
BRANCH  22  24
HETATM   24  C   UNL     1     -11.700   9.726  70.624  1.00  0.00    -0.300 C  
HETATM   25  N   UNL     1     -12.307   8.861  71.605  1.00  0.00    -0.324 N  
HETATM   26  O   UNL     1     -12.180  12.170  70.716  1.00  0.00    -0.377 OA 
HETATM   27  C   UNL     1     -13.528   9.354  72.018  1.00  0.00    -0.449 C  
HETATM   28  N   UNL     1     -13.641  10.636  71.587  1.00  0.00    -0.136 NA 
HETATM   29  O   UNL     1     -14.355   8.772  72.698  1.00  0.00    -0.585 OA 
HETATM   30  C   UNL     1     -12.490  11.014  70.961  1.00  0.00    -0.409 C  
BRANCH  25  31
HETATM   31  C   UNL     1     -11.852   7.535  71.881  1.00  0.00    -0.296 C  
HETATM   32  H   UNL     1     -11.151   6.054  70.855  1.00  0.00     0.000 HD 
HETATM   33  O   UNL     1     -11.454   6.936  70.672  1.00  0.00    -0.297 OA 
ENDBRANCH  25  31
ENDBRANCH  22  24
ENDBRANCH  20  22
ENDBRANCH  18  20
ENDBRANCH  17  18
ENDBRANCH  15  17
ENDBRANCH  13  15
ENDBRANCH  11  13
ENDBRANCH   5  11
ENDBRANCH   2   4
TORSDOF 10
ENDMDL
MODEL      103
REMARK 921   NORMALIZED FREE ENERGY PREDICTED BY IDOCK:   -5.60 KCAL/MOL
REMARK 922        TOTAL FREE ENERGY PREDICTED BY IDOCK:  -10.87 KCAL/MOL
REMARK 923 INTER-LIGAND FREE ENERGY PREDICTED BY IDOCK:   -9.23 KCAL/MOL
REMARK 924 INTRA-LIGAND FREE ENERGY PREDICTED BY IDOCK:   -1.64 KCAL/MOL
REMARK 927      BINDING AFFINITY PREDICTED BY RF-SCORE:    0.00 PKD
ROOT
HETATM    1  O   UNL     1     -10.782  10.721  62.828  1.00  0.00    -0.718 OA 
HETATM    2  C   UNL     1      -9.914  11.712  63.324  1.00  0.00    -0.419 C  
HETATM    3  H   UNL     1     -10.366  10.286  62.093  1.00  0.00     0.000 HD 
ENDROOT
BRANCH   2   4
HETATM    4  N   UNL     1     -10.541  12.369  64.431  1.00  0.00    -0.314 N  
HETATM    5  C   UNL     1     -10.245  11.961  65.790  1.00  0.00    -0.242 C  
HETATM    6  O   UNL     1     -12.447  12.984  63.252  1.00  0.00    -0.699 OA 
HETATM    7  C   UNL     1     -11.662  12.064  66.399  1.00  0.00    -0.252 C  
HETATM    8  N   UNL     1     -12.459  12.716  65.510  1.00  0.00    -0.648 NA 
HETATM    9  O   UNL     1     -12.027  11.706  67.509  1.00  0.00    -0.622 OA 
HETATM   10  C   UNL     1     -11.863  12.753  64.298  1.00  0.00    -0.396 C  
BRANCH   5  11
HETATM   11  N   UNL     1      -9.366  12.902  66.438  1.00  0.00    -0.369 N  
HETATM   12  H   UNL     1      -9.259  13.839  66.050  1.00  0.00     0.000 HD 
BRANCH  11  13
HETATM   13  C   UNL     1      -8.676  12.557  67.563  1.00  0.00    -0.182 C  
HETATM   14  O   UNL     1      -8.218  13.369  68.355  1.00  0.00    -0.153 OA 
BRANCH  13  15
HETATM   15  N   UNL     1      -8.623  11.200  67.748  1.00  0.00    -0.129 N  
HETATM   16  H   UNL     1      -8.512  10.580  66.945  1.00  0.00     0.000 HD 
BRANCH  15  17
HETATM   17  C   UNL     1      -8.726  10.653  69.068  1.00  0.00    -0.146 C  
BRANCH  17  18
HETATM   18  N   UNL     1     -10.006  10.921  69.669  1.00  0.00    -0.434 N  
HETATM   19  H   UNL     1     -10.293  11.880  69.863  1.00  0.00     0.000 HD 
BRANCH  18  20
HETATM   20  C   UNL     1     -10.835   9.875  69.980  1.00  0.00    -0.294 C  
HETATM   21  O   UNL     1     -10.922   8.853  69.312  1.00  0.00    -0.144 OA 
BRANCH  20  22
HETATM   22  N   UNL     1     -11.552  10.096  71.132  1.00  0.00    -0.364 N  
HETATM   23  H   UNL     1     -12.127  10.929  71.258  1.00  0.00     0.000 HD 
BRANCH  22  24
HETATM   24  C   UNL     1     -11.444   9.086  72.150  1.00  0.00    -0.258 C  
HETATM   25  N   UNL     1     -12.173   7.864  71.920  1.00  0.00    -0.302 N  
HETATM   26  O   UNL     1      -8.952   9.016  72.158  1.00  0.00    -0.378 OA 
HETATM   27  C   UNL     1     -11.471   6.769  72.381  1.00  0.00    -0.264 C  
HETATM   28  N   UNL     1     -10.198   7.156  72.647  1.00  0.00    -0.189 NA 
HETATM   29  O   UNL     1     -11.890   5.630  72.492  1.00  0.00    -0.282 OA 
HETATM   30  C   UNL     1     -10.034   8.465  72.301  1.00  0.00    -0.313 C  
BRANCH  25  31
HETATM   31  C   UNL     1     -13.551   7.822  71.545  1.00  0.00    -0.331 C  
HETATM   32  H   UNL     1     -15.058   9.031  71.620  1.00  0.00     0.000 HD 
HETATM   33  O   UNL     1     -14.142   9.058  71.869  1.00  0.00    -0.388 OA 
ENDBRANCH  25  31
ENDBRANCH  22  24
ENDBRANCH  20  22
ENDBRANCH  18  20
ENDBRANCH  17  18
ENDBRANCH  15  17
ENDBRANCH  13  15
ENDBRANCH  11  13
ENDBRANCH   5  11
ENDBRANCH   2   4
TORSDOF 10
ENDMDL
MODEL      104
REMARK 921   NORMALIZED FREE ENERGY PREDICTED BY IDOCK:   -5.59 KCAL/MOL
REMARK 922        TOTAL FREE ENERGY PREDICTED BY IDOCK:  -10.86 KCAL/MOL
REMARK 923 INTER-LIGAND FREE ENERGY PREDICTED BY IDOCK:   -9.03 KCAL/MOL
REMARK 924 INTRA-LIGAND FREE ENERGY PREDICTED BY IDOCK:   -1.83 KCAL/MOL
REMARK 927      BINDING AFFINITY PREDICTED BY RF-SCORE:    0.00 PKD
ROOT
HETATM    1  O   UNL     1     -11.961   6.638  69.273  1.00  0.00    -0.545 OA 
HETATM    2  C   UNL     1     -11.821   6.706  70.672  1.00  0.00    -0.383 C  
HETATM    3  H   UNL     1     -12.364   5.809  69.043  1.00  0.00     0.000 HD 
ENDROOT
BRANCH   2   4
HETATM    4  N   UNL     1     -11.213   7.956  71.018  1.00  0.00    -0.265 N  
HETATM    5  C   UNL     1     -10.370   8.652  70.067  1.00  0.00    -0.207 C  
HETATM    6  O   UNL     1     -11.147   7.524  73.301  1.00  0.00    -0.378 OA 
HETATM    7  C   UNL     1      -9.266   9.154  71.026  1.00  0.00    -0.252 C  
HETATM    8  N   UNL     1      -9.696   8.963  72.303  1.00  0.00    -0.268 NA 
HETATM    9  O   UNL     1      -8.214   9.701  70.734  1.00  0.00    -0.273 OA 
HETATM   10  C   UNL     1     -10.752   8.120  72.312  1.00  0.00    -0.313 C  
BRANCH   5  11
HETATM   11  N   UNL     1     -11.059   9.777  69.485  1.00  0.00    -0.330 N  
HETATM   12  H   UNL     1     -11.762  10.273  70.031  1.00  0.00     0.000 HD 
BRANCH  11  13
HETATM   13  C   UNL     1     -10.782  10.186  68.212  1.00  0.00    -0.238 C  
HETATM   14  O   UNL     1     -10.323   9.453  67.347  1.00  0.00    -0.228 OA 
BRANCH  13  15
HETATM   15  N   UNL     1     -11.152  11.487  67.991  1.00  0.00    -0.234 N  
HETATM   16  H   UNL     1     -11.022  12.185  68.722  1.00  0.00     0.000 HD 
BRANCH  15  17
HETATM   17  C   UNL     1     -11.721  11.864  66.731  1.00  0.00    -0.202 C  
BRANCH  17  18
HETATM   18  N   UNL     1     -10.724  11.998  65.702  1.00  0.00    -0.263 N  
HETATM   19  H   UNL     1      -9.823  11.528  65.794  1.00  0.00     0.000 HD 
BRANCH  18  20
HETATM   20  C   UNL     1     -10.995  12.763  64.598  1.00  0.00    -0.327 C  
HETATM   21  O   UNL     1     -11.815  12.458  63.743  1.00  0.00    -0.413 OA 
BRANCH  20  22
HETATM   22  N   UNL     1     -10.251  13.919  64.564  1.00  0.00    -0.678 N  
HETATM   23  H   UNL     1      -9.418  14.007  63.982  1.00  0.00     0.000 HD 
BRANCH  22  24
HETATM   24  C   UNL     1     -10.715  14.997  65.395  1.00  0.00    -0.374 C  
HETATM   25  N   UNL     1      -9.706  15.717  66.133  1.00  0.00    -0.292 N  
HETATM   26  O   UNL     1     -11.956  16.181  63.587  1.00  0.00    -0.826 OA 
HETATM   27  C   UNL     1     -10.008  17.062  66.208  1.00  0.00    -0.310 C  
HETATM   28  N   UNL     1     -11.004  17.328  65.326  1.00  0.00    -0.428 NA 
HETATM   29  O   UNL     1      -9.452  17.894  66.904  1.00  0.00    -0.263 OA 
HETATM   30  C   UNL     1     -11.312  16.199  64.625  1.00  0.00    -0.282 C  
BRANCH  25  31
HETATM   31  C   UNL     1      -8.702  15.083  66.927  1.00  0.00    -0.256 C  
HETATM   32  H   UNL     1      -8.517  13.406  67.871  1.00  0.00     0.000 HD 
HETATM   33  O   UNL     1      -9.185  13.828  67.343  1.00  0.00    -0.203 OA 
ENDBRANCH  25  31
ENDBRANCH  22  24
ENDBRANCH  20  22
ENDBRANCH  18  20
ENDBRANCH  17  18
ENDBRANCH  15  17
ENDBRANCH  13  15
ENDBRANCH  11  13
ENDBRANCH   5  11
ENDBRANCH   2   4
TORSDOF 10
ENDMDL
MODEL      105
REMARK 921   NORMALIZED FREE ENERGY PREDICTED BY IDOCK:   -5.57 KCAL/MOL
REMARK 922        TOTAL FREE ENERGY PREDICTED BY IDOCK:  -10.82 KCAL/MOL
REMARK 923 INTER-LIGAND FREE ENERGY PREDICTED BY IDOCK:   -8.74 KCAL/MOL
REMARK 924 INTRA-LIGAND FREE ENERGY PREDICTED BY IDOCK:   -2.08 KCAL/MOL
REMARK 927      BINDING AFFINITY PREDICTED BY RF-SCORE:    0.00 PKD
ROOT
HETATM    1  O   UNL     1     -10.958  11.391  68.311  1.00  0.00    -0.187 OA 
HETATM    2  C   UNL     1     -11.032  11.046  69.674  1.00  0.00    -0.225 C  
HETATM    3  H   UNL     1     -10.175  11.005  67.937  1.00  0.00     0.000 HD 
ENDROOT
BRANCH   2   4
HETATM    4  N   UNL     1     -12.212  11.629  70.239  1.00  0.00    -0.332 N  
HETATM    5  C   UNL     1     -12.203  13.002  70.702  1.00  0.00    -0.307 C  
HETATM    6  O   UNL     1     -13.087   9.616  71.003  1.00  0.00    -0.319 OA 
HETATM    7  C   UNL     1     -13.050  12.841  71.985  1.00  0.00    -0.369 C  
HETATM    8  N   UNL     1     -13.622  11.607  71.964  1.00  0.00    -0.209 NA 
HETATM    9  O   UNL     1     -13.258  13.676  72.853  1.00  0.00    -0.498 OA 
HETATM   10  C   UNL     1     -13.013  10.834  71.039  1.00  0.00    -0.332 C  
BRANCH   5  11
HETATM   11  N   UNL     1     -12.884  13.869  69.774  1.00  0.00    -0.211 N  
HETATM   12  H   UNL     1     -13.660  13.505  69.222  1.00  0.00     0.000 HD 
BRANCH  11  13
HETATM   13  C   UNL     1     -12.505  15.172  69.624  1.00  0.00    -0.136 C  
HETATM   14  O   UNL     1     -12.620  16.018  70.501  1.00  0.00    -0.317 OA 
BRANCH  13  15
HETATM   15  N   UNL     1     -11.908  15.406  68.414  1.00  0.00    -0.503 N  
HETATM   16  H   UNL     1     -12.013  14.733  67.655  1.00  0.00     0.000 HD 
BRANCH  15  17
HETATM   17  C   UNL     1     -11.134  16.596  68.216  1.00  0.00    -0.295 C  
BRANCH  17  18
HETATM   18  N   UNL     1     -10.099  16.413  67.233  1.00  0.00    -0.264 N  
HETATM   19  H   UNL     1      -9.842  17.178  66.608  1.00  0.00     0.000 HD 
BRANCH  18  20
HETATM   20  C   UNL     1      -9.461  15.204  67.143  1.00  0.00    -0.216 C  
HETATM   21  O   UNL     1      -8.926  14.644  68.090  1.00  0.00    -0.167 OA 
BRANCH  20  22
HETATM   22  N   UNL     1      -9.499  14.682  65.871  1.00  0.00    -0.491 N  
HETATM   23  H   UNL     1      -8.822  14.952  65.157  1.00  0.00     0.000 HD 
BRANCH  22  24
HETATM   24  C   UNL     1     -10.548  13.736  65.605  1.00  0.00    -0.298 C  
HETATM   25  N   UNL     1     -11.434  14.051  64.511  1.00  0.00    -0.375 N  
HETATM   26  O   UNL     1      -9.044  11.759  65.401  1.00  0.00    -0.089 OA 
HETATM   27  C   UNL     1     -11.807  12.912  63.826  1.00  0.00    -0.504 C  
HETATM   28  N   UNL     1     -11.002  11.893  64.219  1.00  0.00    -0.329 NA 
HETATM   29  O   UNL     1     -12.675  12.827  62.975  1.00  0.00    -0.493 OA 
HETATM   30  C   UNL     1     -10.064  12.357  65.093  1.00  0.00    -0.256 C  
BRANCH  25  31
HETATM   31  C   UNL     1     -12.071  15.319  64.349  1.00  0.00    -0.252 C  
HETATM   32  H   UNL     1     -11.501  17.152  64.113  1.00  0.00     0.000 HD 
HETATM   33  O   UNL     1     -11.078  16.308  64.221  1.00  0.00    -0.762 OA 
ENDBRANCH  25  31
ENDBRANCH  22  24
ENDBRANCH  20  22
ENDBRANCH  18  20
ENDBRANCH  17  18
ENDBRANCH  15  17
ENDBRANCH  13  15
ENDBRANCH  11  13
ENDBRANCH   5  11
ENDBRANCH   2   4
TORSDOF 10
ENDMDL
MODEL      106
REMARK 921   NORMALIZED FREE ENERGY PREDICTED BY IDOCK:   -5.55 KCAL/MOL
REMARK 922        TOTAL FREE ENERGY PREDICTED BY IDOCK:  -10.79 KCAL/MOL
REMARK 923 INTER-LIGAND FREE ENERGY PREDICTED BY IDOCK:   -8.21 KCAL/MOL
REMARK 924 INTRA-LIGAND FREE ENERGY PREDICTED BY IDOCK:   -2.59 KCAL/MOL
REMARK 927      BINDING AFFINITY PREDICTED BY RF-SCORE:    0.00 PKD
ROOT
HETATM    1  O   UNL     1      -9.821  12.520  68.136  1.00  0.00    -0.211 OA 
HETATM    2  C   UNL     1     -10.355  11.575  67.241  1.00  0.00    -0.206 C  
HETATM    3  H   UNL     1     -10.376  12.566  68.904  1.00  0.00     0.000 HD 
ENDROOT
BRANCH   2   4
HETATM    4  N   UNL     1      -9.517  11.505  66.081  1.00  0.00    -0.215 N  
HETATM    5  C   UNL     1     -10.067  11.109  64.801  1.00  0.00    -0.295 C  
HETATM    6  O   UNL     1      -7.566  11.067  67.266  1.00  0.00    -0.102 OA 
HETATM    7  C   UNL     1      -8.905  10.229  64.287  1.00  0.00    -0.215 C  
HETATM    8  N   UNL     1      -7.831  10.427  65.100  1.00  0.00    -0.144 NA 
HETATM    9  O   UNL     1      -8.884   9.524  63.289  1.00  0.00    -0.225 OA 
HETATM   10  C   UNL     1      -8.224  11.039  66.238  1.00  0.00    -0.164 C  
BRANCH   5  11
HETATM   11  N   UNL     1     -10.237  12.247  63.932  1.00  0.00    -0.443 N  
HETATM   12  H   UNL     1      -9.416  12.713  63.547  1.00  0.00     0.000 HD 
BRANCH  11  13
HETATM   13  C   UNL     1     -11.482  12.709  63.618  1.00  0.00    -0.495 C  
HETATM   14  O   UNL     1     -12.352  12.022  63.100  1.00  0.00    -0.486 OA 
BRANCH  13  15
HETATM   15  N   UNL     1     -11.675  14.005  64.021  1.00  0.00    -0.645 N  
HETATM   16  H   UNL     1     -11.522  14.771  63.366  1.00  0.00     0.000 HD 
BRANCH  15  17
HETATM   17  C   UNL     1     -12.091  14.281  65.364  1.00  0.00    -0.396 C  
BRANCH  17  18
HETATM   18  N   UNL     1     -11.020  14.814  66.165  1.00  0.00    -0.327 N  
HETATM   19  H   UNL     1     -10.850  14.451  67.104  1.00  0.00     0.000 HD 
BRANCH  18  20
HETATM   20  C   UNL     1     -10.232  15.813  65.658  1.00  0.00    -0.380 C  
HETATM   21  O   UNL     1     -10.603  16.606  64.803  1.00  0.00    -0.685 OA 
BRANCH  20  22
HETATM   22  N   UNL     1      -8.979  15.833  66.224  1.00  0.00    -0.324 N  
HETATM   23  H   UNL     1      -8.299  15.092  66.056  1.00  0.00     0.000 HD 
BRANCH  22  24
HETATM   24  C   UNL     1      -8.682  16.959  67.068  1.00  0.00    -0.209 C  
HETATM   25  N   UNL     1      -8.071  16.663  68.340  1.00  0.00    -0.198 N  
HETATM   26  O   UNL     1      -7.360  18.201  65.359  1.00  0.00    -0.520 OA 
HETATM   27  C   UNL     1      -7.146  17.627  68.686  1.00  0.00    -0.245 C  
HETATM   28  N   UNL     1      -6.898  18.394  67.595  1.00  0.00    -0.205 NA 
HETATM   29  O   UNL     1      -6.597  17.754  69.767  1.00  0.00    -0.155 OA 
HETATM   30  C   UNL     1      -7.587  17.908  66.523  1.00  0.00    -0.250 C  
BRANCH  25  31
HETATM   31  C   UNL     1      -8.569  15.679  69.249  1.00  0.00    -0.262 C  
HETATM   32  H   UNL     1     -10.277  14.849  69.614  1.00  0.00     0.000 HD 
HETATM   33  O   UNL     1      -9.945  15.503  69.010  1.00  0.00    -0.207 OA 
ENDBRANCH  25  31
ENDBRANCH  22  24
ENDBRANCH  20  22
ENDBRANCH  18  20
ENDBRANCH  17  18
ENDBRANCH  15  17
ENDBRANCH  13  15
ENDBRANCH  11  13
ENDBRANCH   5  11
ENDBRANCH   2   4
TORSDOF 10
ENDMDL
MODEL      107
REMARK 921   NORMALIZED FREE ENERGY PREDICTED BY IDOCK:   -5.54 KCAL/MOL
REMARK 922        TOTAL FREE ENERGY PREDICTED BY IDOCK:  -10.78 KCAL/MOL
REMARK 923 INTER-LIGAND FREE ENERGY PREDICTED BY IDOCK:   -8.61 KCAL/MOL
REMARK 924 INTRA-LIGAND FREE ENERGY PREDICTED BY IDOCK:   -2.17 KCAL/MOL
REMARK 927      BINDING AFFINITY PREDICTED BY RF-SCORE:    0.00 PKD
ROOT
HETATM    1  O   UNL     1     -10.356  15.177  70.091  1.00  0.00    -0.455 OA 
HETATM    2  C   UNL     1     -11.324  15.885  69.354  1.00  0.00    -0.349 C  
HETATM    3  H   UNL     1     -10.758  14.838  70.882  1.00  0.00     0.000 HD 
ENDROOT
BRANCH   2   4
HETATM    4  N   UNL     1     -10.718  16.396  68.161  1.00  0.00    -0.323 N  
HETATM    5  C   UNL     1     -10.038  15.505  67.242  1.00  0.00    -0.250 C  
HETATM    6  O   UNL     1     -10.322  18.517  69.026  1.00  0.00    -0.283 OA 
HETATM    7  C   UNL     1      -8.831  16.396  66.870  1.00  0.00    -0.205 C  
HETATM    8  N   UNL     1      -9.073  17.652  67.333  1.00  0.00    -0.237 NA 
HETATM    9  O   UNL     1      -7.849  16.088  66.212  1.00  0.00    -0.197 OA 
HETATM   10  C   UNL     1     -10.088  17.627  68.225  1.00  0.00    -0.362 C  
BRANCH   5  11
HETATM   11  N   UNL     1     -10.840  15.256  66.070  1.00  0.00    -0.327 N  
HETATM   12  H   UNL     1     -11.592  15.900  65.828  1.00  0.00     0.000 HD 
BRANCH  11  13
HETATM   13  C   UNL     1     -10.606  14.168  65.279  1.00  0.00    -0.373 C  
HETATM   14  O   UNL     1     -11.126  13.999  64.185  1.00  0.00    -0.257 OA 
BRANCH  13  15
HETATM   15  N   UNL     1      -9.663  13.329  65.812  1.00  0.00    -0.462 N  
HETATM   16  H   UNL     1      -8.706  13.656  65.945  1.00  0.00     0.000 HD 
BRANCH  15  17
HETATM   17  C   UNL     1     -10.022  11.992  66.180  1.00  0.00    -0.231 C  
BRANCH  17  18
HETATM   18  N   UNL     1     -10.017  11.801  67.607  1.00  0.00    -0.191 N  
HETATM   19  H   UNL     1      -9.228  11.342  68.062  1.00  0.00     0.000 HD 
BRANCH  18  20
HETATM   20  C   UNL     1     -11.081  12.242  68.349  1.00  0.00    -0.243 C  
HETATM   21  O   UNL     1     -12.018  12.878  67.885  1.00  0.00    -0.349 OA 
BRANCH  20  22
HETATM   22  N   UNL     1     -10.986  11.881  69.672  1.00  0.00    -0.467 N  
HETATM   23  H   UNL     1     -10.263  12.260  70.284  1.00  0.00     0.000 HD 
BRANCH  22  24
HETATM   24  C   UNL     1     -11.964  10.938  70.144  1.00  0.00    -0.352 C  
HETATM   25  N   UNL     1     -11.453   9.727  70.736  1.00  0.00    -0.314 N  
HETATM   26  O   UNL     1     -13.186  12.560  71.589  1.00  0.00    -0.399 OA 
HETATM   27  C   UNL     1     -12.238   9.319  71.796  1.00  0.00    -0.385 C  
HETATM   28  N   UNL     1     -13.075  10.335  72.125  1.00  0.00    -0.410 NA 
HETATM   29  O   UNL     1     -12.172   8.253  72.382  1.00  0.00    -0.361 OA 
HETATM   30  C   UNL     1     -12.805  11.424  71.349  1.00  0.00    -0.397 C  
BRANCH  25  31
HETATM   31  C   UNL     1     -10.456   8.906  70.125  1.00  0.00    -0.214 C  
HETATM   32  H   UNL     1      -9.994   8.372  68.325  1.00  0.00     0.000 HD 
HETATM   33  O   UNL     1     -10.657   8.918  68.732  1.00  0.00    -0.214 OA 
ENDBRANCH  25  31
ENDBRANCH  22  24
ENDBRANCH  20  22
ENDBRANCH  18  20
ENDBRANCH  17  18
ENDBRANCH  15  17
ENDBRANCH  13  15
ENDBRANCH  11  13
ENDBRANCH   5  11
ENDBRANCH   2   4
TORSDOF 10
ENDMDL
MODEL      108
REMARK 921   NORMALIZED FREE ENERGY PREDICTED BY IDOCK:   -5.53 KCAL/MOL
REMARK 922        TOTAL FREE ENERGY PREDICTED BY IDOCK:  -10.76 KCAL/MOL
REMARK 923 INTER-LIGAND FREE ENERGY PREDICTED BY IDOCK:   -8.95 KCAL/MOL
REMARK 924 INTRA-LIGAND FREE ENERGY PREDICTED BY IDOCK:   -1.81 KCAL/MOL
REMARK 927      BINDING AFFINITY PREDICTED BY RF-SCORE:    0.00 PKD
ROOT
HETATM    1  O   UNL     1     -13.428  10.268  72.017  1.00  0.00    -0.406 OA 
HETATM    2  C   UNL     1     -12.733   9.045  72.030  1.00  0.00    -0.398 C  
HETATM    3  H   UNL     1     -14.332  10.112  72.260  1.00  0.00     0.000 HD 
ENDROOT
BRANCH   2   4
HETATM    4  N   UNL     1     -11.368   9.280  71.663  1.00  0.00    -0.381 N  
HETATM    5  C   UNL     1     -11.012   9.525  70.280  1.00  0.00    -0.269 C  
HETATM    6  O   UNL     1     -10.469   8.060  73.426  1.00  0.00    -0.219 OA 
HETATM    7  C   UNL     1      -9.696   8.717  70.210  1.00  0.00    -0.174 C  
HETATM    8  N   UNL     1      -9.338   8.380  71.479  1.00  0.00    -0.179 NA 
HETATM    9  O   UNL     1      -9.023   8.467  69.221  1.00  0.00    -0.144 OA 
HETATM   10  C   UNL     1     -10.384   8.559  72.315  1.00  0.00    -0.332 C  
BRANCH   5  11
HETATM   11  N   UNL     1     -10.739  10.922  70.052  1.00  0.00    -0.463 N  
HETATM   12  H   UNL     1      -9.779  11.262  70.104  1.00  0.00     0.000 HD 
BRANCH  11  13
HETATM   13  C   UNL     1     -11.747  11.797  69.767  1.00  0.00    -0.335 C  
HETATM   14  O   UNL     1     -12.756  11.491  69.145  1.00  0.00    -0.051 OA 
BRANCH  13  15
HETATM   15  N   UNL     1     -11.541  13.030  70.326  1.00  0.00    -0.529 N  
HETATM   16  H   UNL     1     -10.813  13.157  71.028  1.00  0.00     0.000 HD 
BRANCH  15  17
HETATM   17  C   UNL     1     -12.350  14.142  69.923  1.00  0.00    -0.327 C  
BRANCH  17  18
HETATM   18  N   UNL     1     -12.266  14.391  68.508  1.00  0.00    -0.588 N  
HETATM   19  H   UNL     1     -12.758  13.788  67.849  1.00  0.00     0.000 HD 
BRANCH  18  20
HETATM   20  C   UNL     1     -11.519  15.446  68.053  1.00  0.00    -0.326 C  
HETATM   21  O   UNL     1     -11.524  16.556  68.568  1.00  0.00    -0.317 OA 
BRANCH  20  22
HETATM   22  N   UNL     1     -10.753  15.116  66.961  1.00  0.00    -0.302 N  
HETATM   23  H   UNL     1     -10.021  15.733  66.609  1.00  0.00     0.000 HD 
BRANCH  22  24
HETATM   24  C   UNL     1     -11.041  13.851  66.342  1.00  0.00    -0.309 C  
HETATM   25  N   UNL     1     -11.384  13.885  64.941  1.00  0.00    -0.333 N  
HETATM   26  O   UNL     1      -8.914  12.752  67.032  1.00  0.00    -0.208 OA 
HETATM   27  C   UNL     1     -10.874  12.789  64.276  1.00  0.00    -0.390 C  
HETATM   28  N   UNL     1      -9.975  12.175  65.086  1.00  0.00    -0.252 NA 
HETATM   29  O   UNL     1     -11.135  12.444  63.136  1.00  0.00    -0.379 OA 
HETATM   30  C   UNL     1      -9.834  12.887  66.240  1.00  0.00    -0.273 C  
BRANCH  25  31
HETATM   31  C   UNL     1     -12.362  14.766  64.387  1.00  0.00    -0.368 C  
HETATM   32  H   UNL     1     -12.386  16.568  63.687  1.00  0.00     0.000 HD 
HETATM   33  O   UNL     1     -11.735  15.982  64.056  1.00  0.00    -0.696 OA 
ENDBRANCH  25  31
ENDBRANCH  22  24
ENDBRANCH  20  22
ENDBRANCH  18  20
ENDBRANCH  17  18
ENDBRANCH  15  17
ENDBRANCH  13  15
ENDBRANCH  11  13
ENDBRANCH   5  11
ENDBRANCH   2   4
TORSDOF 10
ENDMDL
MODEL      109
REMARK 921   NORMALIZED FREE ENERGY PREDICTED BY IDOCK:   -5.52 KCAL/MOL
REMARK 922        TOTAL FREE ENERGY PREDICTED BY IDOCK:  -10.75 KCAL/MOL
REMARK 923 INTER-LIGAND FREE ENERGY PREDICTED BY IDOCK:   -8.64 KCAL/MOL
REMARK 924 INTRA-LIGAND FREE ENERGY PREDICTED BY IDOCK:   -2.11 KCAL/MOL
REMARK 927      BINDING AFFINITY PREDICTED BY RF-SCORE:    0.00 PKD
ROOT
HETATM    1  O   UNL     1     -12.368  14.715  63.553  1.00  0.00    -1.059 OA 
HETATM    2  C   UNL     1     -12.656  14.447  64.904  1.00  0.00    -0.286 C  
HETATM    3  H   UNL     1     -12.730  15.562  63.322  1.00  0.00     0.000 HD 
ENDROOT
BRANCH   2   4
HETATM    4  N   UNL     1     -12.111  13.170  65.253  1.00  0.00    -0.401 N  
HETATM    5  C   UNL     1     -10.924  13.079  66.079  1.00  0.00    -0.275 C  
HETATM    6  O   UNL     1     -12.914  12.082  63.362  1.00  0.00    -0.772 OA 
HETATM    7  C   UNL     1     -10.204  11.914  65.361  1.00  0.00    -0.263 C  
HETATM    8  N   UNL     1     -11.081  11.346  64.490  1.00  0.00    -0.278 NA 
HETATM    9  O   UNL     1      -9.074  11.495  65.563  1.00  0.00    -0.187 OA 
HETATM   10  C   UNL     1     -12.137  12.167  64.300  1.00  0.00    -0.375 C  
BRANCH   5  11
HETATM   11  N   UNL     1     -11.255  12.690  67.427  1.00  0.00    -0.274 N  
HETATM   12  H   UNL     1     -11.548  11.732  67.617  1.00  0.00     0.000 HD 
BRANCH  11  13
HETATM   13  C   UNL     1     -11.182  13.587  68.453  1.00  0.00    -0.278 C  
HETATM   14  O   UNL     1     -11.103  14.797  68.293  1.00  0.00    -0.255 OA 
BRANCH  13  15
HETATM   15  N   UNL     1     -11.289  12.986  69.680  1.00  0.00    -0.477 N  
HETATM   16  H   UNL     1     -10.802  13.379  70.485  1.00  0.00     0.000 HD 
BRANCH  15  17
HETATM   17  C   UNL     1     -12.086  11.805  69.830  1.00  0.00    -0.287 C  
BRANCH  17  18
HETATM   18  N   UNL     1     -11.409  10.785  70.587  1.00  0.00    -0.421 N  
HETATM   19  H   UNL     1     -11.634  10.640  71.572  1.00  0.00     0.000 HD 
BRANCH  18  20
HETATM   20  C   UNL     1     -10.459  10.011  69.975  1.00  0.00    -0.287 C  
HETATM   21  O   UNL     1     -10.070  10.189  68.829  1.00  0.00    -0.171 OA 
BRANCH  20  22
HETATM   22  N   UNL     1      -9.982   9.016  70.796  1.00  0.00    -0.224 N  
HETATM   23  H   UNL     1      -9.173   9.159  71.401  1.00  0.00     0.000 HD 
BRANCH  22  24
HETATM   24  C   UNL     1     -10.687   7.764  70.752  1.00  0.00    -0.226 C  
HETATM   25  N   UNL     1      -9.900   6.577  70.977  1.00  0.00    -0.179 N  
HETATM   26  O   UNL     1     -12.413   8.399  72.434  1.00  0.00    -0.359 OA 
HETATM   27  C   UNL     1     -10.612   5.634  71.690  1.00  0.00    -0.241 C  
HETATM   28  N   UNL     1     -11.721   6.228  72.199  1.00  0.00    -0.316 NA 
HETATM   29  O   UNL     1     -10.291   4.474  71.884  1.00  0.00    -0.189 OA 
HETATM   30  C   UNL     1     -11.713   7.557  71.892  1.00  0.00    -0.284 C  
BRANCH  25  31
HETATM   31  C   UNL     1      -8.673   6.300  70.299  1.00  0.00    -0.142 C  
HETATM   32  H   UNL     1      -7.893   6.734  68.585  1.00  0.00     0.000 HD 
HETATM   33  O   UNL     1      -8.708   6.918  69.036  1.00  0.00    -0.131 OA 
ENDBRANCH  25  31
ENDBRANCH  22  24
ENDBRANCH  20  22
ENDBRANCH  18  20
ENDBRANCH  17  18
ENDBRANCH  15  17
ENDBRANCH  13  15
ENDBRANCH  11  13
ENDBRANCH   5  11
ENDBRANCH   2   4
TORSDOF 10
ENDMDL
MODEL      110
REMARK 921   NORMALIZED FREE ENERGY PREDICTED BY IDOCK:   -5.52 KCAL/MOL
REMARK 922        TOTAL FREE ENERGY PREDICTED BY IDOCK:  -10.74 KCAL/MOL
REMARK 923 INTER-LIGAND FREE ENERGY PREDICTED BY IDOCK:   -8.43 KCAL/MOL
REMARK 924 INTRA-LIGAND FREE ENERGY PREDICTED BY IDOCK:   -2.32 KCAL/MOL
REMARK 927      BINDING AFFINITY PREDICTED BY RF-SCORE:    0.00 PKD
ROOT
HETATM    1  O   UNL     1     -12.586  14.867  63.611  1.00  0.00    -1.006 OA 
HETATM    2  C   UNL     1     -12.327  14.269  64.858  1.00  0.00    -0.425 C  
HETATM    3  H   UNL     1     -13.042  15.688  63.750  1.00  0.00     0.000 HD 
ENDROOT
BRANCH   2   4
HETATM    4  N   UNL     1     -11.641  13.030  64.647  1.00  0.00    -0.331 N  
HETATM    5  C   UNL     1     -10.197  13.001  64.528  1.00  0.00    -0.308 C  
HETATM    6  O   UNL     1     -13.423  11.989  63.578  1.00  0.00    -0.483 OA 
HETATM    7  C   UNL     1     -10.056  11.955  63.399  1.00  0.00    -0.438 C  
HETATM    8  N   UNL     1     -11.267  11.361  63.218  1.00  0.00    -0.195 NA 
HETATM    9  O   UNL     1      -9.041  11.632  62.800  1.00  0.00    -0.321 OA 
HETATM   10  C   UNL     1     -12.232  12.089  63.822  1.00  0.00    -0.498 C  
BRANCH   5  11
HETATM   11  N   UNL     1      -9.585  12.501  65.734  1.00  0.00    -0.410 N  
HETATM   12  H   UNL     1      -9.078  11.617  65.712  1.00  0.00     0.000 HD 
BRANCH  11  13
HETATM   13  C   UNL     1      -9.674  13.195  66.906  1.00  0.00    -0.243 C  
HETATM   14  O   UNL     1      -9.416  14.386  67.011  1.00  0.00    -0.229 OA 
BRANCH  13  15
HETATM   15  N   UNL     1     -10.163  12.428  67.931  1.00  0.00    -0.207 N  
HETATM   16  H   UNL     1      -9.533  12.084  68.655  1.00  0.00     0.000 HD 
BRANCH  15  17
HETATM   17  C   UNL     1     -11.559  12.110  67.983  1.00  0.00    -0.348 C  
BRANCH  17  18
HETATM   18  N   UNL     1     -11.799  10.813  68.560  1.00  0.00    -0.453 N  
HETATM   19  H   UNL     1     -12.726  10.569  68.910  1.00  0.00     0.000 HD 
BRANCH  18  20
HETATM   20  C   UNL     1     -10.773   9.908  68.634  1.00  0.00    -0.226 C  
HETATM   21  O   UNL     1      -9.938   9.898  69.529  1.00  0.00    -0.195 OA 
BRANCH  20  22
HETATM   22  N   UNL     1     -10.792   9.004  67.599  1.00  0.00    -0.481 N  
HETATM   23  H   UNL     1     -11.612   8.882  67.005  1.00  0.00     0.000 HD 
BRANCH  22  24
HETATM   24  C   UNL     1      -9.590   8.241  67.401  1.00  0.00    -0.160 C  
HETATM   25  N   UNL     1      -9.727   7.006  66.669  1.00  0.00    -0.181 N  
HETATM   26  O   UNL     1      -8.285  10.103  66.380  1.00  0.00    -0.118 OA 
HETATM   27  C   UNL     1      -8.631   6.779  65.862  1.00  0.00    -0.147 C  
HETATM   28  N   UNL     1      -7.903   7.921  65.796  1.00  0.00    -0.097 NA 
HETATM   29  O   UNL     1      -8.370   5.750  65.263  1.00  0.00    -0.137 OA 
HETATM   30  C   UNL     1      -8.537   8.912  66.485  1.00  0.00    -0.124 C  
BRANCH  25  31
HETATM   31  C   UNL     1     -10.714   6.016  66.965  1.00  0.00    -0.337 C  
HETATM   32  H   UNL     1     -11.867   5.592  68.458  1.00  0.00     0.000 HD 
HETATM   33  O   UNL     1     -11.211   6.251  68.261  1.00  0.00    -0.328 OA 
ENDBRANCH  25  31
ENDBRANCH  22  24
ENDBRANCH  20  22
ENDBRANCH  18  20
ENDBRANCH  17  18
ENDBRANCH  15  17
ENDBRANCH  13  15
ENDBRANCH  11  13
ENDBRANCH   5  11
ENDBRANCH   2   4
TORSDOF 10
ENDMDL
MODEL      111
REMARK 921   NORMALIZED FREE ENERGY PREDICTED BY IDOCK:   -5.51 KCAL/MOL
REMARK 922        TOTAL FREE ENERGY PREDICTED BY IDOCK:  -10.73 KCAL/MOL
REMARK 923 INTER-LIGAND FREE ENERGY PREDICTED BY IDOCK:   -8.89 KCAL/MOL
REMARK 924 INTRA-LIGAND FREE ENERGY PREDICTED BY IDOCK:   -1.84 KCAL/MOL
REMARK 927      BINDING AFFINITY PREDICTED BY RF-SCORE:    0.00 PKD
ROOT
HETATM    1  O   UNL     1      -9.742  12.976  67.690  1.00  0.00    -0.202 OA 
HETATM    2  C   UNL     1      -9.648  13.304  66.325  1.00  0.00    -0.235 C  
HETATM    3  H   UNL     1      -8.935  13.225  68.124  1.00  0.00     0.000 HD 
ENDROOT
BRANCH   2   4
HETATM    4  N   UNL     1     -10.865  12.927  65.670  1.00  0.00    -0.270 N  
HETATM    5  C   UNL     1     -10.900  12.749  64.232  1.00  0.00    -0.390 C  
HETATM    6  O   UNL     1     -12.259  13.880  67.268  1.00  0.00    -0.394 OA 
HETATM    7  C   UNL     1     -12.276  13.387  63.932  1.00  0.00    -0.415 C  
HETATM    8  N   UNL     1     -12.923  13.575  65.114  1.00  0.00    -0.734 NA 
HETATM    9  O   UNL     1     -12.766  13.627  62.839  1.00  0.00    -0.577 OA 
HETATM   10  C   UNL     1     -12.051  13.463  66.139  1.00  0.00    -0.429 C  
BRANCH   5  11
HETATM   11  N   UNL     1     -10.924  11.351  63.881  1.00  0.00    -0.422 N  
HETATM   12  H   UNL     1     -11.818  10.871  63.789  1.00  0.00     0.000 HD 
BRANCH  11  13
HETATM   13  C   UNL     1      -9.765  10.662  63.668  1.00  0.00    -0.330 C  
HETATM   14  O   UNL     1      -8.900  11.014  62.878  1.00  0.00    -0.242 OA 
BRANCH  13  15
HETATM   15  N   UNL     1      -9.644   9.578  64.497  1.00  0.00    -0.407 N  
HETATM   16  H   UNL     1     -10.196   8.738  64.323  1.00  0.00     0.000 HD 
BRANCH  15  17
HETATM   17  C   UNL     1      -8.740   9.625  65.608  1.00  0.00    -0.141 C  
BRANCH  17  18
HETATM   18  N   UNL     1      -9.427   9.811  66.859  1.00  0.00    -0.155 N  
HETATM   19  H   UNL     1      -9.778  10.732  67.122  1.00  0.00     0.000 HD 
BRANCH  18  20
HETATM   20  C   UNL     1      -9.606   8.740  67.695  1.00  0.00    -0.144 C  
HETATM   21  O   UNL     1      -8.784   7.846  67.842  1.00  0.00    -0.125 OA 
BRANCH  20  22
HETATM   22  N   UNL     1     -10.808   8.788  68.362  1.00  0.00    -0.451 N  
HETATM   23  H   UNL     1     -11.672   9.065  67.895  1.00  0.00     0.000 HD 
BRANCH  22  24
HETATM   24  C   UNL     1     -10.777   8.425  69.752  1.00  0.00    -0.211 C  
HETATM   25  N   UNL     1     -11.656   9.162  70.627  1.00  0.00    -0.260 N  
HETATM   26  O   UNL     1     -11.210   5.999  69.379  1.00  0.00    -0.395 OA 
HETATM   27  C   UNL     1     -12.175   8.349  71.613  1.00  0.00    -0.315 C  
HETATM   28  N   UNL     1     -11.922   7.058  71.282  1.00  0.00    -0.327 NA 
HETATM   29  O   UNL     1     -12.801   8.707  72.596  1.00  0.00    -0.361 OA 
HETATM   30  C   UNL     1     -11.310   7.006  70.065  1.00  0.00    -0.249 C  
BRANCH  25  31
HETATM   31  C   UNL     1     -11.737  10.588  70.649  1.00  0.00    -0.357 C  
HETATM   32  H   UNL     1     -12.271  11.979  69.417  1.00  0.00     0.000 HD 
HETATM   33  O   UNL     1     -12.217  11.030  69.402  1.00  0.00    -0.350 OA 
ENDBRANCH  25  31
ENDBRANCH  22  24
ENDBRANCH  20  22
ENDBRANCH  18  20
ENDBRANCH  17  18
ENDBRANCH  15  17
ENDBRANCH  13  15
ENDBRANCH  11  13
ENDBRANCH   5  11
ENDBRANCH   2   4
TORSDOF 10
ENDMDL
MODEL      112
REMARK 921   NORMALIZED FREE ENERGY PREDICTED BY IDOCK:   -5.51 KCAL/MOL
REMARK 922        TOTAL FREE ENERGY PREDICTED BY IDOCK:  -10.73 KCAL/MOL
REMARK 923 INTER-LIGAND FREE ENERGY PREDICTED BY IDOCK:   -8.99 KCAL/MOL
REMARK 924 INTRA-LIGAND FREE ENERGY PREDICTED BY IDOCK:   -1.74 KCAL/MOL
REMARK 927      BINDING AFFINITY PREDICTED BY RF-SCORE:    0.00 PKD
ROOT
HETATM    1  O   UNL     1     -13.807   7.358  70.820  1.00  0.00    -0.577 OA 
HETATM    2  C   UNL     1     -12.882   6.594  71.556  1.00  0.00    -0.143 C  
HETATM    3  H   UNL     1     -14.458   6.776  70.445  1.00  0.00     0.000 HD 
ENDROOT
BRANCH   2   4
HETATM    4  N   UNL     1     -11.900   7.471  72.121  1.00  0.00    -0.295 N  
HETATM    5  C   UNL     1     -11.523   8.690  71.436  1.00  0.00    -0.289 C  
HETATM    6  O   UNL     1     -10.783   5.799  73.288  1.00  0.00    -0.236 OA 
HETATM    7  C   UNL     1     -10.001   8.672  71.705  1.00  0.00    -0.282 C  
HETATM    8  N   UNL     1      -9.748   7.719  72.643  1.00  0.00    -0.196 NA 
HETATM    9  O   UNL     1      -9.150   9.414  71.239  1.00  0.00    -0.277 OA 
HETATM   10  C   UNL     1     -10.818   6.904  72.772  1.00  0.00    -0.272 C  
BRANCH   5  11
HETATM   11  N   UNL     1     -12.115   9.845  72.063  1.00  0.00    -0.180 N  
HETATM   12  H   UNL     1     -12.000   9.987  73.066  1.00  0.00     0.000 HD 
BRANCH  11  13
HETATM   13  C   UNL     1     -12.828  10.751  71.332  1.00  0.00    -0.452 C  
HETATM   14  O   UNL     1     -13.048  10.636  70.134  1.00  0.00    -0.163 OA 
BRANCH  13  15
HETATM   15  N   UNL     1     -13.336  11.761  72.106  1.00  0.00    -0.551 N  
HETATM   16  H   UNL     1     -13.677  11.561  73.046  1.00  0.00     0.000 HD 
BRANCH  15  17
HETATM   17  C   UNL     1     -13.390  13.098  71.594  1.00  0.00    -0.308 C  
BRANCH  17  18
HETATM   18  N   UNL     1     -12.189  13.456  70.885  1.00  0.00    -0.448 N  
HETATM   19  H   UNL     1     -11.493  12.746  70.660  1.00  0.00     0.000 HD 
BRANCH  18  20
HETATM   20  C   UNL     1     -11.989  14.761  70.516  1.00  0.00    -0.312 C  
HETATM   21  O   UNL     1     -11.561  15.624  71.271  1.00  0.00    -0.351 OA 
BRANCH  20  22
HETATM   22  N   UNL     1     -12.310  14.990  69.199  1.00  0.00    -0.587 N  
HETATM   23  H   UNL     1     -13.277  15.093  68.890  1.00  0.00     0.000 HD 
BRANCH  22  24
HETATM   24  C   UNL     1     -11.207  15.077  68.283  1.00  0.00    -0.299 C  
HETATM   25  N   UNL     1     -11.463  14.656  66.928  1.00  0.00    -0.357 N  
HETATM   26  O   UNL     1     -10.717  17.482  68.720  1.00  0.00    -0.285 OA 
HETATM   27  C   UNL     1     -10.782  15.443  66.022  1.00  0.00    -0.322 C  
HETATM   28  N   UNL     1     -10.314  16.538  66.672  1.00  0.00    -0.299 NA 
HETATM   29  O   UNL     1     -10.654  15.234  64.828  1.00  0.00    -0.386 OA 
HETATM   30  C   UNL     1     -10.735  16.518  67.969  1.00  0.00    -0.343 C  
BRANCH  25  31
HETATM   31  C   UNL     1     -12.089  13.417  66.589  1.00  0.00    -0.373 C  
HETATM   32  H   UNL     1     -12.508  11.765  67.503  1.00  0.00     0.000 HD 
HETATM   33  O   UNL     1     -12.092  12.590  67.727  1.00  0.00    -0.409 OA 
ENDBRANCH  25  31
ENDBRANCH  22  24
ENDBRANCH  20  22
ENDBRANCH  18  20
ENDBRANCH  17  18
ENDBRANCH  15  17
ENDBRANCH  13  15
ENDBRANCH  11  13
ENDBRANCH   5  11
ENDBRANCH   2   4
TORSDOF 10
ENDMDL
MODEL      113
REMARK 921   NORMALIZED FREE ENERGY PREDICTED BY IDOCK:   -5.50 KCAL/MOL
REMARK 922        TOTAL FREE ENERGY PREDICTED BY IDOCK:  -10.71 KCAL/MOL
REMARK 923 INTER-LIGAND FREE ENERGY PREDICTED BY IDOCK:   -9.09 KCAL/MOL
REMARK 924 INTRA-LIGAND FREE ENERGY PREDICTED BY IDOCK:   -1.62 KCAL/MOL
REMARK 927      BINDING AFFINITY PREDICTED BY RF-SCORE:    0.00 PKD
ROOT
HETATM    1  O   UNL     1     -10.549  19.391  65.522  1.00  0.00    -0.493 OA 
HETATM    2  C   UNL     1      -9.657  19.493  66.606  1.00  0.00    -0.363 C  
HETATM    3  H   UNL     1     -10.681  20.254  65.149  1.00  0.00     0.000 HD 
ENDROOT
BRANCH   2   4
HETATM    4  N   UNL     1      -9.459  18.191  67.170  1.00  0.00    -0.259 N  
HETATM    5  C   UNL     1     -10.490  17.179  67.062  1.00  0.00    -0.282 C  
HETATM    6  O   UNL     1      -7.992  18.908  68.825  1.00  0.00    -0.334 OA 
HETATM    7  C   UNL     1     -10.380  16.554  68.471  1.00  0.00    -0.289 C  
HETATM    8  N   UNL     1      -9.245  17.024  69.056  1.00  0.00    -0.207 NA 
HETATM    9  O   UNL     1     -11.117  15.723  68.981  1.00  0.00    -0.244 OA 
HETATM   10  C   UNL     1      -8.789  18.099  68.377  1.00  0.00    -0.293 C  
BRANCH   5  11
HETATM   11  N   UNL     1     -10.152  16.195  66.064  1.00  0.00    -0.329 N  
HETATM   12  H   UNL     1      -9.277  15.678  66.144  1.00  0.00     0.000 HD 
BRANCH  11  13
HETATM   13  C   UNL     1     -10.987  15.945  65.014  1.00  0.00    -0.412 C  
HETATM   14  O   UNL     1     -11.329  16.794  64.202  1.00  0.00    -1.194 OA 
BRANCH  13  15
HETATM   15  N   UNL     1     -11.334  14.623  64.926  1.00  0.00    -0.385 N  
HETATM   16  H   UNL     1     -10.893  13.938  65.539  1.00  0.00     0.000 HD 
BRANCH  15  17
HETATM   17  C   UNL     1     -12.315  14.203  63.970  1.00  0.00    -0.275 C  
BRANCH  17  18
HETATM   18  N   UNL     1     -12.004  12.919  63.400  1.00  0.00    -0.642 N  
HETATM   19  H   UNL     1     -12.677  12.447  62.795  1.00  0.00     0.000 HD 
BRANCH  18  20
HETATM   20  C   UNL     1     -10.796  12.335  63.675  1.00  0.00    -0.469 C  
HETATM   21  O   UNL     1      -9.733  12.941  63.686  1.00  0.00    -0.078 OA 
BRANCH  20  22
HETATM   22  N   UNL     1     -10.911  10.992  63.950  1.00  0.00    -0.512 N  
HETATM   23  H   UNL     1     -11.257  10.328  63.259  1.00  0.00     0.000 HD 
BRANCH  22  24
HETATM   24  C   UNL     1     -10.515  10.579  65.269  1.00  0.00    -0.162 C  
HETATM   25  N   UNL     1      -9.106  10.654  65.569  1.00  0.00    -0.182 N  
HETATM   26  O   UNL     1     -12.082  12.093  66.479  1.00  0.00    -0.627 OA 
HETATM   27  C   UNL     1      -8.893  11.038  66.877  1.00  0.00    -0.149 C  
HETATM   28  N   UNL     1     -10.064  11.498  67.385  1.00  0.00    -0.189 NA 
HETATM   29  O   UNL     1      -7.832  11.021  67.476  1.00  0.00    -0.111 OA 
HETATM   30  C   UNL     1     -11.022  11.489  66.414  1.00  0.00    -0.284 C  
BRANCH  25  31
HETATM   31  C   UNL     1      -8.088  10.116  64.724  1.00  0.00    -0.153 C  
HETATM   32  H   UNL     1      -7.739   8.424  63.855  1.00  0.00     0.000 HD 
HETATM   33  O   UNL     1      -8.417   8.782  64.417  1.00  0.00    -0.171 OA 
ENDBRANCH  25  31
ENDBRANCH  22  24
ENDBRANCH  20  22
ENDBRANCH  18  20
ENDBRANCH  17  18
ENDBRANCH  15  17
ENDBRANCH  13  15
ENDBRANCH  11  13
ENDBRANCH   5  11
ENDBRANCH   2   4
TORSDOF 10
ENDMDL
MODEL      114
REMARK 921   NORMALIZED FREE ENERGY PREDICTED BY IDOCK:   -5.46 KCAL/MOL
REMARK 922        TOTAL FREE ENERGY PREDICTED BY IDOCK:  -10.66 KCAL/MOL
REMARK 923 INTER-LIGAND FREE ENERGY PREDICTED BY IDOCK:   -9.01 KCAL/MOL
REMARK 924 INTRA-LIGAND FREE ENERGY PREDICTED BY IDOCK:   -1.64 KCAL/MOL
REMARK 927      BINDING AFFINITY PREDICTED BY RF-SCORE:    0.00 PKD
ROOT
HETATM    1  O   UNL     1     -12.430  14.874  63.925  1.00  0.00    -1.009 OA 
HETATM    2  C   UNL     1     -12.908  14.272  65.104  1.00  0.00    -0.238 C  
HETATM    3  H   UNL     1     -12.833  15.729  63.829  1.00  0.00     0.000 HD 
ENDROOT
BRANCH   2   4
HETATM    4  N   UNL     1     -12.301  12.983  65.247  1.00  0.00    -0.464 N  
HETATM    5  C   UNL     1     -11.143  12.807  66.101  1.00  0.00    -0.290 C  
HETATM    6  O   UNL     1     -12.965  12.211  63.158  1.00  0.00    -0.659 OA 
HETATM    7  C   UNL     1     -10.328  11.828  65.224  1.00  0.00    -0.274 C  
HETATM    8  N   UNL     1     -11.137  11.380  64.226  1.00  0.00    -0.325 NA 
HETATM    9  O   UNL     1      -9.184  11.438  65.404  1.00  0.00    -0.210 OA 
HETATM   10  C   UNL     1     -12.231  12.167  64.132  1.00  0.00    -0.413 C  
BRANCH   5  11
HETATM   11  N   UNL     1     -11.502  12.167  67.342  1.00  0.00    -0.328 N  
HETATM   12  H   UNL     1     -11.999  11.277  67.323  1.00  0.00     0.000 HD 
BRANCH  11  13
HETATM   13  C   UNL     1     -11.187  12.737  68.541  1.00  0.00    -0.279 C  
HETATM   14  O   UNL     1     -11.063  13.942  68.709  1.00  0.00    -0.245 OA 
BRANCH  13  15
HETATM   15  N   UNL     1     -11.105  11.814  69.551  1.00  0.00    -0.439 N  
HETATM   16  H   UNL     1     -10.207  11.391  69.784  1.00  0.00     0.000 HD 
BRANCH  15  17
HETATM   17  C   UNL     1     -12.282  11.444  70.279  1.00  0.00    -0.349 C  
BRANCH  17  18
HETATM   18  N   UNL     1     -12.109  10.211  71.002  1.00  0.00    -0.345 N  
HETATM   19  H   UNL     1     -12.755   9.959  71.750  1.00  0.00     0.000 HD 
BRANCH  18  20
HETATM   20  C   UNL     1     -11.071   9.380  70.675  1.00  0.00    -0.289 C  
HETATM   21  O   UNL     1      -9.899   9.621  70.932  1.00  0.00    -0.245 OA 
BRANCH  20  22
HETATM   22  N   UNL     1     -11.492   8.236  70.039  1.00  0.00    -0.457 N  
HETATM   23  H   UNL     1     -12.472   8.081  69.802  1.00  0.00     0.000 HD 
BRANCH  22  24
HETATM   24  C   UNL     1     -10.473   7.272  69.725  1.00  0.00    -0.227 C  
HETATM   25  N   UNL     1     -10.465   6.067  70.518  1.00  0.00    -0.226 N  
HETATM   26  O   UNL     1     -11.027   7.112  67.301  1.00  0.00    -0.310 OA 
HETATM   27  C   UNL     1     -10.116   4.970  69.756  1.00  0.00    -0.267 C  
HETATM   28  N   UNL     1     -10.168   5.324  68.447  1.00  0.00    -0.160 NA 
HETATM   29  O   UNL     1      -9.852   3.854  70.166  1.00  0.00    -0.200 OA 
HETATM   30  C   UNL     1     -10.613   6.608  68.334  1.00  0.00    -0.242 C  
BRANCH  25  31
HETATM   31  C   UNL     1     -10.514   6.058  71.946  1.00  0.00    -0.218 C  
HETATM   32  H   UNL     1     -11.891   6.159  73.299  1.00  0.00     0.000 HD 
HETATM   33  O   UNL     1     -11.858   6.165  72.349  1.00  0.00    -0.303 OA 
ENDBRANCH  25  31
ENDBRANCH  22  24
ENDBRANCH  20  22
ENDBRANCH  18  20
ENDBRANCH  17  18
ENDBRANCH  15  17
ENDBRANCH  13  15
ENDBRANCH  11  13
ENDBRANCH   5  11
ENDBRANCH   2   4
TORSDOF 10
ENDMDL
MODEL      115
REMARK 921   NORMALIZED FREE ENERGY PREDICTED BY IDOCK:   -5.46 KCAL/MOL
REMARK 922        TOTAL FREE ENERGY PREDICTED BY IDOCK:  -10.65 KCAL/MOL
REMARK 923 INTER-LIGAND FREE ENERGY PREDICTED BY IDOCK:   -8.57 KCAL/MOL
REMARK 924 INTRA-LIGAND FREE ENERGY PREDICTED BY IDOCK:   -2.08 KCAL/MOL
REMARK 927      BINDING AFFINITY PREDICTED BY RF-SCORE:    0.00 PKD
ROOT
HETATM    1  O   UNL     1     -11.001  11.324  69.233  1.00  0.00    -0.232 OA 
HETATM    2  C   UNL     1     -11.257  10.539  68.093  1.00  0.00    -0.293 C  
HETATM    3  H   UNL     1     -11.818  11.474  69.693  1.00  0.00     0.000 HD 
ENDROOT
BRANCH   2   4
HETATM    4  N   UNL     1     -10.025  10.312  67.398  1.00  0.00    -0.182 N  
HETATM    5  C   UNL     1     -10.030   9.938  65.998  1.00  0.00    -0.268 C  
HETATM    6  O   UNL     1      -8.836   9.675  69.291  1.00  0.00    -0.143 OA 
HETATM    7  C   UNL     1      -8.891   8.893  66.011  1.00  0.00    -0.172 C  
HETATM    8  N   UNL     1      -8.245   8.985  67.205  1.00  0.00    -0.104 NA 
HETATM    9  O   UNL     1      -8.546   8.150  65.104  1.00  0.00    -0.147 OA 
HETATM   10  C   UNL     1      -8.995   9.690  68.081  1.00  0.00    -0.123 C  
BRANCH   5  11
HETATM   11  N   UNL     1      -9.662  11.051  65.159  1.00  0.00    -0.238 N  
HETATM   12  H   UNL     1      -8.873  11.640  65.423  1.00  0.00     0.000 HD 
BRANCH  11  13
HETATM   13  C   UNL     1     -10.354  11.326  64.015  1.00  0.00    -0.371 C  
HETATM   14  O   UNL     1      -9.959  11.034  62.895  1.00  0.00    -0.299 OA 
BRANCH  13  15
HETATM   15  N   UNL     1     -11.576  11.892  64.269  1.00  0.00    -0.342 N  
HETATM   16  H   UNL     1     -11.962  11.871  65.213  1.00  0.00     0.000 HD 
BRANCH  15  17
HETATM   17  C   UNL     1     -12.311  12.512  63.207  1.00  0.00    -0.371 C  
BRANCH  17  18
HETATM   18  N   UNL     1     -12.314  13.947  63.314  1.00  0.00    -1.148 N  
HETATM   19  H   UNL     1     -12.439  14.525  62.482  1.00  0.00     0.000 HD 
BRANCH  18  20
HETATM   20  C   UNL     1     -12.147  14.532  64.542  1.00  0.00    -0.484 C  
HETATM   21  O   UNL     1     -12.942  14.416  65.465  1.00  0.00    -0.523 OA 
BRANCH  20  22
HETATM   22  N   UNL     1     -10.979  15.253  64.627  1.00  0.00    -0.642 N  
HETATM   23  H   UNL     1     -10.305  15.279  63.862  1.00  0.00     0.000 HD 
BRANCH  22  24
HETATM   24  C   UNL     1     -10.764  15.969  65.855  1.00  0.00    -0.280 C  
HETATM   25  N   UNL     1      -9.564  15.641  66.585  1.00  0.00    -0.234 N  
HETATM   26  O   UNL     1     -10.979  18.241  64.854  1.00  0.00    -0.660 OA 
HETATM   27  C   UNL     1      -9.022  16.762  67.182  1.00  0.00    -0.204 C  
HETATM   28  N   UNL     1      -9.625  17.860  66.662  1.00  0.00    -0.298 NA 
HETATM   29  O   UNL     1      -8.120  16.784  68.002  1.00  0.00    -0.179 OA 
HETATM   30  C   UNL     1     -10.501  17.485  65.686  1.00  0.00    -0.149 C  
BRANCH  25  31
HETATM   31  C   UNL     1      -9.165  14.305  66.896  1.00  0.00    -0.254 C  
HETATM   32  H   UNL     1      -9.953  12.782  67.789  1.00  0.00     0.000 HD 
HETATM   33  O   UNL     1     -10.217  13.671  67.582  1.00  0.00    -0.234 OA 
ENDBRANCH  25  31
ENDBRANCH  22  24
ENDBRANCH  20  22
ENDBRANCH  18  20
ENDBRANCH  17  18
ENDBRANCH  15  17
ENDBRANCH  13  15
ENDBRANCH  11  13
ENDBRANCH   5  11
ENDBRANCH   2   4
TORSDOF 10
ENDMDL
MODEL      116
REMARK 921   NORMALIZED FREE ENERGY PREDICTED BY IDOCK:   -5.46 KCAL/MOL
REMARK 922        TOTAL FREE ENERGY PREDICTED BY IDOCK:  -10.65 KCAL/MOL
REMARK 923 INTER-LIGAND FREE ENERGY PREDICTED BY IDOCK:   -9.40 KCAL/MOL
REMARK 924 INTRA-LIGAND FREE ENERGY PREDICTED BY IDOCK:   -1.25 KCAL/MOL
REMARK 927      BINDING AFFINITY PREDICTED BY RF-SCORE:    0.00 PKD
ROOT
HETATM    1  O   UNL     1     -12.093   6.766  69.681  1.00  0.00    -0.635 OA 
HETATM    2  C   UNL     1     -10.953   6.312  70.370  1.00  0.00    -0.322 C  
HETATM    3  H   UNL     1     -12.298   6.153  68.985  1.00  0.00     0.000 HD 
ENDROOT
BRANCH   2   4
HETATM    4  N   UNL     1     -10.644   7.236  71.420  1.00  0.00    -0.212 N  
HETATM    5  C   UNL     1      -9.519   8.140  71.294  1.00  0.00    -0.159 C  
HETATM    6  O   UNL     1     -11.553   5.931  73.115  1.00  0.00    -0.115 OA 
HETATM    7  C   UNL     1      -8.982   8.080  72.742  1.00  0.00    -0.228 C  
HETATM    8  N   UNL     1      -9.912   7.455  73.513  1.00  0.00    -0.307 NA 
HETATM    9  O   UNL     1      -7.947   8.563  73.177  1.00  0.00    -0.354 OA 
HETATM   10  C   UNL     1     -10.807   6.816  72.728  1.00  0.00    -0.262 C  
BRANCH   5  11
HETATM   11  N   UNL     1      -9.958   9.480  70.992  1.00  0.00    -0.271 N  
HETATM   12  H   UNL     1     -10.152  10.129  71.753  1.00  0.00     0.000 HD 
BRANCH  11  13
HETATM   13  C   UNL     1     -10.117   9.891  69.700  1.00  0.00    -0.230 C  
HETATM   14  O   UNL     1      -9.189  10.046  68.917  1.00  0.00    -0.152 OA 
BRANCH  13  15
HETATM   15  N   UNL     1     -11.436  10.033  69.356  1.00  0.00    -0.430 N  
HETATM   16  H   UNL     1     -12.019   9.208  69.223  1.00  0.00     0.000 HD 
BRANCH  15  17
HETATM   17  C   UNL     1     -11.993  11.342  69.184  1.00  0.00    -0.336 C  
BRANCH  17  18
HETATM   18  N   UNL     1     -11.237  12.136  68.252  1.00  0.00    -0.245 N  
HETATM   19  H   UNL     1     -10.784  12.998  68.558  1.00  0.00     0.000 HD 
BRANCH  18  20
HETATM   20  C   UNL     1     -11.130  11.725  66.949  1.00  0.00    -0.307 C  
HETATM   21  O   UNL     1     -11.452  10.612  66.557  1.00  0.00    -0.040 OA 
BRANCH  20  22
HETATM   22  N   UNL     1     -10.634  12.709  66.126  1.00  0.00    -0.254 N  
HETATM   23  H   UNL     1      -9.696  12.656  65.729  1.00  0.00     0.000 HD 
BRANCH  22  24
HETATM   24  C   UNL     1     -11.512  13.815  65.859  1.00  0.00    -0.322 C  
HETATM   25  N   UNL     1     -10.908  14.985  65.270  1.00  0.00    -0.359 N  
HETATM   26  O   UNL     1     -13.151  12.504  64.515  1.00  0.00    -0.816 OA 
HETATM   27  C   UNL     1     -11.759  15.583  64.362  1.00  0.00    -0.242 C  
HETATM   28  N   UNL     1     -12.777  14.726  64.100  1.00  0.00    -0.715 NA 
HETATM   29  O   UNL     1     -11.612  16.673  63.836  1.00  0.00    -1.204 OA 
HETATM   30  C   UNL     1     -12.573  13.551  64.763  1.00  0.00    -0.301 C  
BRANCH  25  31
HETATM   31  C   UNL     1      -9.725  15.605  65.776  1.00  0.00    -0.345 C  
HETATM   32  H   UNL     1      -8.420  15.218  67.149  1.00  0.00     0.000 HD 
HETATM   33  O   UNL     1      -9.207  14.806  66.812  1.00  0.00    -0.233 OA 
ENDBRANCH  25  31
ENDBRANCH  22  24
ENDBRANCH  20  22
ENDBRANCH  18  20
ENDBRANCH  17  18
ENDBRANCH  15  17
ENDBRANCH  13  15
ENDBRANCH  11  13
ENDBRANCH   5  11
ENDBRANCH   2   4
TORSDOF 10
ENDMDL
MODEL      117
REMARK 921   NORMALIZED FREE ENERGY PREDICTED BY IDOCK:   -5.46 KCAL/MOL
REMARK 922        TOTAL FREE ENERGY PREDICTED BY IDOCK:  -10.64 KCAL/MOL
REMARK 923 INTER-LIGAND FREE ENERGY PREDICTED BY IDOCK:   -8.82 KCAL/MOL
REMARK 924 INTRA-LIGAND FREE ENERGY PREDICTED BY IDOCK:   -1.82 KCAL/MOL
REMARK 927      BINDING AFFINITY PREDICTED BY RF-SCORE:    0.00 PKD
ROOT
HETATM    1  O   UNL     1      -9.338  14.888  66.839  1.00  0.00    -0.218 OA 
HETATM    2  C   UNL     1     -10.018  15.636  65.860  1.00  0.00    -0.351 C  
HETATM    3  H   UNL     1      -8.567  15.369  67.115  1.00  0.00     0.000 HD 
ENDROOT
BRANCH   2   4
HETATM    4  N   UNL     1     -11.180  14.909  65.444  1.00  0.00    -0.349 N  
HETATM    5  C   UNL     1     -11.207  13.463  65.516  1.00  0.00    -0.288 C  
HETATM    6  O   UNL     1     -11.891  16.516  63.922  1.00  0.00    -1.059 OA 
HETATM    7  C   UNL     1     -11.945  13.156  64.193  1.00  0.00    -0.436 C  
HETATM    8  N   UNL     1     -12.452  14.323  63.711  1.00  0.00    -0.801 NA 
HETATM    9  O   UNL     1     -12.130  12.065  63.675  1.00  0.00    -0.485 OA 
HETATM   10  C   UNL     1     -11.877  15.370  64.340  1.00  0.00    -0.256 C  
BRANCH   5  11
HETATM   11  N   UNL     1     -12.001  13.011  66.633  1.00  0.00    -0.403 N  
HETATM   12  H   UNL     1     -12.979  13.289  66.699  1.00  0.00     0.000 HD 
BRANCH  11  13
HETATM   13  C   UNL     1     -11.459  12.217  67.602  1.00  0.00    -0.336 C  
HETATM   14  O   UNL     1     -12.048  11.276  68.116  1.00  0.00    -0.635 OA 
BRANCH  13  15
HETATM   15  N   UNL     1     -10.157  12.543  67.876  1.00  0.00    -0.208 N  
HETATM   16  H   UNL     1      -9.844  13.509  67.789  1.00  0.00     0.000 HD 
BRANCH  15  17
HETATM   17  C   UNL     1      -9.236  11.524  68.284  1.00  0.00    -0.186 C  
BRANCH  17  18
HETATM   18  N   UNL     1      -9.546  11.002  69.589  1.00  0.00    -0.328 N  
HETATM   19  H   UNL     1      -9.752  11.636  70.362  1.00  0.00     0.000 HD 
BRANCH  18  20
HETATM   20  C   UNL     1      -9.563   9.646  69.786  1.00  0.00    -0.219 C  
HETATM   21  O   UNL     1      -9.035   9.089  70.738  1.00  0.00    -0.195 OA 
BRANCH  20  22
HETATM   22  N   UNL     1     -10.252   8.980  68.799  1.00  0.00    -0.203 N  
HETATM   23  H   UNL     1     -11.168   9.293  68.476  1.00  0.00     0.000 HD 
BRANCH  22  24
HETATM   24  C   UNL     1      -9.608   7.819  68.249  1.00  0.00    -0.155 C  
HETATM   25  N   UNL     1     -10.400   6.615  68.186  1.00  0.00    -0.174 N  
HETATM   26  O   UNL     1      -8.913   8.912  66.120  1.00  0.00    -0.154 OA 
HETATM   27  C   UNL     1     -10.118   5.890  67.046  1.00  0.00    -0.183 C  
HETATM   28  N   UNL     1      -9.395   6.674  66.207  1.00  0.00    -0.142 NA 
HETATM   29  O   UNL     1     -10.487   4.756  66.796  1.00  0.00    -0.224 OA 
HETATM   30  C   UNL     1      -9.260   7.921  66.744  1.00  0.00    -0.166 C  
BRANCH  25  31
HETATM   31  C   UNL     1     -11.146   6.100  69.291  1.00  0.00    -0.393 C  
HETATM   32  H   UNL     1     -10.840   4.824  70.712  1.00  0.00     0.000 HD 
HETATM   33  O   UNL     1     -10.345   5.168  69.977  1.00  0.00    -0.277 OA 
ENDBRANCH  25  31
ENDBRANCH  22  24
ENDBRANCH  20  22
ENDBRANCH  18  20
ENDBRANCH  17  18
ENDBRANCH  15  17
ENDBRANCH  13  15
ENDBRANCH  11  13
ENDBRANCH   5  11
ENDBRANCH   2   4
TORSDOF 10
ENDMDL
MODEL      118
REMARK 921   NORMALIZED FREE ENERGY PREDICTED BY IDOCK:   -5.44 KCAL/MOL
REMARK 922        TOTAL FREE ENERGY PREDICTED BY IDOCK:  -10.61 KCAL/MOL
REMARK 923 INTER-LIGAND FREE ENERGY PREDICTED BY IDOCK:   -8.41 KCAL/MOL
REMARK 924 INTRA-LIGAND FREE ENERGY PREDICTED BY IDOCK:   -2.20 KCAL/MOL
REMARK 927      BINDING AFFINITY PREDICTED BY RF-SCORE:    0.00 PKD
ROOT
HETATM    1  O   UNL     1     -11.993  10.579  69.725  1.00  0.00    -0.357 OA 
HETATM    2  C   UNL     1     -12.118   9.861  70.929  1.00  0.00    -0.341 C  
HETATM    3  H   UNL     1     -12.585  11.321  69.745  1.00  0.00     0.000 HD 
ENDROOT
BRANCH   2   4
HETATM    4  N   UNL     1     -11.225   8.742  70.899  1.00  0.00    -0.261 N  
HETATM    5  C   UNL     1     -10.877   8.114  69.641  1.00  0.00    -0.158 C  
HETATM    6  O   UNL     1     -11.747   8.007  73.042  1.00  0.00    -0.309 OA 
HETATM    7  C   UNL     1     -10.893   6.633  70.084  1.00  0.00    -0.279 C  
HETATM    8  N   UNL     1     -10.955   6.597  71.442  1.00  0.00    -0.242 NA 
HETATM    9  O   UNL     1     -10.792   5.640  69.379  1.00  0.00    -0.320 OA 
HETATM   10  C   UNL     1     -11.313   7.810  71.918  1.00  0.00    -0.270 C  
BRANCH   5  11
HETATM   11  N   UNL     1      -9.548   8.484  69.223  1.00  0.00    -0.168 N  
HETATM   12  H   UNL     1      -8.768   8.368  69.869  1.00  0.00     0.000 HD 
BRANCH  11  13
HETATM   13  C   UNL     1      -9.320   8.987  67.975  1.00  0.00    -0.141 C  
HETATM   14  O   UNL     1      -8.967   8.306  67.022  1.00  0.00    -0.133 OA 
BRANCH  13  15
HETATM   15  N   UNL     1      -9.608  10.324  67.891  1.00  0.00    -0.145 N  
HETATM   16  H   UNL     1     -10.406  10.640  67.341  1.00  0.00     0.000 HD 
BRANCH  15  17
HETATM   17  C   UNL     1      -8.785  11.277  68.575  1.00  0.00    -0.156 C  
BRANCH  17  18
HETATM   18  N   UNL     1      -9.383  12.586  68.608  1.00  0.00    -0.404 N  
HETATM   19  H   UNL     1      -9.693  12.988  69.493  1.00  0.00     0.000 HD 
BRANCH  18  20
HETATM   20  C   UNL     1      -9.531  13.288  67.441  1.00  0.00    -0.218 C  
HETATM   21  O   UNL     1      -8.936  13.022  66.405  1.00  0.00    -0.133 OA 
BRANCH  20  22
HETATM   22  N   UNL     1     -10.435  14.318  67.558  1.00  0.00    -0.252 N  
HETATM   23  H   UNL     1     -10.281  15.100  68.194  1.00  0.00     0.000 HD 
BRANCH  22  24
HETATM   24  C   UNL     1     -11.608  14.229  66.732  1.00  0.00    -0.391 C  
HETATM   25  N   UNL     1     -11.455  14.632  65.355  1.00  0.00    -0.346 N  
HETATM   26  O   UNL     1     -12.081  11.835  67.238  1.00  0.00    -0.595 OA 
HETATM   27  C   UNL     1     -12.212  13.839  64.516  1.00  0.00    -0.403 C  
HETATM   28  N   UNL     1     -12.637  12.757  65.216  1.00  0.00    -0.635 NA 
HETATM   29  O   UNL     1     -12.431  14.035  63.333  1.00  0.00    -0.826 OA 
HETATM   30  C   UNL     1     -12.115  12.789  66.475  1.00  0.00    -0.268 C  
BRANCH  25  31
HETATM   31  C   UNL     1     -10.847  15.860  64.952  1.00  0.00    -0.400 C  
HETATM   32  H   UNL     1     -10.370  17.530  65.802  1.00  0.00     0.000 HD 
HETATM   33  O   UNL     1     -10.774  16.713  66.070  1.00  0.00    -0.262 OA 
ENDBRANCH  25  31
ENDBRANCH  22  24
ENDBRANCH  20  22
ENDBRANCH  18  20
ENDBRANCH  17  18
ENDBRANCH  15  17
ENDBRANCH  13  15
ENDBRANCH  11  13
ENDBRANCH   5  11
ENDBRANCH   2   4
TORSDOF 10
ENDMDL
MODEL      119
REMARK 921   NORMALIZED FREE ENERGY PREDICTED BY IDOCK:   -5.43 KCAL/MOL
REMARK 922        TOTAL FREE ENERGY PREDICTED BY IDOCK:  -10.60 KCAL/MOL
REMARK 923 INTER-LIGAND FREE ENERGY PREDICTED BY IDOCK:   -9.41 KCAL/MOL
REMARK 924 INTRA-LIGAND FREE ENERGY PREDICTED BY IDOCK:   -1.20 KCAL/MOL
REMARK 927      BINDING AFFINITY PREDICTED BY RF-SCORE:    0.00 PKD
ROOT
HETATM    1  O   UNL     1      -9.918  17.185  65.723  1.00  0.00    -0.530 OA 
HETATM    2  C   UNL     1      -9.899  15.788  65.892  1.00  0.00    -0.349 C  
HETATM    3  H   UNL     1      -9.035  17.521  65.827  1.00  0.00     0.000 HD 
ENDROOT
BRANCH   2   4
HETATM    4  N   UNL     1     -11.231  15.283  65.735  1.00  0.00    -0.294 N  
HETATM    5  C   UNL     1     -11.589  13.983  66.265  1.00  0.00    -0.369 C  
HETATM    6  O   UNL     1     -11.672  16.469  63.786  1.00  0.00    -1.086 OA 
HETATM    7  C   UNL     1     -12.488  13.478  65.113  1.00  0.00    -0.451 C  
HETATM    8  N   UNL     1     -12.747  14.528  64.287  1.00  0.00    -0.670 NA 
HETATM    9  O   UNL     1     -12.966  12.363  64.970  1.00  0.00    -0.705 OA 
HETATM   10  C   UNL     1     -11.891  15.541  64.547  1.00  0.00    -0.216 C  
BRANCH   5  11
HETATM   11  N   UNL     1     -12.368  14.108  67.472  1.00  0.00    -0.560 N  
HETATM   12  H   UNL     1     -13.381  13.997  67.430  1.00  0.00     0.000 HD 
BRANCH  11  13
HETATM   13  C   UNL     1     -11.769  14.373  68.669  1.00  0.00    -0.332 C  
HETATM   14  O   UNL     1     -11.750  15.481  69.188  1.00  0.00    -0.328 OA 
BRANCH  13  15
HETATM   15  N   UNL     1     -11.263  13.246  69.261  1.00  0.00    -0.383 N  
HETATM   16  H   UNL     1     -10.273  13.020  69.166  1.00  0.00     0.000 HD 
BRANCH  15  17
HETATM   17  C   UNL     1     -12.126  12.384  70.012  1.00  0.00    -0.263 C  
BRANCH  17  18
HETATM   18  N   UNL     1     -12.250  11.081  69.412  1.00  0.00    -0.421 N  
HETATM   19  H   UNL     1     -13.149  10.766  69.047  1.00  0.00     0.000 HD 
BRANCH  18  20
HETATM   20  C   UNL     1     -11.150  10.268  69.334  1.00  0.00    -0.252 C  
HETATM   21  O   UNL     1     -10.854   9.614  68.344  1.00  0.00    -0.219 OA 
BRANCH  20  22
HETATM   22  N   UNL     1     -10.405  10.279  70.490  1.00  0.00    -0.384 N  
HETATM   23  H   UNL     1     -10.499  11.020  71.185  1.00  0.00     0.000 HD 
BRANCH  22  24
HETATM   24  C   UNL     1      -9.487   9.187  70.664  1.00  0.00    -0.261 C  
HETATM   25  N   UNL     1      -8.084   9.524  70.679  1.00  0.00    -0.165 N  
HETATM   26  O   UNL     1     -10.536   8.316  72.750  1.00  0.00    -0.340 OA 
HETATM   27  C   UNL     1      -7.392   8.738  71.577  1.00  0.00    -0.085 C  
HETATM   28  N   UNL     1      -8.289   8.093  72.365  1.00  0.00    -0.155 NA 
HETATM   29  O   UNL     1      -6.181   8.659  71.692  1.00  0.00    -0.052 OA 
HETATM   30  C   UNL     1      -9.553   8.496  72.048  1.00  0.00    -0.301 C  
BRANCH  25  31
HETATM   31  C   UNL     1      -7.456  10.343  69.692  1.00  0.00    -0.157 C  
HETATM   32  H   UNL     1      -7.025  10.188  67.813  1.00  0.00     0.000 HD 
HETATM   33  O   UNL     1      -7.443   9.644  68.471  1.00  0.00    -0.078 OA 
ENDBRANCH  25  31
ENDBRANCH  22  24
ENDBRANCH  20  22
ENDBRANCH  18  20
ENDBRANCH  17  18
ENDBRANCH  15  17
ENDBRANCH  13  15
ENDBRANCH  11  13
ENDBRANCH   5  11
ENDBRANCH   2   4
TORSDOF 10
ENDMDL
MODEL      120
REMARK 921   NORMALIZED FREE ENERGY PREDICTED BY IDOCK:   -5.42 KCAL/MOL
REMARK 922        TOTAL FREE ENERGY PREDICTED BY IDOCK:  -10.59 KCAL/MOL
REMARK 923 INTER-LIGAND FREE ENERGY PREDICTED BY IDOCK:   -9.14 KCAL/MOL
REMARK 924 INTRA-LIGAND FREE ENERGY PREDICTED BY IDOCK:   -1.45 KCAL/MOL
REMARK 927      BINDING AFFINITY PREDICTED BY RF-SCORE:    0.00 PKD
ROOT
HETATM    1  O   UNL     1      -7.754  14.588  69.903  1.00  0.00    -0.392 OA 
HETATM    2  C   UNL     1      -8.770  14.927  68.990  1.00  0.00    -0.177 C  
HETATM    3  H   UNL     1      -7.537  13.669  69.796  1.00  0.00     0.000 HD 
ENDROOT
BRANCH   2   4
HETATM    4  N   UNL     1      -9.098  16.312  69.152  1.00  0.00    -0.252 N  
HETATM    5  C   UNL     1     -10.448  16.780  68.909  1.00  0.00    -0.332 C  
HETATM    6  O   UNL     1      -6.956  17.084  68.688  1.00  0.00    -0.181 OA 
HETATM    7  C   UNL     1     -10.129  18.116  68.200  1.00  0.00    -0.378 C  
HETATM    8  N   UNL     1      -8.801  18.371  68.355  1.00  0.00    -0.315 NA 
HETATM    9  O   UNL     1     -10.911  18.878  67.652  1.00  0.00    -0.392 OA 
HETATM   10  C   UNL     1      -8.162  17.254  68.764  1.00  0.00    -0.231 C  
BRANCH   5  11
HETATM   11  N   UNL     1     -11.141  17.038  70.146  1.00  0.00    -0.238 N  
HETATM   12  H   UNL     1     -11.197  17.992  70.502  1.00  0.00     0.000 HD 
BRANCH  11  13
HETATM   13  C   UNL     1     -11.724  16.023  70.848  1.00  0.00    -0.402 C  
HETATM   14  O   UNL     1     -11.679  15.927  72.067  1.00  0.00    -0.426 OA 
BRANCH  13  15
HETATM   15  N   UNL     1     -12.431  15.170  70.043  1.00  0.00    -0.526 N  
HETATM   16  H   UNL     1     -13.035  15.543  69.310  1.00  0.00     0.000 HD 
BRANCH  15  17
HETATM   17  C   UNL     1     -12.323  13.754  70.231  1.00  0.00    -0.337 C  
BRANCH  17  18
HETATM   18  N   UNL     1     -11.965  13.070  69.016  1.00  0.00    -0.295 N  
HETATM   19  H   UNL     1     -11.807  13.596  68.156  1.00  0.00     0.000 HD 
BRANCH  18  20
HETATM   20  C   UNL     1     -11.837  11.706  69.024  1.00  0.00    -0.328 C  
HETATM   21  O   UNL     1     -12.099  10.992  68.066  1.00  0.00    -0.615 OA 
BRANCH  20  22
HETATM   22  N   UNL     1     -11.369  11.228  70.225  1.00  0.00    -0.491 N  
HETATM   23  H   UNL     1     -10.650  11.719  70.758  1.00  0.00     0.000 HD 
BRANCH  22  24
HETATM   24  C   UNL     1     -11.949   9.997  70.688  1.00  0.00    -0.313 C  
HETATM   25  N   UNL     1     -11.060   9.083  71.363  1.00  0.00    -0.300 N  
HETATM   26  O   UNL     1     -13.784  11.069  71.990  1.00  0.00    -0.157 OA 
HETATM   27  C   UNL     1     -11.703   8.434  72.397  1.00  0.00    -0.382 C  
HETATM   28  N   UNL     1     -12.880   9.065  72.634  1.00  0.00    -0.333 NA 
HETATM   29  O   UNL     1     -11.280   7.485  73.035  1.00  0.00    -0.361 OA 
HETATM   30  C   UNL     1     -12.989  10.157  71.824  1.00  0.00    -0.462 C  
BRANCH  25  31
HETATM   31  C   UNL     1      -9.790   8.686  70.844  1.00  0.00    -0.205 C  
HETATM   32  H   UNL     1      -7.936   9.076  71.231  1.00  0.00     0.000 HD 
HETATM   33  O   UNL     1      -8.782   9.339  71.576  1.00  0.00    -0.323 OA 
ENDBRANCH  25  31
ENDBRANCH  22  24
ENDBRANCH  20  22
ENDBRANCH  18  20
ENDBRANCH  17  18
ENDBRANCH  15  17
ENDBRANCH  13  15
ENDBRANCH  11  13
ENDBRANCH   5  11
ENDBRANCH   2   4
TORSDOF 10
ENDMDL
MODEL      121
REMARK 921   NORMALIZED FREE ENERGY PREDICTED BY IDOCK:   -5.42 KCAL/MOL
REMARK 922        TOTAL FREE ENERGY PREDICTED BY IDOCK:  -10.58 KCAL/MOL
REMARK 923 INTER-LIGAND FREE ENERGY PREDICTED BY IDOCK:   -8.28 KCAL/MOL
REMARK 924 INTRA-LIGAND FREE ENERGY PREDICTED BY IDOCK:   -2.30 KCAL/MOL
REMARK 927      BINDING AFFINITY PREDICTED BY RF-SCORE:    0.00 PKD
ROOT
HETATM    1  O   UNL     1     -11.081  11.033  63.107  1.00  0.00    -0.770 OA 
HETATM    2  C   UNL     1     -11.932  12.124  63.358  1.00  0.00    -0.481 C  
HETATM    3  H   UNL     1     -11.334  10.625  62.288  1.00  0.00     0.000 HD 
ENDROOT
BRANCH   2   4
HETATM    4  N   UNL     1     -11.550  12.739  64.594  1.00  0.00    -0.322 N  
HETATM    5  C   UNL     1     -11.252  11.928  65.756  1.00  0.00    -0.312 C  
HETATM    6  O   UNL     1     -12.690  14.726  64.194  1.00  0.00    -0.758 OA 
HETATM    7  C   UNL     1     -11.915  12.796  66.849  1.00  0.00    -0.310 C  
HETATM    8  N   UNL     1     -12.228  14.001  66.300  1.00  0.00    -0.455 NA 
HETATM    9  O   UNL     1     -12.080  12.519  68.027  1.00  0.00    -0.351 OA 
HETATM   10  C   UNL     1     -12.171  13.922  64.953  1.00  0.00    -0.422 C  
BRANCH   5  11
HETATM   11  N   UNL     1      -9.831  11.853  65.989  1.00  0.00    -0.230 N  
HETATM   12  H   UNL     1      -9.214  12.544  65.563  1.00  0.00     0.000 HD 
BRANCH  11  13
HETATM   13  C   UNL     1      -9.299  10.869  66.772  1.00  0.00    -0.165 C  
HETATM   14  O   UNL     1      -9.049   9.741  66.369  1.00  0.00    -0.147 OA 
BRANCH  13  15
HETATM   15  N   UNL     1      -9.003  11.310  68.035  1.00  0.00    -0.150 N  
HETATM   16  H   UNL     1      -9.527  10.957  68.835  1.00  0.00     0.000 HD 
BRANCH  15  17
HETATM   17  C   UNL     1      -7.956  12.269  68.230  1.00  0.00    -0.163 C  
BRANCH  17  18
HETATM   18  N   UNL     1      -8.450  13.512  68.762  1.00  0.00    -0.359 N  
HETATM   19  H   UNL     1      -8.580  13.625  69.768  1.00  0.00     0.000 HD 
BRANCH  18  20
HETATM   20  C   UNL     1      -8.744  14.541  67.907  1.00  0.00    -0.165 C  
HETATM   21  O   UNL     1      -8.926  14.399  66.706  1.00  0.00    -0.246 OA 
BRANCH  20  22
HETATM   22  N   UNL     1      -8.824  15.754  68.552  1.00  0.00    -0.184 N  
HETATM   23  H   UNL     1      -9.630  16.008  69.122  1.00  0.00     0.000 HD 
BRANCH  22  24
HETATM   24  C   UNL     1      -7.707  16.641  68.375  1.00  0.00    -0.200 C  
HETATM   25  N   UNL     1      -7.964  18.045  68.582  1.00  0.00    -0.308 N  
HETATM   26  O   UNL     1      -6.197  15.449  69.960  1.00  0.00    -0.152 OA 
HETATM   27  C   UNL     1      -6.886  18.667  69.178  1.00  0.00    -0.261 C  
HETATM   28  N   UNL     1      -6.040  17.712  69.639  1.00  0.00    -0.252 NA 
HETATM   29  O   UNL     1      -6.727  19.868  69.321  1.00  0.00    -0.333 OA 
HETATM   30  C   UNL     1      -6.576  16.477  69.419  1.00  0.00    -0.213 C  
BRANCH  25  31
HETATM   31  C   UNL     1      -9.054  18.747  67.983  1.00  0.00    -0.299 C  
HETATM   32  H   UNL     1     -10.203  18.499  66.448  1.00  0.00     0.000 HD 
HETATM   33  O   UNL     1      -9.478  18.033  66.847  1.00  0.00    -0.271 OA 
ENDBRANCH  25  31
ENDBRANCH  22  24
ENDBRANCH  20  22
ENDBRANCH  18  20
ENDBRANCH  17  18
ENDBRANCH  15  17
ENDBRANCH  13  15
ENDBRANCH  11  13
ENDBRANCH   5  11
ENDBRANCH   2   4
TORSDOF 10
ENDMDL
MODEL      122
REMARK 921   NORMALIZED FREE ENERGY PREDICTED BY IDOCK:   -5.41 KCAL/MOL
REMARK 922        TOTAL FREE ENERGY PREDICTED BY IDOCK:  -10.57 KCAL/MOL
REMARK 923 INTER-LIGAND FREE ENERGY PREDICTED BY IDOCK:   -8.54 KCAL/MOL
REMARK 924 INTRA-LIGAND FREE ENERGY PREDICTED BY IDOCK:   -2.03 KCAL/MOL
REMARK 927      BINDING AFFINITY PREDICTED BY RF-SCORE:    0.00 PKD
ROOT
HETATM    1  O   UNL     1      -7.727  11.174  65.493  1.00  0.00    -0.362 OA 
HETATM    2  C   UNL     1      -9.052  10.703  65.536  1.00  0.00    -0.190 C  
HETATM    3  H   UNL     1      -7.147  10.495  65.817  1.00  0.00     0.000 HD 
ENDROOT
BRANCH   2   4
HETATM    4  N   UNL     1      -9.927  11.727  65.048  1.00  0.00    -0.253 N  
HETATM    5  C   UNL     1     -11.117  12.092  65.790  1.00  0.00    -0.324 C  
HETATM    6  O   UNL     1      -9.391  11.402  62.810  1.00  0.00    -0.369 OA 
HETATM    7  C   UNL     1     -12.100  12.283  64.613  1.00  0.00    -0.374 C  
HETATM    8  N   UNL     1     -11.382  12.290  63.457  1.00  0.00    -0.459 NA 
HETATM    9  O   UNL     1     -13.306  12.474  64.669  1.00  0.00    -0.804 OA 
HETATM   10  C   UNL     1     -10.142  11.805  63.683  1.00  0.00    -0.418 C  
BRANCH   5  11
HETATM   11  N   UNL     1     -10.936  13.343  66.483  1.00  0.00    -0.288 N  
HETATM   12  H   UNL     1     -10.619  14.163  65.966  1.00  0.00     0.000 HD 
BRANCH  11  13
HETATM   13  C   UNL     1     -11.185  13.446  67.821  1.00  0.00    -0.279 C  
HETATM   14  O   UNL     1     -11.386  14.508  68.395  1.00  0.00    -0.263 OA 
BRANCH  13  15
HETATM   15  N   UNL     1     -11.263  12.223  68.432  1.00  0.00    -0.243 N  
HETATM   16  H   UNL     1     -10.703  11.443  68.088  1.00  0.00     0.000 HD 
BRANCH  15  17
HETATM   17  C   UNL     1     -12.135  12.039  69.555  1.00  0.00    -0.212 C  
BRANCH  17  18
HETATM   18  N   UNL     1     -12.268  10.653  69.919  1.00  0.00    -0.453 N  
HETATM   19  H   UNL     1     -12.360   9.938  69.197  1.00  0.00     0.000 HD 
BRANCH  18  20
HETATM   20  C   UNL     1     -12.269  10.302  71.243  1.00  0.00    -0.395 C  
HETATM   21  O   UNL     1     -13.015  10.795  72.078  1.00  0.00    -0.463 OA 
BRANCH  20  22
HETATM   22  N   UNL     1     -11.347   9.322  71.528  1.00  0.00    -0.361 N  
HETATM   23  H   UNL     1     -10.841   9.300  72.414  1.00  0.00     0.000 HD 
BRANCH  22  24
HETATM   24  C   UNL     1     -11.138   8.331  70.508  1.00  0.00    -0.249 C  
HETATM   25  N   UNL     1      -9.769   7.971  70.235  1.00  0.00    -0.175 N  
HETATM   26  O   UNL     1     -12.651   6.625  71.513  1.00  0.00    -0.336 OA 
HETATM   27  C   UNL     1      -9.654   6.626  69.946  1.00  0.00    -0.155 C  
HETATM   28  N   UNL     1     -10.815   6.014  70.287  1.00  0.00    -0.302 NA 
HETATM   29  O   UNL     1      -8.669   6.059  69.506  1.00  0.00    -0.123 OA 
HETATM   30  C   UNL     1     -11.662   6.917  70.859  1.00  0.00    -0.361 C  
BRANCH  25  31
HETATM   31  C   UNL     1      -8.731   8.925  70.001  1.00  0.00    -0.147 C  
HETATM   32  H   UNL     1      -8.590  10.661  69.160  1.00  0.00     0.000 HD 
HETATM   33  O   UNL     1      -9.279  10.026  69.317  1.00  0.00    -0.178 OA 
ENDBRANCH  25  31
ENDBRANCH  22  24
ENDBRANCH  20  22
ENDBRANCH  18  20
ENDBRANCH  17  18
ENDBRANCH  15  17
ENDBRANCH  13  15
ENDBRANCH  11  13
ENDBRANCH   5  11
ENDBRANCH   2   4
TORSDOF 10
ENDMDL
MODEL      123
REMARK 921   NORMALIZED FREE ENERGY PREDICTED BY IDOCK:   -5.40 KCAL/MOL
REMARK 922        TOTAL FREE ENERGY PREDICTED BY IDOCK:  -10.55 KCAL/MOL
REMARK 923 INTER-LIGAND FREE ENERGY PREDICTED BY IDOCK:   -8.95 KCAL/MOL
REMARK 924 INTRA-LIGAND FREE ENERGY PREDICTED BY IDOCK:   -1.61 KCAL/MOL
REMARK 927      BINDING AFFINITY PREDICTED BY RF-SCORE:    0.00 PKD
ROOT
HETATM    1  O   UNL     1     -10.410   8.165  66.355  1.00  0.00    -0.458 OA 
HETATM    2  C   UNL     1      -9.505   7.516  67.216  1.00  0.00    -0.151 C  
HETATM    3  H   UNL     1      -9.924   8.576  65.651  1.00  0.00     0.000 HD 
ENDROOT
BRANCH   2   4
HETATM    4  N   UNL     1     -10.237   6.895  68.280  1.00  0.00    -0.171 N  
HETATM    5  C   UNL     1     -10.233   7.472  69.609  1.00  0.00    -0.205 C  
HETATM    6  O   UNL     1     -10.108   4.751  67.391  1.00  0.00    -0.174 OA 
HETATM    7  C   UNL     1     -10.144   6.176  70.447  1.00  0.00    -0.189 C  
HETATM    8  N   UNL     1     -10.372   5.120  69.620  1.00  0.00    -0.272 NA 
HETATM    9  O   UNL     1      -9.978   6.075  71.653  1.00  0.00    -0.176 OA 
HETATM   10  C   UNL     1     -10.265   5.513  68.332  1.00  0.00    -0.180 C  
BRANCH   5  11
HETATM   11  N   UNL     1     -11.474   8.149  69.887  1.00  0.00    -0.449 N  
HETATM   12  H   UNL     1     -12.328   7.846  69.421  1.00  0.00     0.000 HD 
BRANCH  11  13
HETATM   13  C   UNL     1     -11.523   9.191  70.768  1.00  0.00    -0.282 C  
HETATM   14  O   UNL     1     -10.748   9.325  71.706  1.00  0.00    -0.363 OA 
BRANCH  13  15
HETATM   15  N   UNL     1     -12.482  10.111  70.435  1.00  0.00    -0.489 N  
HETATM   16  H   UNL     1     -13.407   9.799  70.139  1.00  0.00     0.000 HD 
BRANCH  15  17
HETATM   17  C   UNL     1     -12.185  11.511  70.504  1.00  0.00    -0.377 C  
BRANCH  17  18
HETATM   18  N   UNL     1     -11.229  11.913  69.505  1.00  0.00    -0.424 N  
HETATM   19  H   UNL     1     -10.298  12.225  69.781  1.00  0.00     0.000 HD 
BRANCH  18  20
HETATM   20  C   UNL     1     -11.580  11.872  68.182  1.00  0.00    -0.334 C  
HETATM   21  O   UNL     1     -11.578  10.851  67.507  1.00  0.00    -0.526 OA 
BRANCH  20  22
HETATM   22  N   UNL     1     -11.949  13.105  67.697  1.00  0.00    -0.346 N  
HETATM   23  H   UNL     1     -12.921  13.414  67.694  1.00  0.00     0.000 HD 
BRANCH  22  24
HETATM   24  C   UNL     1     -10.887  13.933  67.195  1.00  0.00    -0.284 C  
HETATM   25  N   UNL     1     -11.100  14.536  65.902  1.00  0.00    -0.321 N  
HETATM   26  O   UNL     1     -10.759  15.407  69.201  1.00  0.00    -0.224 OA 
HETATM   27  C   UNL     1     -10.560  15.805  65.848  1.00  0.00    -0.339 C  
HETATM   28  N   UNL     1     -10.252  16.194  67.110  1.00  0.00    -0.275 NA 
HETATM   29  O   UNL     1     -10.422  16.495  64.852  1.00  0.00    -0.653 OA 
HETATM   30  C   UNL     1     -10.644  15.235  67.997  1.00  0.00    -0.261 C  
BRANCH  25  31
HETATM   31  C   UNL     1     -11.537  13.809  64.752  1.00  0.00    -0.362 C  
HETATM   32  H   UNL     1     -13.067  13.848  63.571  1.00  0.00     0.000 HD 
HETATM   33  O   UNL     1     -12.775  14.331  64.335  1.00  0.00    -0.661 OA 
ENDBRANCH  25  31
ENDBRANCH  22  24
ENDBRANCH  20  22
ENDBRANCH  18  20
ENDBRANCH  17  18
ENDBRANCH  15  17
ENDBRANCH  13  15
ENDBRANCH  11  13
ENDBRANCH   5  11
ENDBRANCH   2   4
TORSDOF 10
ENDMDL
MODEL      124
REMARK 921   NORMALIZED FREE ENERGY PREDICTED BY IDOCK:   -5.40 KCAL/MOL
REMARK 922        TOTAL FREE ENERGY PREDICTED BY IDOCK:  -10.55 KCAL/MOL
REMARK 923 INTER-LIGAND FREE ENERGY PREDICTED BY IDOCK:   -9.00 KCAL/MOL
REMARK 924 INTRA-LIGAND FREE ENERGY PREDICTED BY IDOCK:   -1.56 KCAL/MOL
REMARK 927      BINDING AFFINITY PREDICTED BY RF-SCORE:    0.00 PKD
ROOT
HETATM    1  O   UNL     1     -11.828  11.230  67.273  1.00  0.00    -0.562 OA 
HETATM    2  C   UNL     1     -10.713  10.419  66.993  1.00  0.00    -0.235 C  
HETATM    3  H   UNL     1     -12.289  10.874  68.023  1.00  0.00     0.000 HD 
ENDROOT
BRANCH   2   4
HETATM    4  N   UNL     1     -10.019  10.956  65.861  1.00  0.00    -0.233 N  
HETATM    5  C   UNL     1     -10.638  10.955  64.551  1.00  0.00    -0.265 C  
HETATM    6  O   UNL     1      -7.895  10.527  66.702  1.00  0.00    -0.116 OA 
HETATM    7  C   UNL     1      -9.409  10.587  63.689  1.00  0.00    -0.289 C  
HETATM    8  N   UNL     1      -8.299  10.690  64.469  1.00  0.00    -0.101 NA 
HETATM    9  O   UNL     1      -9.383  10.319  62.497  1.00  0.00    -0.280 OA 
HETATM   10  C   UNL     1      -8.655  10.744  65.772  1.00  0.00    -0.183 C  
BRANCH   5  11
HETATM   11  N   UNL     1     -11.107  12.271  64.194  1.00  0.00    -0.336 N  
HETATM   12  H   UNL     1     -10.489  12.904  63.688  1.00  0.00     0.000 HD 
BRANCH  11  13
HETATM   13  C   UNL     1     -12.366  12.680  64.525  1.00  0.00    -0.464 C  
HETATM   14  O   UNL     1     -13.358  11.969  64.435  1.00  0.00    -0.657 OA 
BRANCH  13  15
HETATM   15  N   UNL     1     -12.383  13.948  65.045  1.00  0.00    -0.456 N  
HETATM   16  H   UNL     1     -13.091  14.615  64.740  1.00  0.00     0.000 HD 
BRANCH  15  17
HETATM   17  C   UNL     1     -11.405  14.334  66.018  1.00  0.00    -0.335 C  
BRANCH  17  18
HETATM   18  N   UNL     1     -10.433  15.248  65.478  1.00  0.00    -0.343 N  
HETATM   19  H   UNL     1      -9.518  14.910  65.179  1.00  0.00     0.000 HD 
BRANCH  18  20
HETATM   20  C   UNL     1     -10.747  16.577  65.367  1.00  0.00    -0.259 C  
HETATM   21  O   UNL     1     -11.130  17.103  64.330  1.00  0.00    -1.100 OA 
BRANCH  20  22
HETATM   22  N   UNL     1     -10.597  17.254  66.554  1.00  0.00    -0.237 N  
HETATM   23  H   UNL     1     -11.382  17.418  67.184  1.00  0.00     0.000 HD 
BRANCH  22  24
HETATM   24  C   UNL     1      -9.270  17.717  66.858  1.00  0.00    -0.263 C  
HETATM   25  N   UNL     1      -9.173  18.988  67.533  1.00  0.00    -0.285 N  
HETATM   26  O   UNL     1      -8.565  15.655  68.068  1.00  0.00    -0.154 OA 
HETATM   27  C   UNL     1      -8.138  18.990  68.446  1.00  0.00    -0.346 C  
HETATM   28  N   UNL     1      -7.721  17.711  68.625  1.00  0.00    -0.279 NA 
HETATM   29  O   UNL     1      -7.693  19.957  69.040  1.00  0.00    -0.247 OA 
HETATM   30  C   UNL     1      -8.508  16.864  67.901  1.00  0.00    -0.203 C  
BRANCH  25  31
HETATM   31  C   UNL     1      -9.854  20.167  67.103  1.00  0.00    -0.446 C  
HETATM   32  H   UNL     1     -10.135  21.088  65.426  1.00  0.00     0.000 HD 
HETATM   33  O   UNL     1      -9.682  20.303  65.713  1.00  0.00    -0.323 OA 
ENDBRANCH  25  31
ENDBRANCH  22  24
ENDBRANCH  20  22
ENDBRANCH  18  20
ENDBRANCH  17  18
ENDBRANCH  15  17
ENDBRANCH  13  15
ENDBRANCH  11  13
ENDBRANCH   5  11
ENDBRANCH   2   4
TORSDOF 10
ENDMDL
MODEL      125
REMARK 921   NORMALIZED FREE ENERGY PREDICTED BY IDOCK:   -5.39 KCAL/MOL
REMARK 922        TOTAL FREE ENERGY PREDICTED BY IDOCK:  -10.53 KCAL/MOL
REMARK 923 INTER-LIGAND FREE ENERGY PREDICTED BY IDOCK:   -9.65 KCAL/MOL
REMARK 924 INTRA-LIGAND FREE ENERGY PREDICTED BY IDOCK:   -0.88 KCAL/MOL
REMARK 927      BINDING AFFINITY PREDICTED BY RF-SCORE:    0.00 PKD
ROOT
HETATM    1  O   UNL     1      -8.928   9.886  70.764  1.00  0.00    -0.351 OA 
HETATM    2  C   UNL     1      -9.507   8.624  70.991  1.00  0.00    -0.207 C  
HETATM    3  H   UNL     1      -7.983   9.801  70.789  1.00  0.00     0.000 HD 
ENDROOT
BRANCH   2   4
HETATM    4  N   UNL     1     -10.933   8.752  70.954  1.00  0.00    -0.249 N  
HETATM    5  C   UNL     1     -11.550  10.054  70.802  1.00  0.00    -0.360 C  
HETATM    6  O   UNL     1     -11.342   6.852  72.229  1.00  0.00    -0.254 OA 
HETATM    7  C   UNL     1     -12.734   9.890  71.782  1.00  0.00    -0.428 C  
HETATM    8  N   UNL     1     -12.821   8.577  72.126  1.00  0.00    -0.359 NA 
HETATM    9  O   UNL     1     -13.524  10.746  72.151  1.00  0.00    -0.379 OA 
HETATM   10  C   UNL     1     -11.683   7.934  71.781  1.00  0.00    -0.287 C  
BRANCH   5  11
HETATM   11  N   UNL     1     -12.049  10.242  69.462  1.00  0.00    -0.509 N  
HETATM   12  H   UNL     1     -12.665   9.540  69.053  1.00  0.00     0.000 HD 
BRANCH  11  13
HETATM   13  C   UNL     1     -11.707  11.345  68.735  1.00  0.00    -0.339 C  
HETATM   14  O   UNL     1     -12.297  11.701  67.724  1.00  0.00    -0.349 OA 
BRANCH  13  15
HETATM   15  N   UNL     1     -10.684  12.052  69.308  1.00  0.00    -0.440 N  
HETATM   16  H   UNL     1      -9.966  11.565  69.846  1.00  0.00     0.000 HD 
BRANCH  15  17
HETATM   17  C   UNL     1     -10.622  13.475  69.153  1.00  0.00    -0.024 C  
BRANCH  17  18
HETATM   18  N   UNL     1      -9.901  13.861  67.968  1.00  0.00    -0.227 N  
HETATM   19  H   UNL     1      -8.930  13.574  67.840  1.00  0.00     0.000 HD 
BRANCH  18  20
HETATM   20  C   UNL     1     -10.529  14.617  67.014  1.00  0.00    -0.269 C  
HETATM   21  O   UNL     1     -11.612  15.162  67.180  1.00  0.00    -0.311 OA 
BRANCH  20  22
HETATM   22  N   UNL     1      -9.801  14.708  65.851  1.00  0.00    -0.322 N  
HETATM   23  H   UNL     1      -8.855  15.091  65.836  1.00  0.00     0.000 HD 
BRANCH  22  24
HETATM   24  C   UNL     1     -10.448  14.233  64.659  1.00  0.00    -0.298 C  
HETATM   25  N   UNL     1     -11.210  13.015  64.785  1.00  0.00    -0.306 N  
HETATM   26  O   UNL     1     -11.653  16.360  64.173  1.00  0.00    -0.962 OA 
HETATM   27  C   UNL     1     -12.345  13.053  64.001  1.00  0.00    -0.363 C  
HETATM   28  N   UNL     1     -12.534  14.329  63.581  1.00  0.00    -0.772 NA 
HETATM   29  O   UNL     1     -13.092  12.121  63.757  1.00  0.00    -0.774 OA 
HETATM   30  C   UNL     1     -11.586  15.141  64.132  1.00  0.00    -0.056 C  
BRANCH  25  31
HETATM   31  C   UNL     1     -10.706  11.826  65.396  1.00  0.00    -0.283 C  
HETATM   32  H   UNL     1      -9.003  10.916  65.493  1.00  0.00     0.000 HD 
HETATM   33  O   UNL     1      -9.338  11.707  65.087  1.00  0.00    -0.175 OA 
ENDBRANCH  25  31
ENDBRANCH  22  24
ENDBRANCH  20  22
ENDBRANCH  18  20
ENDBRANCH  17  18
ENDBRANCH  15  17
ENDBRANCH  13  15
ENDBRANCH  11  13
ENDBRANCH   5  11
ENDBRANCH   2   4
TORSDOF 10
ENDMDL
MODEL      126
REMARK 921   NORMALIZED FREE ENERGY PREDICTED BY IDOCK:   -5.39 KCAL/MOL
REMARK 922        TOTAL FREE ENERGY PREDICTED BY IDOCK:  -10.53 KCAL/MOL
REMARK 923 INTER-LIGAND FREE ENERGY PREDICTED BY IDOCK:   -8.04 KCAL/MOL
REMARK 924 INTRA-LIGAND FREE ENERGY PREDICTED BY IDOCK:   -2.49 KCAL/MOL
REMARK 927      BINDING AFFINITY PREDICTED BY RF-SCORE:    0.00 PKD
ROOT
HETATM    1  O   UNL     1     -11.361   6.635  68.076  1.00  0.00    -0.552 OA 
HETATM    2  C   UNL     1     -11.430   6.417  69.464  1.00  0.00    -0.343 C  
HETATM    3  H   UNL     1     -11.555   5.822  67.625  1.00  0.00     0.000 HD 
ENDROOT
BRANCH   2   4
HETATM    4  N   UNL     1     -11.138   7.644  70.143  1.00  0.00    -0.247 N  
HETATM    5  C   UNL     1      -9.818   8.236  70.054  1.00  0.00    -0.182 C  
HETATM    6  O   UNL     1     -12.714   7.328  71.822  1.00  0.00    -0.332 OA 
HETATM    7  C   UNL     1      -9.658   8.719  71.514  1.00  0.00    -0.284 C  
HETATM    8  N   UNL     1     -10.868   8.621  72.128  1.00  0.00    -0.354 NA 
HETATM    9  O   UNL     1      -8.660   9.185  72.042  1.00  0.00    -0.321 OA 
HETATM   10  C   UNL     1     -11.696   7.846  71.393  1.00  0.00    -0.281 C  
BRANCH   5  11
HETATM   11  N   UNL     1      -9.815   9.369  69.163  1.00  0.00    -0.169 N  
HETATM   12  H   UNL     1     -10.439  10.154  69.344  1.00  0.00     0.000 HD 
BRANCH  11  13
HETATM   13  C   UNL     1      -8.987   9.406  68.078  1.00  0.00    -0.127 C  
HETATM   14  O   UNL     1      -7.919  10.002  68.059  1.00  0.00    -0.100 OA 
BRANCH  13  15
HETATM   15  N   UNL     1      -9.446   8.633  67.044  1.00  0.00    -0.160 N  
HETATM   16  H   UNL     1      -9.417   7.616  67.115  1.00  0.00     0.000 HD 
BRANCH  15  17
HETATM   17  C   UNL     1      -9.968   9.256  65.864  1.00  0.00    -0.219 C  
BRANCH  17  18
HETATM   18  N   UNL     1      -9.690  10.667  65.826  1.00  0.00    -0.208 N  
HETATM   19  H   UNL     1      -8.923  11.056  66.374  1.00  0.00     0.000 HD 
BRANCH  18  20
HETATM   20  C   UNL     1     -10.466  11.485  65.047  1.00  0.00    -0.290 C  
HETATM   21  O   UNL     1     -10.295  11.644  63.845  1.00  0.00    -0.296 OA 
BRANCH  20  22
HETATM   22  N   UNL     1     -11.466  12.100  65.762  1.00  0.00    -0.361 N  
HETATM   23  H   UNL     1     -12.436  12.093  65.447  1.00  0.00     0.000 HD 
BRANCH  22  24
HETATM   24  C   UNL     1     -11.067  12.752  66.980  1.00  0.00    -0.278 C  
HETATM   25  N   UNL     1     -11.387  14.154  67.090  1.00  0.00    -0.317 N  
HETATM   26  O   UNL     1     -12.200  11.137  68.503  1.00  0.00    -0.600 OA 
HETATM   27  C   UNL     1     -11.737  14.485  68.384  1.00  0.00    -0.333 C  
HETATM   28  N   UNL     1     -11.944  13.339  69.079  1.00  0.00    -0.311 NA 
HETATM   29  O   UNL     1     -11.888  15.609  68.831  1.00  0.00    -0.379 OA 
HETATM   30  C   UNL     1     -11.807  12.266  68.249  1.00  0.00    -0.310 C  
BRANCH  25  31
HETATM   31  C   UNL     1     -11.092  15.116  66.077  1.00  0.00    -0.312 C  
HETATM   32  H   UNL     1     -11.658  15.452  64.259  1.00  0.00     0.000 HD 
HETATM   33  O   UNL     1     -11.854  14.812  64.933  1.00  0.00    -0.382 OA 
ENDBRANCH  25  31
ENDBRANCH  22  24
ENDBRANCH  20  22
ENDBRANCH  18  20
ENDBRANCH  17  18
ENDBRANCH  15  17
ENDBRANCH  13  15
ENDBRANCH  11  13
ENDBRANCH   5  11
ENDBRANCH   2   4
TORSDOF 10
ENDMDL
MODEL      127
REMARK 921   NORMALIZED FREE ENERGY PREDICTED BY IDOCK:   -5.39 KCAL/MOL
REMARK 922        TOTAL FREE ENERGY PREDICTED BY IDOCK:  -10.53 KCAL/MOL
REMARK 923 INTER-LIGAND FREE ENERGY PREDICTED BY IDOCK:   -9.05 KCAL/MOL
REMARK 924 INTRA-LIGAND FREE ENERGY PREDICTED BY IDOCK:   -1.48 KCAL/MOL
REMARK 927      BINDING AFFINITY PREDICTED BY RF-SCORE:    0.00 PKD
ROOT
HETATM    1  O   UNL     1     -11.931   6.819  70.186  1.00  0.00    -0.608 OA 
HETATM    2  C   UNL     1     -12.501   7.717  71.107  1.00  0.00    -0.223 C  
HETATM    3  H   UNL     1     -12.600   6.212  69.892  1.00  0.00     0.000 HD 
ENDROOT
BRANCH   2   4
HETATM    4  N   UNL     1     -11.492   8.633  71.550  1.00  0.00    -0.274 N  
HETATM    5  C   UNL     1     -10.829   9.508  70.604  1.00  0.00    -0.306 C  
HETATM    6  O   UNL     1     -10.841   7.352  73.377  1.00  0.00    -0.388 OA 
HETATM    7  C   UNL     1      -9.388   9.434  71.158  1.00  0.00    -0.073 C  
HETATM    8  N   UNL     1      -9.433   8.833  72.378  1.00  0.00    -0.321 NA 
HETATM    9  O   UNL     1      -8.370   9.890  70.659  1.00  0.00    -0.180 OA 
HETATM   10  C   UNL     1     -10.624   8.217  72.543  1.00  0.00    -0.340 C  
BRANCH   5  11
HETATM   11  N   UNL     1     -11.323  10.859  70.709  1.00  0.00    -0.339 N  
HETATM   12  H   UNL     1     -11.465  11.272  71.630  1.00  0.00     0.000 HD 
BRANCH  11  13
HETATM   13  C   UNL     1     -11.603  11.592  69.592  1.00  0.00    -0.333 C  
HETATM   14  O   UNL     1     -12.040  11.110  68.556  1.00  0.00    -0.586 OA 
BRANCH  13  15
HETATM   15  N   UNL     1     -11.417  12.935  69.789  1.00  0.00    -0.493 N  
HETATM   16  H   UNL     1     -10.986  13.269  70.651  1.00  0.00     0.000 HD 
BRANCH  15  17
HETATM   17  C   UNL     1     -11.827  13.868  68.783  1.00  0.00    -0.361 C  
BRANCH  17  18
HETATM   18  N   UNL     1     -11.185  13.622  67.518  1.00  0.00    -0.284 N  
HETATM   19  H   UNL     1     -10.798  12.702  67.308  1.00  0.00     0.000 HD 
BRANCH  18  20
HETATM   20  C   UNL     1     -11.098  14.634  66.599  1.00  0.00    -0.334 C  
HETATM   21  O   UNL     1     -11.089  14.456  65.388  1.00  0.00    -0.305 OA 
BRANCH  20  22
HETATM   22  N   UNL     1     -11.035  15.876  67.187  1.00  0.00    -0.267 N  
HETATM   23  H   UNL     1     -11.843  16.297  67.645  1.00  0.00     0.000 HD 
BRANCH  22  24
HETATM   24  C   UNL     1      -9.765  16.546  67.120  1.00  0.00    -0.245 C  
HETATM   25  N   UNL     1      -9.804  17.980  66.978  1.00  0.00    -0.305 N  
HETATM   26  O   UNL     1      -8.865  15.571  69.229  1.00  0.00    -0.228 OA 
HETATM   27  C   UNL     1      -8.782  18.580  67.687  1.00  0.00    -0.267 C  
HETATM   28  N   UNL     1      -8.239  17.657  68.519  1.00  0.00    -0.288 NA 
HETATM   29  O   UNL     1      -8.444  19.749  67.626  1.00  0.00    -0.303 OA 
HETATM   30  C   UNL     1      -8.929  16.485  68.422  1.00  0.00    -0.219 C  
BRANCH  25  31
HETATM   31  C   UNL     1     -10.598  18.659  66.003  1.00  0.00    -0.365 C  
HETATM   32  H   UNL     1     -11.349  18.238  64.272  1.00  0.00     0.000 HD 
HETATM   33  O   UNL     1     -10.821  17.787  64.921  1.00  0.00    -0.815 OA 
ENDBRANCH  25  31
ENDBRANCH  22  24
ENDBRANCH  20  22
ENDBRANCH  18  20
ENDBRANCH  17  18
ENDBRANCH  15  17
ENDBRANCH  13  15
ENDBRANCH  11  13
ENDBRANCH   5  11
ENDBRANCH   2   4
TORSDOF 10
ENDMDL
MODEL      128
REMARK 921   NORMALIZED FREE ENERGY PREDICTED BY IDOCK:   -5.38 KCAL/MOL
REMARK 922        TOTAL FREE ENERGY PREDICTED BY IDOCK:  -10.52 KCAL/MOL
REMARK 923 INTER-LIGAND FREE ENERGY PREDICTED BY IDOCK:   -8.48 KCAL/MOL
REMARK 924 INTRA-LIGAND FREE ENERGY PREDICTED BY IDOCK:   -2.04 KCAL/MOL
REMARK 927      BINDING AFFINITY PREDICTED BY RF-SCORE:    0.00 PKD
ROOT
HETATM    1  O   UNL     1     -11.694  10.873  67.395  1.00  0.00    -0.510 OA 
HETATM    2  C   UNL     1     -10.718   9.968  67.852  1.00  0.00    -0.272 C  
HETATM    3  H   UNL     1     -12.436  10.853  67.987  1.00  0.00     0.000 HD 
ENDROOT
BRANCH   2   4
HETATM    4  N   UNL     1      -9.599   9.999  66.958  1.00  0.00    -0.166 N  
HETATM    5  C   UNL     1      -9.790  10.292  65.552  1.00  0.00    -0.282 C  
HETATM    6  O   UNL     1      -8.313   8.506  68.191  1.00  0.00    -0.124 OA 
HETATM    7  C   UNL     1      -8.791   9.282  64.944  1.00  0.00    -0.193 C  
HETATM    8  N   UNL     1      -8.022   8.788  65.952  1.00  0.00    -0.101 NA 
HETATM    9  O   UNL     1      -8.632   9.004  63.765  1.00  0.00    -0.191 OA 
HETATM   10  C   UNL     1      -8.589   9.072  67.145  1.00  0.00    -0.116 C  
BRANCH   5  11
HETATM   11  N   UNL     1      -9.376  11.637  65.239  1.00  0.00    -0.389 N  
HETATM   12  H   UNL     1      -8.404  11.911  65.384  1.00  0.00     0.000 HD 
BRANCH  11  13
HETATM   13  C   UNL     1     -10.266  12.550  64.752  1.00  0.00    -0.280 C  
HETATM   14  O   UNL     1     -10.614  12.601  63.580  1.00  0.00    -0.418 OA 
BRANCH  13  15
HETATM   15  N   UNL     1     -10.786  13.349  65.737  1.00  0.00    -0.273 N  
HETATM   16  H   UNL     1     -11.783  13.565  65.745  1.00  0.00     0.000 HD 
BRANCH  15  17
HETATM   17  C   UNL     1      -9.928  13.879  66.754  1.00  0.00    -0.269 C  
BRANCH  17  18
HETATM   18  N   UNL     1     -10.436  13.630  68.078  1.00  0.00    -0.242 N  
HETATM   19  H   UNL     1      -9.868  13.129  68.761  1.00  0.00     0.000 HD 
BRANCH  18  20
HETATM   20  C   UNL     1     -11.690  14.070  68.412  1.00  0.00    -0.354 C  
HETATM   21  O   UNL     1     -12.410  14.711  67.659  1.00  0.00    -0.171 OA 
BRANCH  20  22
HETATM   22  N   UNL     1     -12.055  13.700  69.685  1.00  0.00    -0.328 N  
HETATM   23  H   UNL     1     -11.979  12.736  70.009  1.00  0.00     0.000 HD 
BRANCH  22  24
HETATM   24  C   UNL     1     -12.550  14.750  70.533  1.00  0.00    -0.359 C  
HETATM   25  N   UNL     1     -12.893  14.376  71.884  1.00  0.00    -0.334 N  
HETATM   26  O   UNL     1     -10.624  16.289  70.164  1.00  0.00    -0.278 OA 
HETATM   27  C   UNL     1     -12.572  15.379  72.776  1.00  0.00    -0.400 C  
HETATM   28  N   UNL     1     -11.780  16.280  72.143  1.00  0.00    -0.494 NA 
HETATM   29  O   UNL     1     -12.895  15.438  73.950  1.00  0.00    -0.530 OA 
HETATM   30  C   UNL     1     -11.516  15.851  70.875  1.00  0.00    -0.409 C  
BRANCH  25  31
HETATM   31  C   UNL     1     -13.719  13.257  72.210  1.00  0.00    -0.589 C  
HETATM   32  H   UNL     1     -13.563  11.332  72.128  1.00  0.00     0.000 HD 
HETATM   33  O   UNL     1     -13.014  12.076  71.911  1.00  0.00    -0.400 OA 
ENDBRANCH  25  31
ENDBRANCH  22  24
ENDBRANCH  20  22
ENDBRANCH  18  20
ENDBRANCH  17  18
ENDBRANCH  15  17
ENDBRANCH  13  15
ENDBRANCH  11  13
ENDBRANCH   5  11
ENDBRANCH   2   4
TORSDOF 10
ENDMDL
MODEL      129
REMARK 921   NORMALIZED FREE ENERGY PREDICTED BY IDOCK:   -5.37 KCAL/MOL
REMARK 922        TOTAL FREE ENERGY PREDICTED BY IDOCK:  -10.50 KCAL/MOL
REMARK 923 INTER-LIGAND FREE ENERGY PREDICTED BY IDOCK:   -8.21 KCAL/MOL
REMARK 924 INTRA-LIGAND FREE ENERGY PREDICTED BY IDOCK:   -2.29 KCAL/MOL
REMARK 927      BINDING AFFINITY PREDICTED BY RF-SCORE:    0.00 PKD
ROOT
HETATM    1  O   UNL     1     -11.458  11.385  63.240  1.00  0.00    -0.812 OA 
HETATM    2  C   UNL     1     -10.144  11.038  62.876  1.00  0.00    -0.163 C  
HETATM    3  H   UNL     1     -11.866  11.847  62.518  1.00  0.00     0.000 HD 
ENDROOT
BRANCH   2   4
HETATM    4  N   UNL     1      -9.527  10.341  63.965  1.00  0.00    -0.284 N  
HETATM    5  C   UNL     1      -9.295  11.012  65.228  1.00  0.00    -0.216 C  
HETATM    6  O   UNL     1      -8.340   8.865  62.618  1.00  0.00    -0.181 OA 
HETATM    7  C   UNL     1      -7.901  10.437  65.569  1.00  0.00    -0.152 C  
HETATM    8  N   UNL     1      -7.648   9.408  64.715  1.00  0.00    -0.107 NA 
HETATM    9  O   UNL     1      -7.159  10.766  66.481  1.00  0.00    -0.123 OA 
HETATM   10  C   UNL     1      -8.511   9.448  63.677  1.00  0.00    -0.200 C  
BRANCH   5  11
HETATM   11  N   UNL     1     -10.251  10.595  66.224  1.00  0.00    -0.240 N  
HETATM   12  H   UNL     1     -10.244   9.631  66.555  1.00  0.00     0.000 HD 
BRANCH  11  13
HETATM   13  C   UNL     1     -11.166  11.474  66.728  1.00  0.00    -0.285 C  
HETATM   14  O   UNL     1     -11.820  11.266  67.741  1.00  0.00    -0.610 OA 
BRANCH  13  15
HETATM   15  N   UNL     1     -11.210  12.646  66.020  1.00  0.00    -0.293 N  
HETATM   16  H   UNL     1     -10.519  12.828  65.293  1.00  0.00     0.000 HD 
BRANCH  15  17
HETATM   17  C   UNL     1     -12.228  13.614  66.302  1.00  0.00    -0.436 C  
BRANCH  17  18
HETATM   18  N   UNL     1     -12.174  14.078  67.664  1.00  0.00    -0.535 N  
HETATM   19  H   UNL     1     -12.557  13.507  68.418  1.00  0.00     0.000 HD 
BRANCH  18  20
HETATM   20  C   UNL     1     -11.603  15.292  67.939  1.00  0.00    -0.289 C  
HETATM   21  O   UNL     1     -11.658  15.839  69.033  1.00  0.00    -0.360 OA 
BRANCH  20  22
HETATM   22  N   UNL     1     -10.950  15.825  66.853  1.00  0.00    -0.263 N  
HETATM   23  H   UNL     1     -11.188  15.560  65.897  1.00  0.00     0.000 HD 
BRANCH  22  24
HETATM   24  C   UNL     1      -9.913  16.778  67.141  1.00  0.00    -0.274 C  
HETATM   25  N   UNL     1      -8.556  16.301  67.036  1.00  0.00    -0.186 N  
HETATM   26  O   UNL     1     -10.709  18.500  65.525  1.00  0.00    -0.586 OA 
HETATM   27  C   UNL     1      -7.721  17.277  66.531  1.00  0.00    -0.290 C  
HETATM   28  N   UNL     1      -8.486  18.278  66.029  1.00  0.00    -0.511 NA 
HETATM   29  O   UNL     1      -6.503  17.242  66.490  1.00  0.00    -0.200 OA 
HETATM   30  C   UNL     1      -9.805  17.946  66.130  1.00  0.00    -0.249 C  
BRANCH  25  31
HETATM   31  C   UNL     1      -8.091  15.096  67.648  1.00  0.00    -0.162 C  
HETATM   32  H   UNL     1      -8.237  13.201  67.295  1.00  0.00     0.000 HD 
HETATM   33  O   UNL     1      -8.546  14.002  66.889  1.00  0.00    -0.204 OA 
ENDBRANCH  25  31
ENDBRANCH  22  24
ENDBRANCH  20  22
ENDBRANCH  18  20
ENDBRANCH  17  18
ENDBRANCH  15  17
ENDBRANCH  13  15
ENDBRANCH  11  13
ENDBRANCH   5  11
ENDBRANCH   2   4
TORSDOF 10
ENDMDL
MODEL      130
REMARK 921   NORMALIZED FREE ENERGY PREDICTED BY IDOCK:   -5.37 KCAL/MOL
REMARK 922        TOTAL FREE ENERGY PREDICTED BY IDOCK:  -10.50 KCAL/MOL
REMARK 923 INTER-LIGAND FREE ENERGY PREDICTED BY IDOCK:   -8.93 KCAL/MOL
REMARK 924 INTRA-LIGAND FREE ENERGY PREDICTED BY IDOCK:   -1.58 KCAL/MOL
REMARK 927      BINDING AFFINITY PREDICTED BY RF-SCORE:    0.00 PKD
ROOT
HETATM    1  O   UNL     1     -11.513   7.558  73.635  1.00  0.00    -0.515 OA 
HETATM    2  C   UNL     1     -10.113   7.412  73.656  1.00  0.00    -0.325 C  
HETATM    3  H   UNL     1     -11.889   7.027  74.326  1.00  0.00     0.000 HD 
ENDROOT
BRANCH   2   4
HETATM    4  N   UNL     1      -9.546   8.214  72.613  1.00  0.00    -0.258 N  
HETATM    5  C   UNL     1     -10.208   8.325  71.330  1.00  0.00    -0.202 C  
HETATM    6  O   UNL     1      -7.352   7.973  73.342  1.00  0.00    -0.121 OA 
HETATM    7  C   UNL     1      -8.973   8.278  70.402  1.00  0.00    -0.146 C  
HETATM    8  N   UNL     1      -7.860   8.420  71.171  1.00  0.00    -0.095 NA 
HETATM    9  O   UNL     1      -8.956   8.205  69.182  1.00  0.00    -0.143 OA 
HETATM   10  C   UNL     1      -8.169   8.219  72.470  1.00  0.00    -0.164 C  
BRANCH   5  11
HETATM   11  N   UNL     1     -10.871   9.598  71.194  1.00  0.00    -0.353 N  
HETATM   12  H   UNL     1     -10.324  10.457  71.236  1.00  0.00     0.000 HD 
BRANCH  11  13
HETATM   13  C   UNL     1     -12.222   9.670  71.011  1.00  0.00    -0.323 C  
HETATM   14  O   UNL     1     -13.039   9.181  71.780  1.00  0.00    -0.342 OA 
BRANCH  13  15
HETATM   15  N   UNL     1     -12.561  10.417  69.914  1.00  0.00    -0.551 N  
HETATM   16  H   UNL     1     -13.537  10.656  69.741  1.00  0.00     0.000 HD 
BRANCH  15  17
HETATM   17  C   UNL     1     -11.543  10.863  69.010  1.00  0.00    -0.316 C  
BRANCH  17  18
HETATM   18  N   UNL     1     -11.865  12.131  68.410  1.00  0.00    -0.329 N  
HETATM   19  H   UNL     1     -11.982  12.208  67.399  1.00  0.00     0.000 HD 
BRANCH  18  20
HETATM   20  C   UNL     1     -12.015  13.235  69.208  1.00  0.00    -0.303 C  
HETATM   21  O   UNL     1     -11.925  13.211  70.428  1.00  0.00    -0.332 OA 
BRANCH  20  22
HETATM   22  N   UNL     1     -12.266  14.377  68.484  1.00  0.00    -0.588 N  
HETATM   23  H   UNL     1     -13.165  14.856  68.528  1.00  0.00     0.000 HD 
BRANCH  22  24
HETATM   24  C   UNL     1     -11.188  14.857  67.663  1.00  0.00    -0.323 C  
HETATM   25  N   UNL     1     -11.435  14.902  66.243  1.00  0.00    -0.312 N  
HETATM   26  O   UNL     1     -10.879  17.001  68.897  1.00  0.00    -0.307 OA 
HETATM   27  C   UNL     1     -10.832  16.001  65.665  1.00  0.00    -0.266 C  
HETATM   28  N   UNL     1     -10.439  16.843  66.654  1.00  0.00    -0.290 NA 
HETATM   29  O   UNL     1     -10.709  16.220  64.473  1.00  0.00    -0.619 OA 
HETATM   30  C   UNL     1     -10.835  16.351  67.863  1.00  0.00    -0.328 C  
BRANCH  25  31
HETATM   31  C   UNL     1     -11.968  13.806  65.497  1.00  0.00    -0.384 C  
HETATM   32  H   UNL     1     -13.603  13.433  64.534  1.00  0.00     0.000 HD 
HETATM   33  O   UNL     1     -13.247  14.162  65.030  1.00  0.00    -0.691 OA 
ENDBRANCH  25  31
ENDBRANCH  22  24
ENDBRANCH  20  22
ENDBRANCH  18  20
ENDBRANCH  17  18
ENDBRANCH  15  17
ENDBRANCH  13  15
ENDBRANCH  11  13
ENDBRANCH   5  11
ENDBRANCH   2   4
TORSDOF 10
ENDMDL
MODEL      131
REMARK 921   NORMALIZED FREE ENERGY PREDICTED BY IDOCK:   -5.35 KCAL/MOL
REMARK 922        TOTAL FREE ENERGY PREDICTED BY IDOCK:  -10.47 KCAL/MOL
REMARK 923 INTER-LIGAND FREE ENERGY PREDICTED BY IDOCK:   -8.40 KCAL/MOL
REMARK 924 INTRA-LIGAND FREE ENERGY PREDICTED BY IDOCK:   -2.07 KCAL/MOL
REMARK 927      BINDING AFFINITY PREDICTED BY RF-SCORE:    0.00 PKD
ROOT
HETATM    1  O   UNL     1     -13.182  11.699  71.646  1.00  0.00    -0.409 OA 
HETATM    2  C   UNL     1     -13.615  12.948  72.128  1.00  0.00    -0.495 C  
HETATM    3  H   UNL     1     -13.494  11.018  72.231  1.00  0.00     0.000 HD 
ENDROOT
BRANCH   2   4
HETATM    4  N   UNL     1     -13.144  13.975  71.247  1.00  0.00    -0.336 N  
HETATM    5  C   UNL     1     -11.898  13.811  70.528  1.00  0.00    -0.223 C  
HETATM    6  O   UNL     1     -14.203  15.711  72.374  1.00  0.00    -0.551 OA 
HETATM    7  C   UNL     1     -11.343  15.249  70.649  1.00  0.00    -0.313 C  
HETATM    8  N   UNL     1     -12.340  16.049  71.114  1.00  0.00    -0.374 NA 
HETATM    9  O   UNL     1     -10.237  15.654  70.324  1.00  0.00    -0.287 OA 
HETATM   10  C   UNL     1     -13.339  15.294  71.620  1.00  0.00    -0.463 C  
BRANCH   5  11
HETATM   11  N   UNL     1     -12.134  13.495  69.141  1.00  0.00    -0.320 N  
HETATM   12  H   UNL     1     -12.730  14.103  68.581  1.00  0.00     0.000 HD 
BRANCH  11  13
HETATM   13  C   UNL     1     -11.571  12.392  68.567  1.00  0.00    -0.313 C  
HETATM   14  O   UNL     1     -12.215  11.499  68.035  1.00  0.00    -0.582 OA 
BRANCH  13  15
HETATM   15  N   UNL     1     -10.201  12.438  68.583  1.00  0.00    -0.348 N  
HETATM   16  H   UNL     1      -9.722  13.228  69.014  1.00  0.00     0.000 HD 
BRANCH  15  17
HETATM   17  C   UNL     1      -9.444  11.374  67.993  1.00  0.00    -0.181 C  
BRANCH  17  18
HETATM   18  N   UNL     1      -9.300  10.251  68.882  1.00  0.00    -0.168 N  
HETATM   19  H   UNL     1      -8.805  10.357  69.769  1.00  0.00     0.000 HD 
BRANCH  18  20
HETATM   20  C   UNL     1      -9.833   9.040  68.529  1.00  0.00    -0.169 C  
HETATM   21  O   UNL     1     -10.332   8.808  67.436  1.00  0.00    -0.240 OA 
BRANCH  20  22
HETATM   22  N   UNL     1      -9.733   8.107  69.535  1.00  0.00    -0.168 N  
HETATM   23  H   UNL     1      -8.832   7.745  69.846  1.00  0.00     0.000 HD 
BRANCH  22  24
HETATM   24  C   UNL     1     -10.971   7.673  70.122  1.00  0.00    -0.246 C  
HETATM   25  N   UNL     1     -10.939   6.417  70.831  1.00  0.00    -0.264 N  
HETATM   26  O   UNL     1     -11.379   9.769  71.407  1.00  0.00    -0.369 OA 
HETATM   27  C   UNL     1     -11.757   6.450  71.943  1.00  0.00    -0.328 C  
HETATM   28  N   UNL     1     -12.111   7.739  72.176  1.00  0.00    -0.308 NA 
HETATM   29  O   UNL     1     -12.078   5.502  72.638  1.00  0.00    -0.199 OA 
HETATM   30  C   UNL     1     -11.485   8.558  71.284  1.00  0.00    -0.277 C  
BRANCH  25  31
HETATM   31  C   UNL     1     -10.378   5.219  70.293  1.00  0.00    -0.280 C  
HETATM   32  H   UNL     1     -10.055   4.493  68.531  1.00  0.00     0.000 HD 
HETATM   33  O   UNL     1     -10.427   5.291  68.889  1.00  0.00    -0.193 OA 
ENDBRANCH  25  31
ENDBRANCH  22  24
ENDBRANCH  20  22
ENDBRANCH  18  20
ENDBRANCH  17  18
ENDBRANCH  15  17
ENDBRANCH  13  15
ENDBRANCH  11  13
ENDBRANCH   5  11
ENDBRANCH   2   4
TORSDOF 10
ENDMDL
MODEL      132
REMARK 921   NORMALIZED FREE ENERGY PREDICTED BY IDOCK:   -5.34 KCAL/MOL
REMARK 922        TOTAL FREE ENERGY PREDICTED BY IDOCK:  -10.46 KCAL/MOL
REMARK 923 INTER-LIGAND FREE ENERGY PREDICTED BY IDOCK:   -8.20 KCAL/MOL
REMARK 924 INTRA-LIGAND FREE ENERGY PREDICTED BY IDOCK:   -2.26 KCAL/MOL
REMARK 927      BINDING AFFINITY PREDICTED BY RF-SCORE:    0.00 PKD
ROOT
HETATM    1  O   UNL     1     -11.260   7.211  68.393  1.00  0.00    -0.464 OA 
HETATM    2  C   UNL     1     -11.102   6.552  69.626  1.00  0.00    -0.376 C  
HETATM    3  H   UNL     1     -11.311   6.563  67.701  1.00  0.00     0.000 HD 
ENDROOT
BRANCH   2   4
HETATM    4  N   UNL     1     -11.025   7.529  70.671  1.00  0.00    -0.245 N  
HETATM    5  C   UNL     1      -9.809   8.290  70.876  1.00  0.00    -0.182 C  
HETATM    6  O   UNL     1     -12.595   6.493  72.036  1.00  0.00    -0.319 OA 
HETATM    7  C   UNL     1      -9.778   8.305  72.422  1.00  0.00    -0.303 C  
HETATM    8  N   UNL     1     -10.980   7.858  72.874  1.00  0.00    -0.400 NA 
HETATM    9  O   UNL     1      -8.882   8.709  73.148  1.00  0.00    -0.343 OA 
HETATM   10  C   UNL     1     -11.653   7.251  71.872  1.00  0.00    -0.277 C  
BRANCH   5  11
HETATM   11  N   UNL     1      -9.945   9.636  70.378  1.00  0.00    -0.267 N  
HETATM   12  H   UNL     1     -10.514  10.307  70.893  1.00  0.00     0.000 HD 
BRANCH  11  13
HETATM   13  C   UNL     1      -9.323  10.024  69.227  1.00  0.00    -0.214 C  
HETATM   14  O   UNL     1      -9.109   9.274  68.285  1.00  0.00    -0.129 OA 
BRANCH  13  15
HETATM   15  N   UNL     1      -9.040  11.364  69.213  1.00  0.00    -0.367 N  
HETATM   16  H   UNL     1      -8.644  11.810  70.041  1.00  0.00     0.000 HD 
BRANCH  15  17
HETATM   17  C   UNL     1      -9.300  12.138  68.036  1.00  0.00    -0.197 C  
BRANCH  17  18
HETATM   18  N   UNL     1     -10.288  13.160  68.266  1.00  0.00    -0.247 N  
HETATM   19  H   UNL     1     -10.037  14.016  68.761  1.00  0.00     0.000 HD 
BRANCH  18  20
HETATM   20  C   UNL     1     -11.567  12.974  67.812  1.00  0.00    -0.340 C  
HETATM   21  O   UNL     1     -11.840  12.494  66.720  1.00  0.00    -0.442 OA 
BRANCH  20  22
HETATM   22  N   UNL     1     -12.513  13.375  68.727  1.00  0.00    -0.049 N  
HETATM   23  H   UNL     1     -13.419  13.744  68.439  1.00  0.00     0.000 HD 
BRANCH  22  24
HETATM   24  C   UNL     1     -12.151  13.244  70.112  1.00  0.00    -0.333 C  
HETATM   25  N   UNL     1     -12.718  14.214  71.017  1.00  0.00    -0.343 N  
HETATM   26  O   UNL     1     -12.845  10.859  70.319  1.00  0.00    -0.267 OA 
HETATM   27  C   UNL     1     -13.024  13.641  72.235  1.00  0.00    -0.320 C  
HETATM   28  N   UNL     1     -12.961  12.292  72.102  1.00  0.00    -0.289 NA 
HETATM   29  O   UNL     1     -13.347  14.227  73.254  1.00  0.00    -0.596 OA 
HETATM   30  C   UNL     1     -12.690  11.969  70.806  1.00  0.00    -0.143 C  
BRANCH  25  31
HETATM   31  C   UNL     1     -12.684  15.623  70.789  1.00  0.00    -0.431 C  
HETATM   32  H   UNL     1     -11.455  16.882  69.988  1.00  0.00     0.000 HD 
HETATM   33  O   UNL     1     -11.477  15.945  70.140  1.00  0.00    -0.316 OA 
ENDBRANCH  25  31
ENDBRANCH  22  24
ENDBRANCH  20  22
ENDBRANCH  18  20
ENDBRANCH  17  18
ENDBRANCH  15  17
ENDBRANCH  13  15
ENDBRANCH  11  13
ENDBRANCH   5  11
ENDBRANCH   2   4
TORSDOF 10
ENDMDL
MODEL      133
REMARK 921   NORMALIZED FREE ENERGY PREDICTED BY IDOCK:   -5.33 KCAL/MOL
REMARK 922        TOTAL FREE ENERGY PREDICTED BY IDOCK:  -10.45 KCAL/MOL
REMARK 923 INTER-LIGAND FREE ENERGY PREDICTED BY IDOCK:   -8.24 KCAL/MOL
REMARK 924 INTRA-LIGAND FREE ENERGY PREDICTED BY IDOCK:   -2.21 KCAL/MOL
REMARK 927      BINDING AFFINITY PREDICTED BY RF-SCORE:    0.00 PKD
ROOT
HETATM    1  O   UNL     1      -8.906  11.038  64.303  1.00  0.00    -0.344 OA 
HETATM    2  C   UNL     1     -10.301  10.968  64.131  1.00  0.00    -0.369 C  
HETATM    3  H   UNL     1      -8.512  10.248  63.952  1.00  0.00     0.000 HD 
ENDROOT
BRANCH   2   4
HETATM    4  N   UNL     1     -10.895  12.159  64.660  1.00  0.00    -0.292 N  
HETATM    5  C   UNL     1     -10.660  12.549  66.035  1.00  0.00    -0.263 C  
HETATM    6  O   UNL     1     -12.723  12.130  63.224  1.00  0.00    -0.698 OA 
HETATM    7  C   UNL     1     -12.076  13.048  66.403  1.00  0.00    -0.358 C  
HETATM    8  N   UNL     1     -12.801  13.148  65.256  1.00  0.00    -0.684 NA 
HETATM    9  O   UNL     1     -12.490  13.380  67.504  1.00  0.00    -0.135 OA 
HETATM   10  C   UNL     1     -12.180  12.480  64.259  1.00  0.00    -0.452 C  
BRANCH   5  11
HETATM   11  N   UNL     1      -9.722  13.641  66.115  1.00  0.00    -0.380 N  
HETATM   12  H   UNL     1      -9.704  14.343  65.375  1.00  0.00     0.000 HD 
BRANCH  11  13
HETATM   13  C   UNL     1      -8.859  13.749  67.167  1.00  0.00    -0.231 C  
HETATM   14  O   UNL     1      -7.766  14.293  67.095  1.00  0.00    -0.164 OA 
BRANCH  13  15
HETATM   15  N   UNL     1      -9.387  13.251  68.329  1.00  0.00    -0.226 N  
HETATM   16  H   UNL     1      -9.457  12.243  68.467  1.00  0.00     0.000 HD 
BRANCH  15  17
HETATM   17  C   UNL     1      -9.843  14.148  69.349  1.00  0.00     0.309 C  
BRANCH  17  18
HETATM   18  N   UNL     1      -9.850  15.517  68.905  1.00  0.00    -0.207 N  
HETATM   19  H   UNL     1      -8.994  15.951  68.559  1.00  0.00     0.000 HD 
BRANCH  18  20
HETATM   20  C   UNL     1     -11.017  16.234  68.951  1.00  0.00    -0.334 C  
HETATM   21  O   UNL     1     -11.984  15.919  69.632  1.00  0.00    -0.335 OA 
BRANCH  20  22
HETATM   22  N   UNL     1     -10.978  17.355  68.155  1.00  0.00    -0.265 N  
HETATM   23  H   UNL     1     -11.811  17.714  67.688  1.00  0.00     0.000 HD 
BRANCH  22  24
HETATM   24  C   UNL     1      -9.696  17.992  68.019  1.00  0.00    -0.309 C  
HETATM   25  N   UNL     1      -9.197  18.146  66.675  1.00  0.00    -0.283 N  
HETATM   26  O   UNL     1     -10.300  20.031  69.319  1.00  0.00    -0.310 OA 
HETATM   27  C   UNL     1      -8.516  19.339  66.529  1.00  0.00    -0.325 C  
HETATM   28  N   UNL     1      -8.775  20.115  67.611  1.00  0.00    -0.323 NA 
HETATM   29  O   UNL     1      -7.835  19.675  65.576  1.00  0.00    -0.398 OA 
HETATM   30  C   UNL     1      -9.667  19.484  68.428  1.00  0.00    -0.410 C  
BRANCH  25  31
HETATM   31  C   UNL     1      -9.152  17.085  65.719  1.00  0.00     0.136 C  
HETATM   32  H   UNL     1     -10.442  16.027  64.743  1.00  0.00     0.000 HD 
HETATM   33  O   UNL     1     -10.471  16.733  65.378  1.00  0.00    -0.592 OA 
ENDBRANCH  25  31
ENDBRANCH  22  24
ENDBRANCH  20  22
ENDBRANCH  18  20
ENDBRANCH  17  18
ENDBRANCH  15  17
ENDBRANCH  13  15
ENDBRANCH  11  13
ENDBRANCH   5  11
ENDBRANCH   2   4
TORSDOF 10
ENDMDL
MODEL      134
REMARK 921   NORMALIZED FREE ENERGY PREDICTED BY IDOCK:   -5.31 KCAL/MOL
REMARK 922        TOTAL FREE ENERGY PREDICTED BY IDOCK:  -10.41 KCAL/MOL
REMARK 923 INTER-LIGAND FREE ENERGY PREDICTED BY IDOCK:   -8.70 KCAL/MOL
REMARK 924 INTRA-LIGAND FREE ENERGY PREDICTED BY IDOCK:   -1.71 KCAL/MOL
REMARK 927      BINDING AFFINITY PREDICTED BY RF-SCORE:    0.00 PKD
ROOT
HETATM    1  O   UNL     1     -11.473   5.935  73.480  1.00  0.00    -0.403 OA 
HETATM    2  C   UNL     1     -10.280   6.357  72.865  1.00  0.00    -0.191 C  
HETATM    3  H   UNL     1     -11.275   5.238  74.094  1.00  0.00     0.000 HD 
ENDROOT
BRANCH   2   4
HETATM    4  N   UNL     1     -10.579   7.408  71.940  1.00  0.00    -0.201 N  
HETATM    5  C   UNL     1     -11.292   7.123  70.711  1.00  0.00    -0.289 C  
HETATM    6  O   UNL     1      -8.773   8.738  72.550  1.00  0.00    -0.406 OA 
HETATM    7  C   UNL     1     -10.513   8.047  69.746  1.00  0.00    -0.227 C  
HETATM    8  N   UNL     1      -9.729   8.872  70.491  1.00  0.00    -0.189 NA 
HETATM    9  O   UNL     1     -10.611   8.111  68.530  1.00  0.00    -0.186 OA 
HETATM   10  C   UNL     1      -9.635   8.402  71.754  1.00  0.00    -0.234 C  
BRANCH   5  11
HETATM   11  N   UNL     1     -12.666   7.552  70.794  1.00  0.00    -0.564 N  
HETATM   12  H   UNL     1     -13.383   7.046  70.274  1.00  0.00     0.000 HD 
BRANCH  11  13
HETATM   13  C   UNL     1     -13.021   8.626  71.558  1.00  0.00    -0.312 C  
HETATM   14  O   UNL     1     -13.103   8.594  72.778  1.00  0.00    -0.304 OA 
BRANCH  13  15
HETATM   15  N   UNL     1     -13.194   9.762  70.812  1.00  0.00    -0.600 N  
HETATM   16  H   UNL     1     -13.672   9.714  69.913  1.00  0.00     0.000 HD 
BRANCH  15  17
HETATM   17  C   UNL     1     -12.703  11.018  71.297  1.00  0.00    -0.432 C  
BRANCH  17  18
HETATM   18  N   UNL     1     -11.475  11.406  70.653  1.00  0.00    -0.344 N  
HETATM   19  H   UNL     1     -10.632  11.564  71.205  1.00  0.00     0.000 HD 
BRANCH  18  20
HETATM   20  C   UNL     1     -11.449  11.562  69.292  1.00  0.00    -0.305 C  
HETATM   21  O   UNL     1     -12.363  11.228  68.550  1.00  0.00    -0.543 OA 
BRANCH  20  22
HETATM   22  N   UNL     1     -10.286  12.148  68.852  1.00  0.00    -0.413 N  
HETATM   23  H   UNL     1      -9.374  11.717  69.002  1.00  0.00     0.000 HD 
BRANCH  22  24
HETATM   24  C   UNL     1     -10.428  13.404  68.167  1.00  0.00    -0.245 C  
HETATM   25  N   UNL     1     -10.814  13.338  66.779  1.00  0.00    -0.279 N  
HETATM   26  O   UNL     1     -12.016  14.398  69.810  1.00  0.00    -0.293 OA 
HETATM   27  C   UNL     1     -11.662  14.375  66.446  1.00  0.00    -0.386 C  
HETATM   28  N   UNL     1     -12.089  14.964  67.591  1.00  0.00    -0.153 NA 
HETATM   29  O   UNL     1     -12.017  14.693  65.324  1.00  0.00    -0.354 OA 
HETATM   30  C   UNL     1     -11.595  14.289  68.668  1.00  0.00    -0.317 C  
BRANCH  25  31
HETATM   31  C   UNL     1     -10.173  12.497  65.818  1.00  0.00    -0.270 C  
HETATM   32  H   UNL     1     -10.473  10.736  65.079  1.00  0.00     0.000 HD 
HETATM   33  O   UNL     1     -10.899  11.296  65.717  1.00  0.00    -0.261 OA 
ENDBRANCH  25  31
ENDBRANCH  22  24
ENDBRANCH  20  22
ENDBRANCH  18  20
ENDBRANCH  17  18
ENDBRANCH  15  17
ENDBRANCH  13  15
ENDBRANCH  11  13
ENDBRANCH   5  11
ENDBRANCH   2   4
TORSDOF 10
ENDMDL
MODEL      135
REMARK 921   NORMALIZED FREE ENERGY PREDICTED BY IDOCK:   -5.28 KCAL/MOL
REMARK 922        TOTAL FREE ENERGY PREDICTED BY IDOCK:  -10.37 KCAL/MOL
REMARK 923 INTER-LIGAND FREE ENERGY PREDICTED BY IDOCK:   -9.29 KCAL/MOL
REMARK 924 INTRA-LIGAND FREE ENERGY PREDICTED BY IDOCK:   -1.08 KCAL/MOL
REMARK 927      BINDING AFFINITY PREDICTED BY RF-SCORE:    0.00 PKD
ROOT
HETATM    1  O   UNL     1     -11.704  12.476  63.235  1.00  0.00    -0.643 OA 
HETATM    2  C   UNL     1     -12.444  12.458  64.432  1.00  0.00    -0.433 C  
HETATM    3  H   UNL     1     -12.277  12.244  62.514  1.00  0.00     0.000 HD 
ENDROOT
BRANCH   2   4
HETATM    4  N   UNL     1     -11.579  12.807  65.520  1.00  0.00    -0.343 N  
HETATM    5  C   UNL     1     -11.385  14.195  65.886  1.00  0.00    -0.323 C  
HETATM    6  O   UNL     1     -10.223  10.931  65.312  1.00  0.00    -0.264 OA 
HETATM    7  C   UNL     1      -9.870  14.167  66.190  1.00  0.00    -0.308 C  
HETATM    8  N   UNL     1      -9.471  12.867  66.239  1.00  0.00    -0.236 NA 
HETATM    9  O   UNL     1      -9.136  15.115  66.428  1.00  0.00    -0.276 OA 
HETATM   10  C   UNL     1     -10.418  12.075  65.691  1.00  0.00    -0.256 C  
BRANCH   5  11
HETATM   11  N   UNL     1     -12.116  14.526  67.084  1.00  0.00    -0.536 N  
HETATM   12  H   UNL     1     -13.126  14.384  67.112  1.00  0.00     0.000 HD 
BRANCH  11  13
HETATM   13  C   UNL     1     -11.477  15.025  68.181  1.00  0.00    -0.339 C  
HETATM   14  O   UNL     1     -11.367  16.221  68.418  1.00  0.00    -0.367 OA 
BRANCH  13  15
HETATM   15  N   UNL     1     -11.043  14.038  69.027  1.00  0.00    -0.257 N  
HETATM   16  H   UNL     1     -10.065  13.749  69.015  1.00  0.00     0.000 HD 
BRANCH  15  17
HETATM   17  C   UNL     1     -11.965  13.412  69.927  1.00  0.00    -0.338 C  
BRANCH  17  18
HETATM   18  N   UNL     1     -11.578  12.064  70.250  1.00  0.00    -0.527 N  
HETATM   19  H   UNL     1     -10.681  11.696  69.934  1.00  0.00     0.000 HD 
BRANCH  18  20
HETATM   20  C   UNL     1     -12.425  11.279  70.988  1.00  0.00    -0.400 C  
HETATM   21  O   UNL     1     -13.196  11.715  71.832  1.00  0.00    -0.485 OA 
BRANCH  20  22
HETATM   22  N   UNL     1     -12.323   9.946  70.664  1.00  0.00    -0.440 N  
HETATM   23  H   UNL     1     -12.743   9.564  69.817  1.00  0.00     0.000 HD 
BRANCH  22  24
HETATM   24  C   UNL     1     -11.591   9.123  71.588  1.00  0.00    -0.379 C  
HETATM   25  N   UNL     1     -11.973   7.734  71.650  1.00  0.00    -0.286 N  
HETATM   26  O   UNL     1      -9.337   9.712  70.704  1.00  0.00    -0.239 OA 
HETATM   27  C   UNL     1     -10.873   6.922  71.844  1.00  0.00    -0.229 C  
HETATM   28  N   UNL     1      -9.754   7.659  71.630  1.00  0.00    -0.160 NA 
HETATM   29  O   UNL     1     -10.885   5.733  72.112  1.00  0.00    -0.225 OA 
HETATM   30  C   UNL     1     -10.099   8.917  71.232  1.00  0.00    -0.295 C  
BRANCH  25  31
HETATM   31  C   UNL     1     -13.323   7.289  71.794  1.00  0.00    -0.304 C  
HETATM   32  H   UNL     1     -15.019   8.093  72.257  1.00  0.00     0.000 HD 
HETATM   33  O   UNL     1     -14.121   8.389  72.161  1.00  0.00    -0.396 OA 
ENDBRANCH  25  31
ENDBRANCH  22  24
ENDBRANCH  20  22
ENDBRANCH  18  20
ENDBRANCH  17  18
ENDBRANCH  15  17
ENDBRANCH  13  15
ENDBRANCH  11  13
ENDBRANCH   5  11
ENDBRANCH   2   4
TORSDOF 10
ENDMDL
MODEL      136
REMARK 921   NORMALIZED FREE ENERGY PREDICTED BY IDOCK:   -5.28 KCAL/MOL
REMARK 922        TOTAL FREE ENERGY PREDICTED BY IDOCK:  -10.37 KCAL/MOL
REMARK 923 INTER-LIGAND FREE ENERGY PREDICTED BY IDOCK:   -8.25 KCAL/MOL
REMARK 924 INTRA-LIGAND FREE ENERGY PREDICTED BY IDOCK:   -2.12 KCAL/MOL
REMARK 927      BINDING AFFINITY PREDICTED BY RF-SCORE:    0.00 PKD
ROOT
HETATM    1  O   UNL     1     -10.368   9.235  66.214  1.00  0.00    -0.240 OA 
HETATM    2  C   UNL     1      -9.567   9.958  65.312  1.00  0.00    -0.295 C  
HETATM    3  H   UNL     1      -9.918   8.432  66.452  1.00  0.00     0.000 HD 
ENDROOT
BRANCH   2   4
HETATM    4  N   UNL     1     -10.245  11.168  64.954  1.00  0.00    -0.283 N  
HETATM    5  C   UNL     1     -11.533  11.488  65.535  1.00  0.00    -0.004 C  
HETATM    6  O   UNL     1      -9.283  11.324  62.843  1.00  0.00    -0.320 OA 
HETATM    7  C   UNL     1     -12.236  12.072  64.289  1.00  0.00    -0.308 C  
HETATM    8  N   UNL     1     -11.296  12.267  63.325  1.00  0.00    -0.396 NA 
HETATM    9  O   UNL     1     -13.410  12.391  64.172  1.00  0.00    -0.638 OA 
HETATM   10  C   UNL     1     -10.167  11.595  63.640  1.00  0.00    -0.412 C  
BRANCH   5  11
HETATM   11  N   UNL     1     -11.409  12.506  66.548  1.00  0.00    -0.314 N  
HETATM   12  H   UNL     1     -11.424  13.489  66.277  1.00  0.00     0.000 HD 
BRANCH  11  13
HETATM   13  C   UNL     1     -11.273  12.173  67.865  1.00  0.00    -0.272 C  
HETATM   14  O   UNL     1     -10.356  11.490  68.301  1.00  0.00    -0.183 OA 
BRANCH  13  15
HETATM   15  N   UNL     1     -12.231  12.755  68.652  1.00  0.00    -0.085 N  
HETATM   16  H   UNL     1     -13.205  12.467  68.567  1.00  0.00     0.000 HD 
BRANCH  15  17
HETATM   17  C   UNL     1     -11.862  13.770  69.594  1.00  0.00    -0.333 C  
BRANCH  17  18
HETATM   18  N   UNL     1     -12.333  15.072  69.203  1.00  0.00    -0.587 N  
HETATM   19  H   UNL     1     -13.104  15.163  68.541  1.00  0.00     0.000 HD 
BRANCH  18  20
HETATM   20  C   UNL     1     -11.738  16.189  69.727  1.00  0.00    -0.189 C  
HETATM   21  O   UNL     1     -11.453  16.318  70.910  1.00  0.00    -0.406 OA 
BRANCH  20  22
HETATM   22  N   UNL     1     -11.485  17.147  68.773  1.00  0.00     0.045 N  
HETATM   23  H   UNL     1     -12.237  17.623  68.274  1.00  0.00     0.000 HD 
BRANCH  22  24
HETATM   24  C   UNL     1     -10.100  17.439  68.520  1.00  0.00    -0.352 C  
HETATM   25  N   UNL     1      -9.547  16.911  67.297  1.00  0.00    -0.242 N  
HETATM   26  O   UNL     1     -10.324  19.909  68.769  1.00  0.00    -0.433 OA 
HETATM   27  C   UNL     1      -8.642  17.791  66.737  1.00  0.00    -0.252 C  
HETATM   28  N   UNL     1      -8.770  18.991  67.359  1.00  0.00    -0.276 NA 
HETATM   29  O   UNL     1      -7.885  17.564  65.810  1.00  0.00    -0.544 OA 
HETATM   30  C   UNL     1      -9.789  18.934  68.264  1.00  0.00    -0.374 C  
BRANCH  25  31
HETATM   31  C   UNL     1      -9.688  15.550  66.887  1.00  0.00    -0.233 C  
HETATM   32  H   UNL     1     -11.050  14.481  66.027  1.00  0.00     0.000 HD 
HETATM   33  O   UNL     1     -10.956  15.387  66.300  1.00  0.00    -0.324 OA 
ENDBRANCH  25  31
ENDBRANCH  22  24
ENDBRANCH  20  22
ENDBRANCH  18  20
ENDBRANCH  17  18
ENDBRANCH  15  17
ENDBRANCH  13  15
ENDBRANCH  11  13
ENDBRANCH   5  11
ENDBRANCH   2   4
TORSDOF 10
ENDMDL
MODEL      137
REMARK 921   NORMALIZED FREE ENERGY PREDICTED BY IDOCK:   -5.28 KCAL/MOL
REMARK 922        TOTAL FREE ENERGY PREDICTED BY IDOCK:  -10.36 KCAL/MOL
REMARK 923 INTER-LIGAND FREE ENERGY PREDICTED BY IDOCK:   -8.33 KCAL/MOL
REMARK 924 INTRA-LIGAND FREE ENERGY PREDICTED BY IDOCK:   -2.04 KCAL/MOL
REMARK 927      BINDING AFFINITY PREDICTED BY RF-SCORE:    0.00 PKD
ROOT
HETATM    1  O   UNL     1     -12.416  10.405  69.461  1.00  0.00    -0.584 OA 
HETATM    2  C   UNL     1     -11.463  11.403  69.736  1.00  0.00    -0.300 C  
HETATM    3  H   UNL     1     -11.965   9.602  69.231  1.00  0.00     0.000 HD 
ENDROOT
BRANCH   2   4
HETATM    4  N   UNL     1     -12.143  12.615  70.082  1.00  0.00    -0.334 N  
HETATM    5  C   UNL     1     -11.568  13.901  69.746  1.00  0.00    -0.270 C  
HETATM    6  O   UNL     1     -13.251  11.710  71.915  1.00  0.00    -0.485 OA 
HETATM    7  C   UNL     1     -11.922  14.681  71.033  1.00  0.00    -0.339 C  
HETATM    8  N   UNL     1     -12.803  13.934  71.752  1.00  0.00    -0.338 NA 
HETATM    9  O   UNL     1     -11.559  15.804  71.351  1.00  0.00    -0.371 OA 
HETATM   10  C   UNL     1     -12.813  12.664  71.292  1.00  0.00    -0.250 C  
BRANCH   5  11
HETATM   11  N   UNL     1     -12.241  14.494  68.617  1.00  0.00    -0.579 N  
HETATM   12  H   UNL     1     -13.260  14.515  68.592  1.00  0.00     0.000 HD 
BRANCH  11  13
HETATM   13  C   UNL     1     -11.532  15.028  67.579  1.00  0.00    -0.328 C  
HETATM   14  O   UNL     1     -11.403  16.230  67.392  1.00  0.00    -0.081 OA 
BRANCH  13  15
HETATM   15  N   UNL     1     -10.916  14.069  66.820  1.00  0.00    -0.294 N  
HETATM   16  H   UNL     1     -11.040  13.082  67.045  1.00  0.00     0.000 HD 
BRANCH  15  17
HETATM   17  C   UNL     1     -10.095  14.453  65.710  1.00  0.00    -0.340 C  
BRANCH  17  18
HETATM   18  N   UNL     1      -8.991  15.284  66.113  1.00  0.00    -0.451 N  
HETATM   19  H   UNL     1      -8.741  16.108  65.566  1.00  0.00     0.000 HD 
BRANCH  18  20
HETATM   20  C   UNL     1      -8.278  14.959  67.237  1.00  0.00    -0.209 C  
HETATM   21  O   UNL     1      -7.682  13.900  67.383  1.00  0.00    -0.171 OA 
BRANCH  20  22
HETATM   22  N   UNL     1      -8.296  15.960  68.179  1.00  0.00    -0.159 N  
HETATM   23  H   UNL     1      -9.027  16.021  68.888  1.00  0.00     0.000 HD 
BRANCH  22  24
HETATM   24  C   UNL     1      -7.225  16.916  68.109  1.00  0.00    -0.170 C  
HETATM   25  N   UNL     1      -7.608  18.306  68.065  1.00  0.00    -0.244 N  
HETATM   26  O   UNL     1      -6.009  16.067  70.112  1.00  0.00    -0.183 OA 
HETATM   27  C   UNL     1      -6.721  19.091  68.773  1.00  0.00    -0.287 C  
HETATM   28  N   UNL     1      -5.931  18.279  69.520  1.00  0.00    -0.244 NA 
HETATM   29  O   UNL     1      -6.671  20.309  68.778  1.00  0.00    -0.297 OA 
HETATM   30  C   UNL     1      -6.330  16.984  69.370  1.00  0.00    -0.236 C  
BRANCH  25  31
HETATM   31  C   UNL     1      -8.590  18.829  67.169  1.00  0.00    -0.277 C  
HETATM   32  H   UNL     1      -8.918  18.773  65.264  1.00  0.00     0.000 HD 
HETATM   33  O   UNL     1      -8.265  18.425  65.861  1.00  0.00    -0.505 OA 
ENDBRANCH  25  31
ENDBRANCH  22  24
ENDBRANCH  20  22
ENDBRANCH  18  20
ENDBRANCH  17  18
ENDBRANCH  15  17
ENDBRANCH  13  15
ENDBRANCH  11  13
ENDBRANCH   5  11
ENDBRANCH   2   4
TORSDOF 10
ENDMDL
MODEL      138
REMARK 921   NORMALIZED FREE ENERGY PREDICTED BY IDOCK:   -5.27 KCAL/MOL
REMARK 922        TOTAL FREE ENERGY PREDICTED BY IDOCK:  -10.34 KCAL/MOL
REMARK 923 INTER-LIGAND FREE ENERGY PREDICTED BY IDOCK:   -8.50 KCAL/MOL
REMARK 924 INTRA-LIGAND FREE ENERGY PREDICTED BY IDOCK:   -1.84 KCAL/MOL
REMARK 927      BINDING AFFINITY PREDICTED BY RF-SCORE:    0.00 PKD
ROOT
HETATM    1  O   UNL     1      -6.618  18.944  65.013  1.00  0.00    -0.476 OA 
HETATM    2  C   UNL     1      -6.827  17.865  65.892  1.00  0.00    -0.280 C  
HETATM    3  H   UNL     1      -5.953  18.703  64.380  1.00  0.00     0.000 HD 
ENDROOT
BRANCH   2   4
HETATM    4  N   UNL     1      -7.829  18.230  66.848  1.00  0.00    -0.223 N  
HETATM    5  C   UNL     1      -9.235  18.126  66.514  1.00  0.00    -0.281 C  
HETATM    6  O   UNL     1      -6.491  19.762  67.971  1.00  0.00    -0.228 OA 
HETATM    7  C   UNL     1      -9.751  19.419  67.185  1.00  0.00    -0.333 C  
HETATM    8  N   UNL     1      -8.760  19.910  67.977  1.00  0.00    -0.297 NA 
HETATM    9  O   UNL     1     -10.869  19.908  67.107  1.00  0.00    -0.409 OA 
HETATM   10  C   UNL     1      -7.586  19.320  67.664  1.00  0.00    -0.244 C  
BRANCH   5  11
HETATM   11  N   UNL     1      -9.837  16.977  67.143  1.00  0.00    -0.262 N  
HETATM   12  H   UNL     1     -10.328  17.088  68.029  1.00  0.00     0.000 HD 
BRANCH  11  13
HETATM   13  C   UNL     1      -9.759  15.741  66.567  1.00  0.00    -0.265 C  
HETATM   14  O   UNL     1      -9.527  14.715  67.191  1.00  0.00    -0.215 OA 
BRANCH  13  15
HETATM   15  N   UNL     1     -10.050  15.770  65.229  1.00  0.00    -0.290 N  
HETATM   16  H   UNL     1      -9.309  15.936  64.549  1.00  0.00     0.000 HD 
BRANCH  15  17
HETATM   17  C   UNL     1     -11.397  15.566  64.786  1.00  0.00    -0.357 C  
BRANCH  17  18
HETATM   18  N   UNL     1     -11.918  14.289  65.198  1.00  0.00    -0.378 N  
HETATM   19  H   UNL     1     -12.091  14.098  66.186  1.00  0.00     0.000 HD 
BRANCH  18  20
HETATM   20  C   UNL     1     -12.180  13.331  64.254  1.00  0.00    -0.392 C  
HETATM   21  O   UNL     1     -12.631  13.575  63.143  1.00  0.00    -0.762 OA 
BRANCH  20  22
HETATM   22  N   UNL     1     -11.867  12.065  64.688  1.00  0.00    -0.304 N  
HETATM   23  H   UNL     1     -12.554  11.311  64.691  1.00  0.00     0.000 HD 
BRANCH  22  24
HETATM   24  C   UNL     1     -10.516  11.864  65.138  1.00  0.00    -0.287 C  
HETATM   25  N   UNL     1     -10.330  10.902  66.197  1.00  0.00    -0.248 N  
HETATM   26  O   UNL     1      -9.581  11.365  62.883  1.00  0.00    -0.367 OA 
HETATM   27  C   UNL     1      -9.156  10.196  66.028  1.00  0.00    -0.154 C  
HETATM   28  N   UNL     1      -8.692  10.428  64.775  1.00  0.00    -0.179 NA 
HETATM   29  O   UNL     1      -8.635   9.447  66.837  1.00  0.00    -0.126 OA 
HETATM   30  C   UNL     1      -9.574  11.215  64.095  1.00  0.00    -0.255 C  
BRANCH  25  31
HETATM   31  C   UNL     1     -11.095  10.894  67.403  1.00  0.00    -0.307 C  
HETATM   32  H   UNL     1     -12.490  11.982  68.183  1.00  0.00     0.000 HD 
HETATM   33  O   UNL     1     -11.980  11.987  67.381  1.00  0.00    -0.583 OA 
ENDBRANCH  25  31
ENDBRANCH  22  24
ENDBRANCH  20  22
ENDBRANCH  18  20
ENDBRANCH  17  18
ENDBRANCH  15  17
ENDBRANCH  13  15
ENDBRANCH  11  13
ENDBRANCH   5  11
ENDBRANCH   2   4
TORSDOF 10
ENDMDL
MODEL      139
REMARK 921   NORMALIZED FREE ENERGY PREDICTED BY IDOCK:   -5.25 KCAL/MOL
REMARK 922        TOTAL FREE ENERGY PREDICTED BY IDOCK:  -10.31 KCAL/MOL
REMARK 923 INTER-LIGAND FREE ENERGY PREDICTED BY IDOCK:   -8.17 KCAL/MOL
REMARK 924 INTRA-LIGAND FREE ENERGY PREDICTED BY IDOCK:   -2.14 KCAL/MOL
REMARK 927      BINDING AFFINITY PREDICTED BY RF-SCORE:    0.00 PKD
ROOT
HETATM    1  O   UNL     1      -8.764  13.931  68.760  1.00  0.00    -0.325 OA 
HETATM    2  C   UNL     1      -8.967  14.192  67.392  1.00  0.00    -0.202 C  
HETATM    3  H   UNL     1      -7.914  14.271  69.016  1.00  0.00     0.000 HD 
ENDROOT
BRANCH   2   4
HETATM    4  N   UNL     1     -10.248  13.679  67.006  1.00  0.00    -0.248 N  
HETATM    5  C   UNL     1     -10.383  12.855  65.822  1.00  0.00    -0.284 C  
HETATM    6  O   UNL     1     -11.461  15.405  67.984  1.00  0.00    -0.338 OA 
HETATM    7  C   UNL     1     -11.715  13.416  65.273  1.00  0.00    -0.323 C  
HETATM    8  N   UNL     1     -12.274  14.199  66.236  1.00  0.00    -0.455 NA 
HETATM    9  O   UNL     1     -12.247  13.166  64.202  1.00  0.00    -0.431 OA 
HETATM   10  C   UNL     1     -11.355  14.491  67.182  1.00  0.00    -0.350 C  
BRANCH   5  11
HETATM   11  N   UNL     1     -10.545  11.466  66.170  1.00  0.00    -0.259 N  
HETATM   12  H   UNL     1     -11.412  11.155  66.607  1.00  0.00     0.000 HD 
BRANCH  11  13
HETATM   13  C   UNL     1      -9.554  10.560  65.922  1.00  0.00    -0.204 C  
HETATM   14  O   UNL     1      -9.154  10.282  64.800  1.00  0.00    -0.183 OA 
BRANCH  13  15
HETATM   15  N   UNL     1      -9.004  10.061  67.073  1.00  0.00    -0.138 N  
HETATM   16  H   UNL     1      -8.560  10.690  67.741  1.00  0.00     0.000 HD 
BRANCH  15  17
HETATM   17  C   UNL     1      -9.054   8.653  67.337  1.00  0.00    -0.133 C  
BRANCH  17  18
HETATM   18  N   UNL     1      -8.879   8.356  68.735  1.00  0.00    -0.140 N  
HETATM   19  H   UNL     1      -8.009   8.603  69.208  1.00  0.00     0.000 HD 
BRANCH  18  20
HETATM   20  C   UNL     1      -9.889   7.738  69.424  1.00  0.00    -0.176 C  
HETATM   21  O   UNL     1      -9.781   6.639  69.952  1.00  0.00    -0.158 OA 
BRANCH  20  22
HETATM   22  N   UNL     1     -11.036   8.495  69.468  1.00  0.00    -0.419 N  
HETATM   23  H   UNL     1     -11.686   8.534  68.683  1.00  0.00     0.000 HD 
BRANCH  22  24
HETATM   24  C   UNL     1     -11.266   9.227  70.683  1.00  0.00    -0.276 C  
HETATM   25  N   UNL     1     -11.973  10.478  70.554  1.00  0.00    -0.313 N  
HETATM   26  O   UNL     1     -12.364   7.346  71.895  1.00  0.00    -0.305 OA 
HETATM   27  C   UNL     1     -12.817  10.688  71.626  1.00  0.00    -0.465 C  
HETATM   28  N   UNL     1     -12.928   9.526  72.318  1.00  0.00    -0.400 NA 
HETATM   29  O   UNL     1     -13.409  11.719  71.894  1.00  0.00    -0.448 OA 
HETATM   30  C   UNL     1     -12.231   8.542  71.681  1.00  0.00    -0.322 C  
BRANCH  25  31
HETATM   31  C   UNL     1     -11.625  11.490  69.608  1.00  0.00    -0.333 C  
HETATM   32  H   UNL     1     -12.069  11.902  67.772  1.00  0.00     0.000 HD 
HETATM   33  O   UNL     1     -12.301  11.229  68.401  1.00  0.00    -0.545 OA 
ENDBRANCH  25  31
ENDBRANCH  22  24
ENDBRANCH  20  22
ENDBRANCH  18  20
ENDBRANCH  17  18
ENDBRANCH  15  17
ENDBRANCH  13  15
ENDBRANCH  11  13
ENDBRANCH   5  11
ENDBRANCH   2   4
TORSDOF 10
ENDMDL
MODEL      140
REMARK 921   NORMALIZED FREE ENERGY PREDICTED BY IDOCK:   -5.23 KCAL/MOL
REMARK 922        TOTAL FREE ENERGY PREDICTED BY IDOCK:  -10.28 KCAL/MOL
REMARK 923 INTER-LIGAND FREE ENERGY PREDICTED BY IDOCK:   -8.52 KCAL/MOL
REMARK 924 INTRA-LIGAND FREE ENERGY PREDICTED BY IDOCK:   -1.76 KCAL/MOL
REMARK 927      BINDING AFFINITY PREDICTED BY RF-SCORE:    0.00 PKD
ROOT
HETATM    1  O   UNL     1     -10.870  17.262  69.840  1.00  0.00    -0.317 OA 
HETATM    2  C   UNL     1     -10.344  16.811  68.615  1.00  0.00    -0.318 C  
HETATM    3  H   UNL     1     -11.516  16.637  70.147  1.00  0.00     0.000 HD 
ENDROOT
BRANCH   2   4
HETATM    4  N   UNL     1      -9.370  17.754  68.151  1.00  0.00    -0.273 N  
HETATM    5  C   UNL     1      -8.076  17.851  68.795  1.00  0.00    -0.232 C  
HETATM    6  O   UNL     1     -10.929  19.257  67.306  1.00  0.00    -0.483 OA 
HETATM    7  C   UNL     1      -7.897  19.386  68.776  1.00  0.00    -0.357 C  
HETATM    8  N   UNL     1      -8.853  19.914  67.964  1.00  0.00    -0.301 NA 
HETATM    9  O   UNL     1      -7.020  20.044  69.316  1.00  0.00    -0.297 OA 
HETATM   10  C   UNL     1      -9.814  18.994  67.726  1.00  0.00    -0.336 C  
BRANCH   5  11
HETATM   11  N   UNL     1      -7.049  17.230  67.997  1.00  0.00    -0.177 N  
HETATM   12  H   UNL     1      -6.308  17.804  67.596  1.00  0.00     0.000 HD 
BRANCH  11  13
HETATM   13  C   UNL     1      -7.054  15.884  67.771  1.00  0.00    -0.148 C  
HETATM   14  O   UNL     1      -7.099  15.382  66.655  1.00  0.00    -0.030 OA 
BRANCH  13  15
HETATM   15  N   UNL     1      -6.922  15.160  68.926  1.00  0.00    -0.117 N  
HETATM   16  H   UNL     1      -6.560  15.606  69.769  1.00  0.00     0.000 HD 
BRANCH  15  17
HETATM   17  C   UNL     1      -7.293  13.776  68.950  1.00  0.00    -0.076 C  
BRANCH  17  18
HETATM   18  N   UNL     1      -8.712  13.591  68.800  1.00  0.00    -0.369 N  
HETATM   19  H   UNL     1      -9.366  14.194  69.301  1.00  0.00     0.000 HD 
BRANCH  18  20
HETATM   20  C   UNL     1      -9.179  12.598  67.979  1.00  0.00    -0.208 C  
HETATM   21  O   UNL     1      -9.336  11.438  68.334  1.00  0.00    -0.183 OA 
BRANCH  20  22
HETATM   22  N   UNL     1      -9.465  13.053  66.713  1.00  0.00    -0.245 N  
HETATM   23  H   UNL     1      -8.790  12.986  65.951  1.00  0.00     0.000 HD 
BRANCH  22  24
HETATM   24  C   UNL     1     -10.768  13.629  66.525  1.00  0.00    -0.284 C  
HETATM   25  N   UNL     1     -10.964  14.392  65.317  1.00  0.00    -0.329 N  
HETATM   26  O   UNL     1     -12.021  11.494  66.815  1.00  0.00    -0.470 OA 
HETATM   27  C   UNL     1     -12.237  14.214  64.814  1.00  0.00    -0.440 C  
HETATM   28  N   UNL     1     -12.807  13.161  65.453  1.00  0.00    -0.631 NA 
HETATM   29  O   UNL     1     -12.760  14.850  63.915  1.00  0.00    -0.789 OA 
HETATM   30  C   UNL     1     -11.907  12.603  66.313  1.00  0.00    -0.410 C  
BRANCH  25  31
HETATM   31  C   UNL     1     -10.072  15.417  64.874  1.00  0.00    -0.024 C  
HETATM   32  H   UNL     1     -10.097  17.347  64.776  1.00  0.00     0.000 HD 
HETATM   33  O   UNL     1     -10.690  16.666  65.070  1.00  0.00    -0.677 OA 
ENDBRANCH  25  31
ENDBRANCH  22  24
ENDBRANCH  20  22
ENDBRANCH  18  20
ENDBRANCH  17  18
ENDBRANCH  15  17
ENDBRANCH  13  15
ENDBRANCH  11  13
ENDBRANCH   5  11
ENDBRANCH   2   4
TORSDOF 10
ENDMDL
MODEL      141
REMARK 921   NORMALIZED FREE ENERGY PREDICTED BY IDOCK:   -5.22 KCAL/MOL
REMARK 922        TOTAL FREE ENERGY PREDICTED BY IDOCK:  -10.27 KCAL/MOL
REMARK 923 INTER-LIGAND FREE ENERGY PREDICTED BY IDOCK:   -8.58 KCAL/MOL
REMARK 924 INTRA-LIGAND FREE ENERGY PREDICTED BY IDOCK:   -1.69 KCAL/MOL
REMARK 927      BINDING AFFINITY PREDICTED BY RF-SCORE:    0.00 PKD
ROOT
HETATM    1  O   UNL     1      -9.695  11.843  63.452  1.00  0.00    -0.502 OA 
HETATM    2  C   UNL     1      -9.285  10.703  64.168  1.00  0.00    -0.236 C  
HETATM    3  H   UNL     1      -9.177  11.914  62.660  1.00  0.00     0.000 HD 
ENDROOT
BRANCH   2   4
HETATM    4  N   UNL     1     -10.066  10.597  65.364  1.00  0.00    -0.280 N  
HETATM    5  C   UNL     1     -10.455  11.786  66.094  1.00  0.00    -0.245 C  
HETATM    6  O   UNL     1      -9.301   8.473  65.919  1.00  0.00    -0.209 OA 
HETATM    7  C   UNL     1     -10.261  11.271  67.539  1.00  0.00    -0.189 C  
HETATM    8  N   UNL     1     -10.085   9.923  67.487  1.00  0.00    -0.185 NA 
HETATM    9  O   UNL     1     -10.325  11.912  68.577  1.00  0.00    -0.210 OA 
HETATM   10  C   UNL     1      -9.806   9.543  66.221  1.00  0.00    -0.266 C  
BRANCH   5  11
HETATM   11  N   UNL     1     -11.843  12.104  65.872  1.00  0.00    -0.353 N  
HETATM   12  H   UNL     1     -12.547  11.372  65.961  1.00  0.00     0.000 HD 
BRANCH  11  13
HETATM   13  C   UNL     1     -12.229  13.372  65.544  1.00  0.00    -0.455 C  
HETATM   14  O   UNL     1     -13.280  13.637  64.976  1.00  0.00    -0.729 OA 
BRANCH  13  15
HETATM   15  N   UNL     1     -11.345  14.318  65.992  1.00  0.00    -0.328 N  
HETATM   16  H   UNL     1     -10.536  14.570  65.425  1.00  0.00     0.000 HD 
BRANCH  15  17
HETATM   17  C   UNL     1     -11.559  14.953  67.258  1.00  0.00    -0.324 C  
BRANCH  17  18
HETATM   18  N   UNL     1     -10.586  15.980  67.523  1.00  0.00    -0.308 N  
HETATM   19  H   UNL     1     -10.762  16.683  68.241  1.00  0.00     0.000 HD 
BRANCH  18  20
HETATM   20  C   UNL     1      -9.422  16.006  66.801  1.00  0.00    -0.231 C  
HETATM   21  O   UNL     1      -8.671  15.047  66.684  1.00  0.00    -0.265 OA 
BRANCH  20  22
HETATM   22  N   UNL     1      -9.195  17.228  66.212  1.00  0.00    -0.242 N  
HETATM   23  H   UNL     1      -9.295  17.368  65.207  1.00  0.00     0.000 HD 
BRANCH  22  24
HETATM   24  C   UNL     1      -8.808  18.295  67.094  1.00  0.00    -0.260 C  
HETATM   25  N   UNL     1      -7.725  19.136  66.646  1.00  0.00    -0.241 N  
HETATM   26  O   UNL     1     -11.089  19.280  67.297  1.00  0.00    -0.442 OA 
HETATM   27  C   UNL     1      -7.928  20.451  67.016  1.00  0.00    -0.312 C  
HETATM   28  N   UNL     1      -9.212  20.586  67.434  1.00  0.00    -0.377 NA 
HETATM   29  O   UNL     1      -7.119  21.360  66.942  1.00  0.00    -0.419 OA 
HETATM   30  C   UNL     1      -9.874  19.404  67.277  1.00  0.00    -0.344 C  
BRANCH  25  31
HETATM   31  C   UNL     1      -6.482  18.632  66.157  1.00  0.00    -0.214 C  
HETATM   32  H   UNL     1      -5.709  18.251  64.426  1.00  0.00     0.000 HD 
HETATM   33  O   UNL     1      -6.536  18.587  64.752  1.00  0.00    -0.416 OA 
ENDBRANCH  25  31
ENDBRANCH  22  24
ENDBRANCH  20  22
ENDBRANCH  18  20
ENDBRANCH  17  18
ENDBRANCH  15  17
ENDBRANCH  13  15
ENDBRANCH  11  13
ENDBRANCH   5  11
ENDBRANCH   2   4
TORSDOF 10
ENDMDL
MODEL      142
REMARK 921   NORMALIZED FREE ENERGY PREDICTED BY IDOCK:   -5.22 KCAL/MOL
REMARK 922        TOTAL FREE ENERGY PREDICTED BY IDOCK:  -10.27 KCAL/MOL
REMARK 923 INTER-LIGAND FREE ENERGY PREDICTED BY IDOCK:   -8.20 KCAL/MOL
REMARK 924 INTRA-LIGAND FREE ENERGY PREDICTED BY IDOCK:   -2.07 KCAL/MOL
REMARK 927      BINDING AFFINITY PREDICTED BY RF-SCORE:    0.00 PKD
ROOT
HETATM    1  O   UNL     1      -9.344   9.730  68.755  1.00  0.00    -0.143 OA 
HETATM    2  C   UNL     1      -9.875   8.499  68.328  1.00  0.00    -0.169 C  
HETATM    3  H   UNL     1      -8.659   9.996  68.153  1.00  0.00     0.000 HD 
ENDROOT
BRANCH   2   4
HETATM    4  N   UNL     1     -10.908   8.098  69.236  1.00  0.00    -0.119 N  
HETATM    5  C   UNL     1     -11.137   8.837  70.461  1.00  0.00    -0.246 C  
HETATM    6  O   UNL     1     -10.856   5.855  68.626  1.00  0.00    -0.273 OA 
HETATM    7  C   UNL     1     -11.415   7.658  71.421  1.00  0.00    -0.264 C  
HETATM    8  N   UNL     1     -11.580   6.533  70.673  1.00  0.00    -0.371 NA 
HETATM    9  O   UNL     1     -11.547   7.697  72.635  1.00  0.00    -0.339 OA 
HETATM   10  C   UNL     1     -11.127   6.744  69.418  1.00  0.00    -0.261 C  
BRANCH   5  11
HETATM   11  N   UNL     1     -12.311   9.667  70.357  1.00  0.00    -0.482 N  
HETATM   12  H   UNL     1     -13.199   9.251  70.077  1.00  0.00     0.000 HD 
BRANCH  11  13
HETATM   13  C   UNL     1     -12.251  11.004  70.627  1.00  0.00    -0.385 C  
HETATM   14  O   UNL     1     -12.726  11.516  71.632  1.00  0.00    -0.353 OA 
BRANCH  13  15
HETATM   15  N   UNL     1     -11.530  11.694  69.688  1.00  0.00    -0.363 N  
HETATM   16  H   UNL     1     -10.577  11.992  69.895  1.00  0.00     0.000 HD 
BRANCH  15  17
HETATM   17  C   UNL     1     -12.117  11.997  68.417  1.00  0.00    -0.027 C  
BRANCH  17  18
HETATM   18  N   UNL     1     -11.127  12.149  67.383  1.00  0.00    -0.259 N  
HETATM   19  H   UNL     1     -10.201  11.734  67.492  1.00  0.00     0.000 HD 
BRANCH  18  20
HETATM   20  C   UNL     1     -11.438  12.854  66.251  1.00  0.00    -0.348 C  
HETATM   21  O   UNL     1     -12.359  12.564  65.499  1.00  0.00    -0.600 OA 
BRANCH  20  22
HETATM   22  N   UNL     1     -10.608  13.934  66.059  1.00  0.00    -0.288 N  
HETATM   23  H   UNL     1      -9.708  13.845  65.588  1.00  0.00     0.000 HD 
BRANCH  22  24
HETATM   24  C   UNL     1     -11.083  15.195  66.560  1.00  0.00    -0.305 C  
HETATM   25  N   UNL     1     -10.383  15.737  67.699  1.00  0.00    -0.275 N  
HETATM   26  O   UNL     1     -10.937  16.393  64.379  1.00  0.00    -0.798 OA 
HETATM   27  C   UNL     1     -10.290  17.112  67.620  1.00  0.00    -0.344 C  
HETATM   28  N   UNL     1     -10.634  17.494  66.365  1.00  0.00    -0.255 NA 
HETATM   29  O   UNL     1      -9.918  17.867  68.502  1.00  0.00    -0.338 OA 
HETATM   30  C   UNL     1     -10.881  16.392  65.599  1.00  0.00    -0.178 C  
BRANCH  25  31
HETATM   31  C   UNL     1     -10.095  14.988  68.881  1.00  0.00    -0.234 C  
HETATM   32  H   UNL     1      -8.881  13.567  69.376  1.00  0.00     0.000 HD 
HETATM   33  O   UNL     1      -9.072  14.066  68.590  1.00  0.00    -0.179 OA 
ENDBRANCH  25  31
ENDBRANCH  22  24
ENDBRANCH  20  22
ENDBRANCH  18  20
ENDBRANCH  17  18
ENDBRANCH  15  17
ENDBRANCH  13  15
ENDBRANCH  11  13
ENDBRANCH   5  11
ENDBRANCH   2   4
TORSDOF 10
ENDMDL
MODEL      143
REMARK 921   NORMALIZED FREE ENERGY PREDICTED BY IDOCK:   -5.22 KCAL/MOL
REMARK 922        TOTAL FREE ENERGY PREDICTED BY IDOCK:  -10.27 KCAL/MOL
REMARK 923 INTER-LIGAND FREE ENERGY PREDICTED BY IDOCK:   -8.82 KCAL/MOL
REMARK 924 INTRA-LIGAND FREE ENERGY PREDICTED BY IDOCK:   -1.45 KCAL/MOL
REMARK 927      BINDING AFFINITY PREDICTED BY RF-SCORE:    0.00 PKD
ROOT
HETATM    1  O   UNL     1      -6.911  17.905  69.109  1.00  0.00    -0.248 OA 
HETATM    2  C   UNL     1      -7.547  17.487  67.926  1.00  0.00    -0.204 C  
HETATM    3  H   UNL     1      -6.162  17.344  69.272  1.00  0.00     0.000 HD 
ENDROOT
BRANCH   2   4
HETATM    4  N   UNL     1      -8.676  18.334  67.680  1.00  0.00    -0.254 N  
HETATM    5  C   UNL     1      -9.872  17.802  67.059  1.00  0.00    -0.309 C  
HETATM    6  O   UNL     1      -7.430  20.287  67.497  1.00  0.00    -0.285 OA 
HETATM    7  C   UNL     1     -10.226  18.988  66.132  1.00  0.00    -0.446 C  
HETATM    8  N   UNL     1      -9.456  20.051  66.492  1.00  0.00    -0.395 NA 
HETATM    9  O   UNL     1     -11.089  19.031  65.269  1.00  0.00    -0.401 OA 
HETATM   10  C   UNL     1      -8.439  19.637  67.279  1.00  0.00    -0.307 C  
BRANCH   5  11
HETATM   11  N   UNL     1     -10.922  17.610  68.028  1.00  0.00    -0.221 N  
HETATM   12  H   UNL     1     -11.602  18.353  68.186  1.00  0.00     0.000 HD 
BRANCH  11  13
HETATM   13  C   UNL     1     -11.019  16.448  68.737  1.00  0.00    -0.344 C  
HETATM   14  O   UNL     1     -11.061  16.399  69.958  1.00  0.00    -0.350 OA 
BRANCH  13  15
HETATM   15  N   UNL     1     -11.145  15.351  67.925  1.00  0.00    -0.313 N  
HETATM   16  H   UNL     1     -10.654  15.318  67.032  1.00  0.00     0.000 HD 
BRANCH  15  17
HETATM   17  C   UNL     1     -11.967  14.251  68.333  1.00  0.00    -0.309 C  
BRANCH  17  18
HETATM   18  N   UNL     1     -11.240  13.291  69.121  1.00  0.00    -0.331 N  
HETATM   19  H   UNL     1     -10.677  13.598  69.915  1.00  0.00     0.000 HD 
BRANCH  18  20
HETATM   20  C   UNL     1     -11.309  11.962  68.797  1.00  0.00    -0.274 C  
HETATM   21  O   UNL     1     -11.795  11.539  67.756  1.00  0.00    -0.584 OA 
BRANCH  20  22
HETATM   22  N   UNL     1     -10.760  11.155  69.765  1.00  0.00    -0.462 N  
HETATM   23  H   UNL     1      -9.787  11.247  70.056  1.00  0.00     0.000 HD 
BRANCH  22  24
HETATM   24  C   UNL     1     -11.637  10.174  70.345  1.00  0.00    -0.316 C  
HETATM   25  N   UNL     1     -11.007   9.111  71.089  1.00  0.00    -0.290 N  
HETATM   26  O   UNL     1     -13.063  11.813  71.565  1.00  0.00    -0.407 OA 
HETATM   27  C   UNL     1     -11.765   8.753  72.186  1.00  0.00    -0.363 C  
HETATM   28  N   UNL     1     -12.716   9.700  72.378  1.00  0.00    -0.266 NA 
HETATM   29  O   UNL     1     -11.593   7.781  72.902  1.00  0.00    -0.355 OA 
HETATM   30  C   UNL     1     -12.553  10.707  71.473  1.00  0.00    -0.412 C  
BRANCH  25  31
HETATM   31  C   UNL     1      -9.912   8.338  70.594  1.00  0.00    -0.183 C  
HETATM   32  H   UNL     1      -9.325   7.688  68.870  1.00  0.00     0.000 HD 
HETATM   33  O   UNL     1     -10.053   8.202  69.200  1.00  0.00    -0.191 OA 
ENDBRANCH  25  31
ENDBRANCH  22  24
ENDBRANCH  20  22
ENDBRANCH  18  20
ENDBRANCH  17  18
ENDBRANCH  15  17
ENDBRANCH  13  15
ENDBRANCH  11  13
ENDBRANCH   5  11
ENDBRANCH   2   4
TORSDOF 10
ENDMDL
MODEL      144
REMARK 921   NORMALIZED FREE ENERGY PREDICTED BY IDOCK:   -5.22 KCAL/MOL
REMARK 922        TOTAL FREE ENERGY PREDICTED BY IDOCK:  -10.27 KCAL/MOL
REMARK 923 INTER-LIGAND FREE ENERGY PREDICTED BY IDOCK:   -8.67 KCAL/MOL
REMARK 924 INTRA-LIGAND FREE ENERGY PREDICTED BY IDOCK:   -1.59 KCAL/MOL
REMARK 927      BINDING AFFINITY PREDICTED BY RF-SCORE:    0.00 PKD
ROOT
HETATM    1  O   UNL     1      -8.657   6.479  68.722  1.00  0.00    -0.121 OA 
HETATM    2  C   UNL     1      -9.113   7.771  69.045  1.00  0.00    -0.144 C  
HETATM    3  H   UNL     1      -7.958   6.549  68.083  1.00  0.00     0.000 HD 
ENDROOT
BRANCH   2   4
HETATM    4  N   UNL     1     -10.167   7.665  70.008  1.00  0.00    -0.208 N  
HETATM    5  C   UNL     1      -9.912   7.933  71.409  1.00  0.00    -0.172 C  
HETATM    6  O   UNL     1     -11.385   6.092  68.806  1.00  0.00    -0.344 OA 
HETATM    7  C   UNL     1     -10.768   6.813  72.042  1.00  0.00    -0.218 C  
HETATM    8  N   UNL     1     -11.551   6.276  71.067  1.00  0.00    -0.313 NA 
HETATM    9  O   UNL     1     -10.820   6.485  73.218  1.00  0.00    -0.266 OA 
HETATM   10  C   UNL     1     -11.095   6.650  69.852  1.00  0.00    -0.348 C  
BRANCH   5  11
HETATM   11  N   UNL     1     -10.431   9.221  71.797  1.00  0.00    -0.282 N  
HETATM   12  H   UNL     1     -10.021   9.710  72.592  1.00  0.00     0.000 HD 
BRANCH  11  13
HETATM   13  C   UNL     1     -11.464   9.795  71.114  1.00  0.00    -0.398 C  
HETATM   14  O   UNL     1     -12.639   9.502  71.288  1.00  0.00    -0.316 OA 
BRANCH  13  15
HETATM   15  N   UNL     1     -11.043  10.792  70.273  1.00  0.00    -0.454 N  
HETATM   16  H   UNL     1     -10.099  10.770  69.888  1.00  0.00     0.000 HD 
BRANCH  15  17
HETATM   17  C   UNL     1     -11.931  11.865  69.936  1.00  0.00    -0.325 C  
BRANCH  17  18
HETATM   18  N   UNL     1     -11.221  13.066  69.581  1.00  0.00    -0.477 N  
HETATM   19  H   UNL     1     -10.495  13.436  70.195  1.00  0.00     0.000 HD 
BRANCH  18  20
HETATM   20  C   UNL     1     -11.528  13.708  68.410  1.00  0.00    -0.311 C  
HETATM   21  O   UNL     1     -11.471  14.922  68.263  1.00  0.00    -0.297 OA 
BRANCH  20  22
HETATM   22  N   UNL     1     -11.897  12.836  67.413  1.00  0.00    -0.364 N  
HETATM   23  H   UNL     1     -12.539  12.062  67.584  1.00  0.00     0.000 HD 
BRANCH  22  24
HETATM   24  C   UNL     1     -11.326  13.077  66.116  1.00  0.00    -0.314 C  
HETATM   25  N   UNL     1     -10.837  11.921  65.405  1.00  0.00    -0.287 N  
HETATM   26  O   UNL     1     -13.298  14.301  65.206  1.00  0.00    -0.660 OA 
HETATM   27  C   UNL     1     -11.071  12.032  64.050  1.00  0.00    -0.386 C  
HETATM   28  N   UNL     1     -11.937  13.057  63.847  1.00  0.00    -0.450 NA 
HETATM   29  O   UNL     1     -10.625  11.312  63.173  1.00  0.00    -0.310 OA 
HETATM   30  C   UNL     1     -12.330  13.573  65.046  1.00  0.00    -0.428 C  
BRANCH  25  31
HETATM   31  C   UNL     1      -9.968  10.946  65.984  1.00  0.00    -0.240 C  
HETATM   32  H   UNL     1     -10.047   9.702  67.462  1.00  0.00     0.000 HD 
HETATM   33  O   UNL     1     -10.625  10.351  67.077  1.00  0.00    -0.243 OA 
ENDBRANCH  25  31
ENDBRANCH  22  24
ENDBRANCH  20  22
ENDBRANCH  18  20
ENDBRANCH  17  18
ENDBRANCH  15  17
ENDBRANCH  13  15
ENDBRANCH  11  13
ENDBRANCH   5  11
ENDBRANCH   2   4
TORSDOF 10
ENDMDL
MODEL      145
REMARK 921   NORMALIZED FREE ENERGY PREDICTED BY IDOCK:   -5.22 KCAL/MOL
REMARK 922        TOTAL FREE ENERGY PREDICTED BY IDOCK:  -10.26 KCAL/MOL
REMARK 923 INTER-LIGAND FREE ENERGY PREDICTED BY IDOCK:   -8.07 KCAL/MOL
REMARK 924 INTRA-LIGAND FREE ENERGY PREDICTED BY IDOCK:   -2.19 KCAL/MOL
REMARK 927      BINDING AFFINITY PREDICTED BY RF-SCORE:    0.00 PKD
ROOT
HETATM    1  O   UNL     1     -10.824  10.971  68.929  1.00  0.00    -0.190 OA 
HETATM    2  C   UNL     1     -10.850   9.855  68.072  1.00  0.00    -0.243 C  
HETATM    3  H   UNL     1     -11.594  10.952  69.485  1.00  0.00     0.000 HD 
ENDROOT
BRANCH   2   4
HETATM    4  N   UNL     1      -9.688   9.885  67.233  1.00  0.00    -0.166 N  
HETATM    5  C   UNL     1      -9.824   9.881  65.791  1.00  0.00    -0.287 C  
HETATM    6  O   UNL     1      -8.294   8.853  68.780  1.00  0.00    -0.120 OA 
HETATM    7  C   UNL     1      -8.657   8.935  65.429  1.00  0.00    -0.176 C  
HETATM    8  N   UNL     1      -7.897   8.754  66.543  1.00  0.00    -0.102 NA 
HETATM    9  O   UNL     1      -8.383   8.470  64.333  1.00  0.00    -0.161 OA 
HETATM   10  C   UNL     1      -8.575   9.168  67.635  1.00  0.00    -0.117 C  
BRANCH   5  11
HETATM   11  N   UNL     1      -9.579  11.191  65.241  1.00  0.00    -0.221 N  
HETATM   12  H   UNL     1      -8.951  11.831  65.726  1.00  0.00     0.000 HD 
BRANCH  11  13
HETATM   13  C   UNL     1     -10.176  11.586  64.079  1.00  0.00    -0.345 C  
HETATM   14  O   UNL     1      -9.617  11.575  62.990  1.00  0.00    -0.374 OA 
BRANCH  13  15
HETATM   15  N   UNL     1     -11.493  11.919  64.256  1.00  0.00    -0.355 N  
HETATM   16  H   UNL     1     -12.136  11.250  64.678  1.00  0.00     0.000 HD 
BRANCH  15  17
HETATM   17  C   UNL     1     -11.966  13.208  63.846  1.00  0.00    -0.488 C  
BRANCH  17  18
HETATM   18  N   UNL     1     -12.700  13.875  64.890  1.00  0.00    -0.693 N  
HETATM   19  H   UNL     1     -13.417  14.561  64.656  1.00  0.00     0.000 HD 
BRANCH  18  20
HETATM   20  C   UNL     1     -12.427  13.579  66.199  1.00  0.00    -0.365 C  
HETATM   21  O   UNL     1     -12.322  12.439  66.633  1.00  0.00    -0.477 OA 
BRANCH  20  22
HETATM   22  N   UNL     1     -12.270  14.706  66.972  1.00  0.00    -0.478 N  
HETATM   23  H   UNL     1     -13.045  15.340  67.162  1.00  0.00     0.000 HD 
BRANCH  22  24
HETATM   24  C   UNL     1     -10.951  14.938  67.494  1.00  0.00    -0.302 C  
HETATM   25  N   UNL     1     -10.431  16.276  67.352  1.00  0.00    -0.301 N  
HETATM   26  O   UNL     1     -11.442  14.078  69.782  1.00  0.00    -0.258 OA 
HETATM   27  C   UNL     1      -9.679  16.639  68.450  1.00  0.00    -0.243 C  
HETATM   28  N   UNL     1      -9.900  15.736  69.439  1.00  0.00    -0.270 NA 
HETATM   29  O   UNL     1      -8.970  17.625  68.552  1.00  0.00    -0.283 OA 
HETATM   30  C   UNL     1     -10.835  14.830  69.034  1.00  0.00    -0.245 C  
BRANCH  25  31
HETATM   31  C   UNL     1     -10.442  17.002  66.122  1.00  0.00    -0.271 C  
HETATM   32  H   UNL     1     -10.339  16.570  64.240  1.00  0.00     0.000 HD 
HETATM   33  O   UNL     1     -10.332  16.087  65.058  1.00  0.00    -0.543 OA 
ENDBRANCH  25  31
ENDBRANCH  22  24
ENDBRANCH  20  22
ENDBRANCH  18  20
ENDBRANCH  17  18
ENDBRANCH  15  17
ENDBRANCH  13  15
ENDBRANCH  11  13
ENDBRANCH   5  11
ENDBRANCH   2   4
TORSDOF 10
ENDMDL
MODEL      146
REMARK 921   NORMALIZED FREE ENERGY PREDICTED BY IDOCK:   -5.21 KCAL/MOL
REMARK 922        TOTAL FREE ENERGY PREDICTED BY IDOCK:  -10.26 KCAL/MOL
REMARK 923 INTER-LIGAND FREE ENERGY PREDICTED BY IDOCK:   -7.69 KCAL/MOL
REMARK 924 INTRA-LIGAND FREE ENERGY PREDICTED BY IDOCK:   -2.57 KCAL/MOL
REMARK 927      BINDING AFFINITY PREDICTED BY RF-SCORE:    0.00 PKD
ROOT
HETATM    1  O   UNL     1     -13.710  15.339  73.512  1.00  0.00    -0.572 OA 
HETATM    2  C   UNL     1     -13.940  15.423  72.126  1.00  0.00    -0.549 C  
HETATM    3  H   UNL     1     -14.435  15.746  73.971  1.00  0.00     0.000 HD 
ENDROOT
BRANCH   2   4
HETATM    4  N   UNL     1     -12.846  14.809  71.434  1.00  0.00    -0.314 N  
HETATM    5  C   UNL     1     -12.358  15.367  70.190  1.00  0.00    -0.361 C  
HETATM    6  O   UNL     1     -13.258  12.674  72.257  1.00  0.00    -0.476 OA 
HETATM    7  C   UNL     1     -12.095  14.058  69.411  1.00  0.00    -0.340 C  
HETATM    8  N   UNL     1     -12.175  13.020  70.287  1.00  0.00    -0.329 NA 
HETATM    9  O   UNL     1     -11.789  13.937  68.234  1.00  0.00    -0.343 OA 
HETATM   10  C   UNL     1     -12.771  13.427  71.429  1.00  0.00    -0.322 C  
BRANCH   5  11
HETATM   11  N   UNL     1     -11.117  16.075  70.387  1.00  0.00    -0.359 N  
HETATM   12  H   UNL     1     -10.754  16.199  71.331  1.00  0.00     0.000 HD 
BRANCH  11  13
HETATM   13  C   UNL     1     -10.423  16.582  69.327  1.00  0.00    -0.326 C  
HETATM   14  O   UNL     1     -10.878  17.414  68.552  1.00  0.00    -0.308 OA 
BRANCH  13  15
HETATM   15  N   UNL     1      -9.136  16.117  69.275  1.00  0.00    -0.243 N  
HETATM   16  H   UNL     1      -8.595  16.018  70.134  1.00  0.00     0.000 HD 
BRANCH  15  17
HETATM   17  C   UNL     1      -8.550  15.772  68.014  1.00  0.00    -0.163 C  
BRANCH  17  18
HETATM   18  N   UNL     1      -8.859  14.421  67.623  1.00  0.00    -0.184 N  
HETATM   19  H   UNL     1      -9.371  14.240  66.760  1.00  0.00     0.000 HD 
BRANCH  18  20
HETATM   20  C   UNL     1      -8.458  13.381  68.420  1.00  0.00    -0.135 C  
HETATM   21  O   UNL     1      -7.409  13.370  69.050  1.00  0.00    -0.076 OA 
BRANCH  20  22
HETATM   22  N   UNL     1      -9.372  12.355  68.445  1.00  0.00    -0.314 N  
HETATM   23  H   UNL     1     -10.166  12.355  69.086  1.00  0.00     0.000 HD 
BRANCH  22  24
HETATM   24  C   UNL     1      -9.146  11.281  67.516  1.00  0.00    -0.151 C  
HETATM   25  N   UNL     1      -9.583   9.971  67.932  1.00  0.00    -0.144 N  
HETATM   26  O   UNL     1     -10.294  12.377  65.594  1.00  0.00    -0.248 OA 
HETATM   27  C   UNL     1     -10.082   9.249  66.866  1.00  0.00    -0.256 C  
HETATM   28  N   UNL     1     -10.267  10.097  65.823  1.00  0.00    -0.246 NA 
HETATM   29  O   UNL     1     -10.362   8.063  66.859  1.00  0.00    -0.306 OA 
HETATM   30  C   UNL     1      -9.967  11.371  66.207  1.00  0.00    -0.224 C  
BRANCH  25  31
HETATM   31  C   UNL     1      -9.265   9.396  69.200  1.00  0.00    -0.155 C  
HETATM   32  H   UNL     1     -10.020   9.428  70.980  1.00  0.00     0.000 HD 
HETATM   33  O   UNL     1     -10.231   9.810  70.136  1.00  0.00    -0.244 OA 
ENDBRANCH  25  31
ENDBRANCH  22  24
ENDBRANCH  20  22
ENDBRANCH  18  20
ENDBRANCH  17  18
ENDBRANCH  15  17
ENDBRANCH  13  15
ENDBRANCH  11  13
ENDBRANCH   5  11
ENDBRANCH   2   4
TORSDOF 10
ENDMDL
MODEL      147
REMARK 921   NORMALIZED FREE ENERGY PREDICTED BY IDOCK:   -5.20 KCAL/MOL
REMARK 922        TOTAL FREE ENERGY PREDICTED BY IDOCK:  -10.24 KCAL/MOL
REMARK 923 INTER-LIGAND FREE ENERGY PREDICTED BY IDOCK:   -8.93 KCAL/MOL
REMARK 924 INTRA-LIGAND FREE ENERGY PREDICTED BY IDOCK:   -1.32 KCAL/MOL
REMARK 927      BINDING AFFINITY PREDICTED BY RF-SCORE:    0.00 PKD
ROOT
HETATM    1  O   UNL     1      -9.814   5.953  73.230  1.00  0.00    -0.163 OA 
HETATM    2  C   UNL     1     -10.829   6.917  73.086  1.00  0.00    -0.296 C  
HETATM    3  H   UNL     1     -10.078   5.322  73.888  1.00  0.00     0.000 HD 
ENDROOT
BRANCH   2   4
HETATM    4  N   UNL     1     -10.430   7.869  72.093  1.00  0.00    -0.231 N  
HETATM    5  C   UNL     1     -10.760   7.657  70.698  1.00  0.00    -0.231 C  
HETATM    6  O   UNL     1      -8.577   8.630  73.272  1.00  0.00    -0.375 OA 
HETATM    7  C   UNL     1      -9.443   8.142  70.050  1.00  0.00    -0.167 C  
HETATM    8  N   UNL     1      -8.707   8.771  71.005  1.00  0.00    -0.183 NA 
HETATM    9  O   UNL     1      -9.114   8.064  68.875  1.00  0.00    -0.144 OA 
HETATM   10  C   UNL     1      -9.195   8.477  72.230  1.00  0.00    -0.272 C  
BRANCH   5  11
HETATM   11  N   UNL     1     -11.849   8.506  70.284  1.00  0.00    -0.458 N  
HETATM   12  H   UNL     1     -12.734   8.087  70.002  1.00  0.00     0.000 HD 
BRANCH  11  13
HETATM   13  C   UNL     1     -11.711   9.864  70.264  1.00  0.00    -0.216 C  
HETATM   14  O   UNL     1     -11.816  10.572  71.256  1.00  0.00    -0.328 OA 
BRANCH  13  15
HETATM   15  N   UNL     1     -11.362  10.335  69.026  1.00  0.00    -0.399 N  
HETATM   16  H   UNL     1     -10.704   9.811  68.448  1.00  0.00     0.000 HD 
BRANCH  15  17
HETATM   17  C   UNL     1     -11.921  11.563  68.544  1.00  0.00    -0.224 C  
BRANCH  17  18
HETATM   18  N   UNL     1     -10.951  12.364  67.844  1.00  0.00    -0.217 N  
HETATM   19  H   UNL     1     -10.836  13.351  68.075  1.00  0.00     0.000 HD 
BRANCH  18  20
HETATM   20  C   UNL     1     -10.183  11.789  66.866  1.00  0.00    -0.209 C  
HETATM   21  O   UNL     1      -9.516  10.776  67.031  1.00  0.00    -0.162 OA 
BRANCH  20  22
HETATM   22  N   UNL     1     -10.254  12.469  65.673  1.00  0.00    -0.265 N  
HETATM   23  H   UNL     1      -9.659  12.230  64.880  1.00  0.00     0.000 HD 
BRANCH  22  24
HETATM   24  C   UNL     1     -11.214  13.537  65.608  1.00  0.00    -0.292 C  
HETATM   25  N   UNL     1     -10.734  14.802  65.111  1.00  0.00    -0.385 N  
HETATM   26  O   UNL     1     -12.889  12.274  64.262  1.00  0.00    -0.648 OA 
HETATM   27  C   UNL     1     -11.695  15.438  64.351  1.00  0.00    -0.258 C  
HETATM   28  N   UNL     1     -12.682  14.548  64.077  1.00  0.00    -0.727 NA 
HETATM   29  O   UNL     1     -11.659  16.586  63.944  1.00  0.00    -1.175 OA 
HETATM   30  C   UNL     1     -12.352  13.324  64.581  1.00  0.00    -0.391 C  
BRANCH  25  31
HETATM   31  C   UNL     1      -9.548  15.441  65.586  1.00  0.00    -0.288 C  
HETATM   32  H   UNL     1      -8.430  15.324  67.159  1.00  0.00     0.000 HD 
HETATM   33  O   UNL     1      -9.219  14.900  66.842  1.00  0.00    -0.219 OA 
ENDBRANCH  25  31
ENDBRANCH  22  24
ENDBRANCH  20  22
ENDBRANCH  18  20
ENDBRANCH  17  18
ENDBRANCH  15  17
ENDBRANCH  13  15
ENDBRANCH  11  13
ENDBRANCH   5  11
ENDBRANCH   2   4
TORSDOF 10
ENDMDL
MODEL      148
REMARK 921   NORMALIZED FREE ENERGY PREDICTED BY IDOCK:   -5.20 KCAL/MOL
REMARK 922        TOTAL FREE ENERGY PREDICTED BY IDOCK:  -10.24 KCAL/MOL
REMARK 923 INTER-LIGAND FREE ENERGY PREDICTED BY IDOCK:   -8.22 KCAL/MOL
REMARK 924 INTRA-LIGAND FREE ENERGY PREDICTED BY IDOCK:   -2.02 KCAL/MOL
REMARK 927      BINDING AFFINITY PREDICTED BY RF-SCORE:    0.00 PKD
ROOT
HETATM    1  O   UNL     1     -10.799  11.412  66.333  1.00  0.00    -0.269 OA 
HETATM    2  C   UNL     1     -10.285  10.102  66.326  1.00  0.00    -0.219 C  
HETATM    3  H   UNL     1     -10.469  11.877  65.573  1.00  0.00     0.000 HD 
ENDROOT
BRANCH   2   4
HETATM    4  N   UNL     1     -10.782   9.401  67.473  1.00  0.00    -0.268 N  
HETATM    5  C   UNL     1     -10.852  10.058  68.762  1.00  0.00    -0.219 C  
HETATM    6  O   UNL     1     -10.167   7.295  66.706  1.00  0.00    -0.249 OA 
HETATM    7  C   UNL     1     -10.398   8.891  69.667  1.00  0.00    -0.212 C  
HETATM    8  N   UNL     1     -10.398   7.752  68.922  1.00  0.00    -0.212 NA 
HETATM    9  O   UNL     1     -10.148   8.924  70.863  1.00  0.00    -0.204 OA 
HETATM   10  C   UNL     1     -10.460   8.062  67.608  1.00  0.00    -0.232 C  
BRANCH   5  11
HETATM   11  N   UNL     1     -12.207  10.428  69.086  1.00  0.00    -0.492 N  
HETATM   12  H   UNL     1     -12.907  10.470  68.346  1.00  0.00     0.000 HD 
BRANCH  11  13
HETATM   13  C   UNL     1     -12.566  10.724  70.369  1.00  0.00    -0.314 C  
HETATM   14  O   UNL     1     -13.377  10.074  71.014  1.00  0.00    -0.385 OA 
BRANCH  13  15
HETATM   15  N   UNL     1     -11.855  11.778  70.880  1.00  0.00    -0.318 N  
HETATM   16  H   UNL     1     -10.904  11.636  71.219  1.00  0.00     0.000 HD 
BRANCH  15  17
HETATM   17  C   UNL     1     -12.450  13.080  70.938  1.00  0.00    -0.310 C  
BRANCH  17  18
HETATM   18  N   UNL     1     -11.645  14.075  70.280  1.00  0.00    -0.466 N  
HETATM   19  H   UNL     1     -11.385  14.932  70.769  1.00  0.00     0.000 HD 
BRANCH  18  20
HETATM   20  C   UNL     1     -11.231  13.863  68.992  1.00  0.00    -0.274 C  
HETATM   21  O   UNL     1     -11.971  13.489  68.091  1.00  0.00    -0.358 OA 
BRANCH  20  22
HETATM   22  N   UNL     1      -9.893  14.128  68.818  1.00  0.00    -0.339 N  
HETATM   23  H   UNL     1      -9.172  13.457  69.084  1.00  0.00     0.000 HD 
BRANCH  22  24
HETATM   24  C   UNL     1      -9.569  15.404  68.241  1.00  0.00    -0.205 C  
HETATM   25  N   UNL     1      -9.877  15.572  66.842  1.00  0.00    -0.233 N  
HETATM   26  O   UNL     1     -10.823  16.755  69.918  1.00  0.00    -0.309 OA 
HETATM   27  C   UNL     1     -10.309  16.855  66.576  1.00  0.00    -0.299 C  
HETATM   28  N   UNL     1     -10.578  17.470  67.756  1.00  0.00    -0.381 NA 
HETATM   29  O   UNL     1     -10.474  17.354  65.476  1.00  0.00    -0.624 OA 
HETATM   30  C   UNL     1     -10.399  16.592  68.784  1.00  0.00    -0.301 C  
BRANCH  25  31
HETATM   31  C   UNL     1      -9.501  14.635  65.831  1.00  0.00    -0.203 C  
HETATM   32  H   UNL     1     -10.418  13.522  64.544  1.00  0.00     0.000 HD 
HETATM   33  O   UNL     1     -10.668  14.145  65.217  1.00  0.00    -0.321 OA 
ENDBRANCH  25  31
ENDBRANCH  22  24
ENDBRANCH  20  22
ENDBRANCH  18  20
ENDBRANCH  17  18
ENDBRANCH  15  17
ENDBRANCH  13  15
ENDBRANCH  11  13
ENDBRANCH   5  11
ENDBRANCH   2   4
TORSDOF 10
ENDMDL
MODEL      149
REMARK 921   NORMALIZED FREE ENERGY PREDICTED BY IDOCK:   -5.20 KCAL/MOL
REMARK 922        TOTAL FREE ENERGY PREDICTED BY IDOCK:  -10.23 KCAL/MOL
REMARK 923 INTER-LIGAND FREE ENERGY PREDICTED BY IDOCK:   -8.02 KCAL/MOL
REMARK 924 INTRA-LIGAND FREE ENERGY PREDICTED BY IDOCK:   -2.21 KCAL/MOL
REMARK 927      BINDING AFFINITY PREDICTED BY RF-SCORE:    0.00 PKD
ROOT
HETATM    1  O   UNL     1      -9.271  13.876  69.076  1.00  0.00    -0.394 OA 
HETATM    2  C   UNL     1      -8.757  14.105  67.786  1.00  0.00    -0.182 C  
HETATM    3  H   UNL     1      -9.123  12.968  69.311  1.00  0.00     0.000 HD 
ENDROOT
BRANCH   2   4
HETATM    4  N   UNL     1      -8.981  15.475  67.431  1.00  0.00    -0.188 N  
HETATM    5  C   UNL     1     -10.308  15.933  67.075  1.00  0.00    -0.297 C  
HETATM    6  O   UNL     1      -6.824  15.836  66.644  1.00  0.00    -0.162 OA 
HETATM    7  C   UNL     1      -9.945  16.882  65.910  1.00  0.00    -0.252 C  
HETATM    8  N   UNL     1      -8.596  17.062  65.916  1.00  0.00    -0.525 NA 
HETATM    9  O   UNL     1     -10.707  17.452  65.144  1.00  0.00    -0.684 OA 
HETATM   10  C   UNL     1      -8.009  16.123  66.690  1.00  0.00    -0.270 C  
BRANCH   5  11
HETATM   11  N   UNL     1     -10.905  16.688  68.149  1.00  0.00    -0.349 N  
HETATM   12  H   UNL     1     -11.042  17.692  68.043  1.00  0.00     0.000 HD 
BRANCH  11  13
HETATM   13  C   UNL     1     -11.289  16.075  69.307  1.00  0.00    -0.356 C  
HETATM   14  O   UNL     1     -10.787  16.309  70.398  1.00  0.00    -0.303 OA 
BRANCH  13  15
HETATM   15  N   UNL     1     -12.352  15.230  69.123  1.00  0.00    -0.603 N  
HETATM   16  H   UNL     1     -13.013  15.400  68.365  1.00  0.00     0.000 HD 
BRANCH  15  17
HETATM   17  C   UNL     1     -12.535  14.110  69.997  1.00  0.00    -0.296 C  
BRANCH  17  18
HETATM   18  N   UNL     1     -12.014  12.891  69.434  1.00  0.00    -0.295 N  
HETATM   19  H   UNL     1     -11.812  12.830  68.436  1.00  0.00     0.000 HD 
BRANCH  18  20
HETATM   20  C   UNL     1     -11.792  11.814  70.250  1.00  0.00    -0.295 C  
HETATM   21  O   UNL     1     -12.538  11.485  71.163  1.00  0.00    -0.389 OA 
BRANCH  20  22
HETATM   22  N   UNL     1     -10.642  11.134  69.923  1.00  0.00    -0.423 N  
HETATM   23  H   UNL     1      -9.717  11.502  70.144  1.00  0.00     0.000 HD 
BRANCH  22  24
HETATM   24  C   UNL     1     -10.819   9.875  69.251  1.00  0.00    -0.227 C  
HETATM   25  N   UNL     1     -10.053   9.679  68.045  1.00  0.00    -0.169 N  
HETATM   26  O   UNL     1     -10.310   8.464  71.241  1.00  0.00    -0.197 OA 
HETATM   27  C   UNL     1      -9.631   8.370  67.929  1.00  0.00    -0.156 C  
HETATM   28  N   UNL     1      -9.827   7.749  69.119  1.00  0.00    -0.170 NA 
HETATM   29  O   UNL     1      -9.122   7.854  66.949  1.00  0.00    -0.131 OA 
HETATM   30  C   UNL     1     -10.301   8.644  70.033  1.00  0.00    -0.207 C  
BRANCH  25  31
HETATM   31  C   UNL     1      -9.997  10.629  66.979  1.00  0.00    -0.202 C  
HETATM   32  H   UNL     1     -11.187  11.948  66.217  1.00  0.00     0.000 HD 
HETATM   33  O   UNL     1     -11.223  11.317  66.926  1.00  0.00    -0.298 OA 
ENDBRANCH  25  31
ENDBRANCH  22  24
ENDBRANCH  20  22
ENDBRANCH  18  20
ENDBRANCH  17  18
ENDBRANCH  15  17
ENDBRANCH  13  15
ENDBRANCH  11  13
ENDBRANCH   5  11
ENDBRANCH   2   4
TORSDOF 10
ENDMDL
MODEL      150
REMARK 921   NORMALIZED FREE ENERGY PREDICTED BY IDOCK:   -5.18 KCAL/MOL
REMARK 922        TOTAL FREE ENERGY PREDICTED BY IDOCK:  -10.21 KCAL/MOL
REMARK 923 INTER-LIGAND FREE ENERGY PREDICTED BY IDOCK:   -9.13 KCAL/MOL
REMARK 924 INTRA-LIGAND FREE ENERGY PREDICTED BY IDOCK:   -1.08 KCAL/MOL
REMARK 927      BINDING AFFINITY PREDICTED BY RF-SCORE:    0.00 PKD
ROOT
HETATM    1  O   UNL     1     -12.778  12.085  62.868  1.00  0.00    -0.664 OA 
HETATM    2  C   UNL     1     -12.835  12.064  64.274  1.00  0.00    -0.105 C  
HETATM    3  H   UNL     1     -13.324  11.387  62.526  1.00  0.00     0.000 HD 
ENDROOT
BRANCH   2   4
HETATM    4  N   UNL     1     -12.011  13.117  64.789  1.00  0.00    -0.367 N  
HETATM    5  C   UNL     1     -12.569  14.431  65.035  1.00  0.00    -0.301 C  
HETATM    6  O   UNL     1     -10.034  12.284  63.896  1.00  0.00    -0.338 OA 
HETATM    7  C   UNL     1     -11.392  15.302  64.540  1.00  0.00    -0.300 C  
HETATM    8  N   UNL     1     -10.313  14.494  64.358  1.00  0.00    -0.015 NA 
HETATM    9  O   UNL     1     -11.368  16.516  64.396  1.00  0.00    -0.921 OA 
HETATM   10  C   UNL     1     -10.705  13.201  64.342  1.00  0.00    -0.407 C  
BRANCH   5  11
HETATM   11  N   UNL     1     -12.780  14.653  66.444  1.00  0.00    -0.211 N  
HETATM   12  H   UNL     1     -13.730  14.733  66.804  1.00  0.00     0.000 HD 
BRANCH  11  13
HETATM   13  C   UNL     1     -11.724  14.757  67.304  1.00  0.00    -0.347 C  
HETATM   14  O   UNL     1     -11.159  15.811  67.560  1.00  0.00    -0.317 OA 
BRANCH  13  15
HETATM   15  N   UNL     1     -11.423  13.564  67.907  1.00  0.00    -0.298 N  
HETATM   16  H   UNL     1     -12.172  12.961  68.248  1.00  0.00     0.000 HD 
BRANCH  15  17
HETATM   17  C   UNL     1     -10.055  13.165  68.059  1.00  0.00    -0.232 C  
BRANCH  17  18
HETATM   18  N   UNL     1      -9.923  11.966  68.844  1.00  0.00    -0.409 N  
HETATM   19  H   UNL     1      -9.016  11.699  69.227  1.00  0.00     0.000 HD 
BRANCH  18  20
HETATM   20  C   UNL     1     -11.026  11.186  69.074  1.00  0.00    -0.235 C  
HETATM   21  O   UNL     1     -11.687  10.662  68.187  1.00  0.00    -0.474 OA 
BRANCH  20  22
HETATM   22  N   UNL     1     -11.302  11.047  70.414  1.00  0.00    -0.467 N  
HETATM   23  H   UNL     1     -11.248  11.834  71.060  1.00  0.00     0.000 HD 
BRANCH  22  24
HETATM   24  C   UNL     1     -11.673   9.728  70.851  1.00  0.00    -0.347 C  
HETATM   25  N   UNL     1     -10.684   9.003  71.610  1.00  0.00    -0.348 N  
HETATM   26  O   UNL     1     -13.779  10.431  71.984  1.00  0.00    -0.234 OA 
HETATM   27  C   UNL     1     -11.273   8.245  72.602  1.00  0.00    -0.340 C  
HETATM   28  N   UNL     1     -12.564   8.640  72.734  1.00  0.00    -0.255 NA 
HETATM   29  O   UNL     1     -10.729   7.397  73.288  1.00  0.00    -0.357 OA 
HETATM   30  C   UNL     1     -12.813   9.688  71.898  1.00  0.00    -0.425 C  
BRANCH  25  31
HETATM   31  C   UNL     1      -9.323   8.856  71.201  1.00  0.00    -0.257 C  
HETATM   32  H   UNL     1      -8.389   8.044  69.715  1.00  0.00     0.000 HD 
HETATM   33  O   UNL     1      -9.294   8.142  69.988  1.00  0.00    -0.158 OA 
ENDBRANCH  25  31
ENDBRANCH  22  24
ENDBRANCH  20  22
ENDBRANCH  18  20
ENDBRANCH  17  18
ENDBRANCH  15  17
ENDBRANCH  13  15
ENDBRANCH  11  13
ENDBRANCH   5  11
ENDBRANCH   2   4
TORSDOF 10
ENDMDL
MODEL      151
REMARK 921   NORMALIZED FREE ENERGY PREDICTED BY IDOCK:   -5.18 KCAL/MOL
REMARK 922        TOTAL FREE ENERGY PREDICTED BY IDOCK:  -10.20 KCAL/MOL
REMARK 923 INTER-LIGAND FREE ENERGY PREDICTED BY IDOCK:   -8.68 KCAL/MOL
REMARK 924 INTRA-LIGAND FREE ENERGY PREDICTED BY IDOCK:   -1.52 KCAL/MOL
REMARK 927      BINDING AFFINITY PREDICTED BY RF-SCORE:    0.00 PKD
ROOT
HETATM    1  O   UNL     1     -11.114   7.421  68.370  1.00  0.00    -0.439 OA 
HETATM    2  C   UNL     1     -11.222   6.701  69.574  1.00  0.00    -0.326 C  
HETATM    3  H   UNL     1     -11.211   6.819  67.641  1.00  0.00     0.000 HD 
ENDROOT
BRANCH   2   4
HETATM    4  N   UNL     1     -11.075   7.607  70.673  1.00  0.00    -0.254 N  
HETATM    5  C   UNL     1      -9.872   8.402  70.814  1.00  0.00    -0.182 C  
HETATM    6  O   UNL     1     -12.465   6.417  72.107  1.00  0.00    -0.291 OA 
HETATM    7  C   UNL     1      -9.688   8.313  72.347  1.00  0.00    -0.303 C  
HETATM    8  N   UNL     1     -10.823   7.787  72.880  1.00  0.00    -0.370 NA 
HETATM    9  O   UNL     1      -8.739   8.704  73.010  1.00  0.00    -0.380 OA 
HETATM   10  C   UNL     1     -11.571   7.222  71.907  1.00  0.00    -0.277 C  
BRANCH   5  11
HETATM   11  N   UNL     1     -10.104   9.772  70.430  1.00  0.00    -0.293 N  
HETATM   12  H   UNL     1      -9.309  10.394  70.284  1.00  0.00     0.000 HD 
BRANCH  11  13
HETATM   13  C   UNL     1     -11.372  10.247  70.259  1.00  0.00    -0.323 C  
HETATM   14  O   UNL     1     -12.083  10.629  71.178  1.00  0.00    -0.349 OA 
BRANCH  13  15
HETATM   15  N   UNL     1     -11.726  10.326  68.938  1.00  0.00    -0.517 N  
HETATM   16  H   UNL     1     -12.011   9.485  68.436  1.00  0.00     0.000 HD 
BRANCH  15  17
HETATM   17  C   UNL     1     -11.695  11.589  68.263  1.00  0.00    -0.301 C  
BRANCH  17  18
HETATM   18  N   UNL     1     -10.947  11.530  67.034  1.00  0.00    -0.279 N  
HETATM   19  H   UNL     1     -11.420  11.333  66.152  1.00  0.00     0.000 HD 
BRANCH  18  20
HETATM   20  C   UNL     1      -9.594  11.742  67.059  1.00  0.00    -0.187 C  
HETATM   21  O   UNL     1      -8.821  11.129  67.783  1.00  0.00    -0.131 OA 
BRANCH  20  22
HETATM   22  N   UNL     1      -9.197  12.713  66.169  1.00  0.00    -0.423 N  
HETATM   23  H   UNL     1      -8.474  12.541  65.471  1.00  0.00     0.000 HD 
BRANCH  22  24
HETATM   24  C   UNL     1      -9.859  13.984  66.281  1.00  0.00    -0.305 C  
HETATM   25  N   UNL     1      -9.008  15.143  66.392  1.00  0.00    -0.292 N  
HETATM   26  O   UNL     1     -11.254  13.711  64.233  1.00  0.00    -0.379 OA 
HETATM   27  C   UNL     1      -9.543  16.222  65.718  1.00  0.00    -0.231 C  
HETATM   28  N   UNL     1     -10.553  15.778  64.929  1.00  0.00    -0.534 NA 
HETATM   29  O   UNL     1      -9.156  17.377  65.771  1.00  0.00    -0.517 OA 
HETATM   30  C   UNL     1     -10.644  14.420  65.019  1.00  0.00    -0.432 C  
BRANCH  25  31
HETATM   31  C   UNL     1      -7.923  15.243  67.317  1.00  0.00    -0.202 C  
HETATM   32  H   UNL     1      -7.616  16.092  69.026  1.00  0.00     0.000 HD 
HETATM   33  O   UNL     1      -8.337  16.025  68.411  1.00  0.00    -0.166 OA 
ENDBRANCH  25  31
ENDBRANCH  22  24
ENDBRANCH  20  22
ENDBRANCH  18  20
ENDBRANCH  17  18
ENDBRANCH  15  17
ENDBRANCH  13  15
ENDBRANCH  11  13
ENDBRANCH   5  11
ENDBRANCH   2   4
TORSDOF 10
ENDMDL
MODEL      152
REMARK 921   NORMALIZED FREE ENERGY PREDICTED BY IDOCK:   -5.17 KCAL/MOL
REMARK 922        TOTAL FREE ENERGY PREDICTED BY IDOCK:  -10.19 KCAL/MOL
REMARK 923 INTER-LIGAND FREE ENERGY PREDICTED BY IDOCK:   -8.57 KCAL/MOL
REMARK 924 INTRA-LIGAND FREE ENERGY PREDICTED BY IDOCK:   -1.62 KCAL/MOL
REMARK 927      BINDING AFFINITY PREDICTED BY RF-SCORE:    0.00 PKD
ROOT
HETATM    1  O   UNL     1     -11.286   7.085  73.081  1.00  0.00    -0.521 OA 
HETATM    2  C   UNL     1     -11.737   8.332  72.612  1.00  0.00    -0.337 C  
HETATM    3  H   UNL     1     -11.841   6.807  73.800  1.00  0.00     0.000 HD 
ENDROOT
BRANCH   2   4
HETATM    4  N   UNL     1     -10.900   8.752  71.528  1.00  0.00    -0.277 N  
HETATM    5  C   UNL     1     -11.263   8.445  70.159  1.00  0.00    -0.136 C  
HETATM    6  O   UNL     1      -8.937   8.752  72.773  1.00  0.00    -0.361 OA 
HETATM    7  C   UNL     1      -9.865   8.096  69.598  1.00  0.00    -0.184 C  
HETATM    8  N   UNL     1      -8.934   8.475  70.516  1.00  0.00    -0.147 NA 
HETATM    9  O   UNL     1      -9.593   7.633  68.501  1.00  0.00    -0.146 OA 
HETATM   10  C   UNL     1      -9.529   8.706  71.706  1.00  0.00    -0.284 C  
BRANCH   5  11
HETATM   11  N   UNL     1     -11.782   9.609  69.484  1.00  0.00    -0.438 N  
HETATM   12  H   UNL     1     -12.202   9.508  68.560  1.00  0.00     0.000 HD 
BRANCH  11  13
HETATM   13  C   UNL     1     -11.718  10.843  70.064  1.00  0.00    -0.345 C  
HETATM   14  O   UNL     1     -12.393  11.175  71.029  1.00  0.00    -0.371 OA 
BRANCH  13  15
HETATM   15  N   UNL     1     -10.758  11.638  69.495  1.00  0.00    -0.449 N  
HETATM   16  H   UNL     1     -10.281  12.342  70.057  1.00  0.00     0.000 HD 
BRANCH  15  17
HETATM   17  C   UNL     1     -10.427  11.479  68.111  1.00  0.00    -0.193 C  
BRANCH  17  18
HETATM   18  N   UNL     1     -11.399  12.093  67.245  1.00  0.00    -0.311 N  
HETATM   19  H   UNL     1     -12.394  11.914  67.380  1.00  0.00     0.000 HD 
BRANCH  18  20
HETATM   20  C   UNL     1     -10.976  12.920  66.238  1.00  0.00    -0.281 C  
HETATM   21  O   UNL     1     -10.335  12.540  65.267  1.00  0.00    -0.278 OA 
BRANCH  20  22
HETATM   22  N   UNL     1     -11.363  14.226  66.432  1.00  0.00    -0.334 N  
HETATM   23  H   UNL     1     -12.130  14.644  65.905  1.00  0.00     0.000 HD 
BRANCH  22  24
HETATM   24  C   UNL     1     -10.626  14.966  67.419  1.00  0.00    -0.263 C  
HETATM   25  N   UNL     1     -10.380  16.357  67.125  1.00  0.00    -0.288 N  
HETATM   26  O   UNL     1     -12.123  14.387  69.325  1.00  0.00    -0.322 OA 
HETATM   27  C   UNL     1     -10.445  17.127  68.269  1.00  0.00    -0.373 C  
HETATM   28  N   UNL     1     -10.998  16.381  69.258  1.00  0.00    -0.322 NA 
HETATM   29  O   UNL     1     -10.114  18.295  68.378  1.00  0.00    -0.355 OA 
HETATM   30  C   UNL     1     -11.361  15.162  68.767  1.00  0.00    -0.300 C  
BRANCH  25  31
HETATM   31  C   UNL     1      -9.849  16.822  65.884  1.00  0.00    -0.249 C  
HETATM   32  H   UNL     1     -10.510  17.071  64.084  1.00  0.00     0.000 HD 
HETATM   33  O   UNL     1     -10.863  16.761  64.910  1.00  0.00    -0.707 OA 
ENDBRANCH  25  31
ENDBRANCH  22  24
ENDBRANCH  20  22
ENDBRANCH  18  20
ENDBRANCH  17  18
ENDBRANCH  15  17
ENDBRANCH  13  15
ENDBRANCH  11  13
ENDBRANCH   5  11
ENDBRANCH   2   4
TORSDOF 10
ENDMDL
MODEL      153
REMARK 921   NORMALIZED FREE ENERGY PREDICTED BY IDOCK:   -5.17 KCAL/MOL
REMARK 922        TOTAL FREE ENERGY PREDICTED BY IDOCK:  -10.18 KCAL/MOL
REMARK 923 INTER-LIGAND FREE ENERGY PREDICTED BY IDOCK:   -8.06 KCAL/MOL
REMARK 924 INTRA-LIGAND FREE ENERGY PREDICTED BY IDOCK:   -2.12 KCAL/MOL
REMARK 927      BINDING AFFINITY PREDICTED BY RF-SCORE:    0.00 PKD
ROOT
HETATM    1  O   UNL     1     -12.142   5.524  73.009  1.00  0.00    -0.547 OA 
HETATM    2  C   UNL     1     -10.838   5.463  72.482  1.00  0.00    -0.250 C  
HETATM    3  H   UNL     1     -12.250   4.830  73.648  1.00  0.00     0.000 HD 
ENDROOT
BRANCH   2   4
HETATM    4  N   UNL     1     -10.676   6.510  71.518  1.00  0.00    -0.230 N  
HETATM    5  C   UNL     1     -11.624   6.664  70.434  1.00  0.00    -0.398 C  
HETATM    6  O   UNL     1      -8.366   6.639  71.745  1.00  0.00    -0.111 OA 
HETATM    7  C   UNL     1     -10.646   7.016  69.290  1.00  0.00    -0.224 C  
HETATM    8  N   UNL     1      -9.429   7.279  69.839  1.00  0.00    -0.157 NA 
HETATM    9  O   UNL     1     -10.896   7.127  68.099  1.00  0.00    -0.183 OA 
HETATM   10  C   UNL     1      -9.392   6.830  71.112  1.00  0.00    -0.159 C  
BRANCH   5  11
HETATM   11  N   UNL     1     -12.515   7.772  70.672  1.00  0.00    -0.502 N  
HETATM   12  H   UNL     1     -13.380   7.846  70.138  1.00  0.00     0.000 HD 
BRANCH  11  13
HETATM   13  C   UNL     1     -12.216   8.723  71.604  1.00  0.00    -0.339 C  
HETATM   14  O   UNL     1     -12.494   8.622  72.792  1.00  0.00    -0.320 OA 
BRANCH  13  15
HETATM   15  N   UNL     1     -11.500   9.765  71.076  1.00  0.00    -0.352 N  
HETATM   16  H   UNL     1     -10.560   9.963  71.418  1.00  0.00     0.000 HD 
BRANCH  15  17
HETATM   17  C   UNL     1     -12.073  10.575  70.042  1.00  0.00    -0.274 C  
BRANCH  17  18
HETATM   18  N   UNL     1     -11.461  10.335  68.762  1.00  0.00    -0.478 N  
HETATM   19  H   UNL     1     -11.991   9.886  68.014  1.00  0.00     0.000 HD 
BRANCH  18  20
HETATM   20  C   UNL     1     -10.161  10.715  68.555  1.00  0.00    -0.175 C  
HETATM   21  O   UNL     1      -9.213  10.274  69.190  1.00  0.00    -0.174 OA 
BRANCH  20  22
HETATM   22  N   UNL     1     -10.037  11.639  67.544  1.00  0.00    -0.189 N  
HETATM   23  H   UNL     1      -9.355  12.396  67.586  1.00  0.00     0.000 HD 
BRANCH  22  24
HETATM   24  C   UNL     1     -10.925  11.478  66.425  1.00  0.00    -0.284 C  
HETATM   25  N   UNL     1     -11.345  12.687  65.760  1.00  0.00    -0.318 N  
HETATM   26  O   UNL     1      -9.473   9.871  65.193  1.00  0.00    -0.236 OA 
HETATM   27  C   UNL     1     -11.452  12.495  64.397  1.00  0.00    -0.349 C  
HETATM   28  N   UNL     1     -10.858  11.317  64.081  1.00  0.00    -0.360 NA 
HETATM   29  O   UNL     1     -11.948  13.264  63.592  1.00  0.00    -0.487 OA 
HETATM   30  C   UNL     1     -10.302  10.768  65.199  1.00  0.00    -0.271 C  
BRANCH  25  31
HETATM   31  C   UNL     1     -11.865  13.827  66.445  1.00  0.00    -0.404 C  
HETATM   32  H   UNL     1     -12.556  14.205  68.211  1.00  0.00     0.000 HD 
HETATM   33  O   UNL     1     -12.210  13.446  67.755  1.00  0.00    -0.291 OA 
ENDBRANCH  25  31
ENDBRANCH  22  24
ENDBRANCH  20  22
ENDBRANCH  18  20
ENDBRANCH  17  18
ENDBRANCH  15  17
ENDBRANCH  13  15
ENDBRANCH  11  13
ENDBRANCH   5  11
ENDBRANCH   2   4
TORSDOF 10
ENDMDL
MODEL      154
REMARK 921   NORMALIZED FREE ENERGY PREDICTED BY IDOCK:   -5.16 KCAL/MOL
REMARK 922        TOTAL FREE ENERGY PREDICTED BY IDOCK:  -10.18 KCAL/MOL
REMARK 923 INTER-LIGAND FREE ENERGY PREDICTED BY IDOCK:   -9.14 KCAL/MOL
REMARK 924 INTRA-LIGAND FREE ENERGY PREDICTED BY IDOCK:   -1.04 KCAL/MOL
REMARK 927      BINDING AFFINITY PREDICTED BY RF-SCORE:    0.00 PKD
ROOT
HETATM    1  O   UNL     1     -11.106  16.951  64.455  1.00  0.00    -1.184 OA 
HETATM    2  C   UNL     1     -10.327  15.896  64.966  1.00  0.00    -0.159 C  
HETATM    3  H   UNL     1     -10.602  17.754  64.495  1.00  0.00     0.000 HD 
ENDROOT
BRANCH   2   4
HETATM    4  N   UNL     1     -11.089  14.684  64.907  1.00  0.00    -0.387 N  
HETATM    5  C   UNL     1     -10.420  13.400  64.831  1.00  0.00    -0.390 C  
HETATM    6  O   UNL     1     -12.947  15.659  63.906  1.00  0.00    -0.485 OA 
HETATM    7  C   UNL     1     -11.352  12.689  63.823  1.00  0.00    -0.467 C  
HETATM    8  N   UNL     1     -12.472  13.446  63.673  1.00  0.00    -0.746 NA 
HETATM    9  O   UNL     1     -11.186  11.602  63.289  1.00  0.00    -0.347 OA 
HETATM   10  C   UNL     1     -12.260  14.685  64.170  1.00  0.00    -0.315 C  
BRANCH   5  11
HETATM   11  N   UNL     1     -10.461  12.716  66.099  1.00  0.00    -0.253 N  
HETATM   12  H   UNL     1     -11.300  12.773  66.675  1.00  0.00     0.000 HD 
BRANCH  11  13
HETATM   13  C   UNL     1      -9.391  11.992  66.540  1.00  0.00    -0.223 C  
HETATM   14  O   UNL     1      -9.312  10.774  66.451  1.00  0.00    -0.167 OA 
BRANCH  13  15
HETATM   15  N   UNL     1      -8.384  12.788  67.018  1.00  0.00    -0.322 N  
HETATM   16  H   UNL     1      -7.428  12.653  66.689  1.00  0.00     0.000 HD 
BRANCH  15  17
HETATM   17  C   UNL     1      -8.675  13.809  67.979  1.00  0.00    -0.181 C  
BRANCH  17  18
HETATM   18  N   UNL     1      -7.565  14.058  68.861  1.00  0.00    -0.214 N  
HETATM   19  H   UNL     1      -7.160  13.297  69.406  1.00  0.00     0.000 HD 
BRANCH  18  20
HETATM   20  C   UNL     1      -7.056  15.326  68.961  1.00  0.00    -0.141 C  
HETATM   21  O   UNL     1      -5.886  15.610  68.741  1.00  0.00    -0.098 OA 
BRANCH  20  22
HETATM   22  N   UNL     1      -8.009  16.248  69.325  1.00  0.00    -0.218 N  
HETATM   23  H   UNL     1      -8.465  16.221  70.237  1.00  0.00     0.000 HD 
BRANCH  22  24
HETATM   24  C   UNL     1      -8.325  17.254  68.347  1.00  0.00    -0.261 C  
HETATM   25  N   UNL     1      -9.686  17.731  68.336  1.00  0.00    -0.316 N  
HETATM   26  O   UNL     1      -6.506  18.822  69.015  1.00  0.00    -0.254 OA 
HETATM   27  C   UNL     1      -9.738  19.081  68.052  1.00  0.00    -0.340 C  
HETATM   28  N   UNL     1      -8.485  19.590  68.154  1.00  0.00    -0.318 NA 
HETATM   29  O   UNL     1     -10.737  19.733  67.800  1.00  0.00    -0.407 OA 
HETATM   30  C   UNL     1      -7.624  18.617  68.568  1.00  0.00    -0.311 C  
BRANCH  25  31
HETATM   31  C   UNL     1     -10.826  16.872  68.321  1.00  0.00    -0.357 C  
HETATM   32  H   UNL     1     -11.601  15.555  69.506  1.00  0.00     0.000 HD 
HETATM   33  O   UNL     1     -10.843  16.127  69.515  1.00  0.00    -0.280 OA 
ENDBRANCH  25  31
ENDBRANCH  22  24
ENDBRANCH  20  22
ENDBRANCH  18  20
ENDBRANCH  17  18
ENDBRANCH  15  17
ENDBRANCH  13  15
ENDBRANCH  11  13
ENDBRANCH   5  11
ENDBRANCH   2   4
TORSDOF 10
ENDMDL
MODEL      155
REMARK 921   NORMALIZED FREE ENERGY PREDICTED BY IDOCK:   -5.16 KCAL/MOL
REMARK 922        TOTAL FREE ENERGY PREDICTED BY IDOCK:  -10.18 KCAL/MOL
REMARK 923 INTER-LIGAND FREE ENERGY PREDICTED BY IDOCK:   -8.03 KCAL/MOL
REMARK 924 INTRA-LIGAND FREE ENERGY PREDICTED BY IDOCK:   -2.15 KCAL/MOL
REMARK 927      BINDING AFFINITY PREDICTED BY RF-SCORE:    0.00 PKD
ROOT
HETATM    1  O   UNL     1     -12.680  12.000  70.970  1.00  0.00    -0.334 OA 
HETATM    2  C   UNL     1     -13.204  13.055  71.740  1.00  0.00    -0.392 C  
HETATM    3  H   UNL     1     -12.919  11.175  71.375  1.00  0.00     0.000 HD 
ENDROOT
BRANCH   2   4
HETATM    4  N   UNL     1     -12.844  14.300  71.130  1.00  0.00    -0.341 N  
HETATM    5  C   UNL     1     -11.859  14.339  70.067  1.00  0.00    -0.314 C  
HETATM    6  O   UNL     1     -13.331  15.592  73.000  1.00  0.00    -0.491 OA 
HETATM    7  C   UNL     1     -11.104  15.627  70.468  1.00  0.00    -0.355 C  
HETATM    8  N   UNL     1     -11.830  16.262  71.428  1.00  0.00    -0.417 NA 
HETATM    9  O   UNL     1     -10.076  16.073  69.982  1.00  0.00    -0.214 OA 
HETATM   10  C   UNL     1     -12.756  15.421  71.937  1.00  0.00    -0.387 C  
BRANCH   5  11
HETATM   11  N   UNL     1     -12.487  14.522  68.782  1.00  0.00    -0.569 N  
HETATM   12  H   UNL     1     -13.330  15.091  68.710  1.00  0.00     0.000 HD 
BRANCH  11  13
HETATM   13  C   UNL     1     -11.968  13.943  67.660  1.00  0.00    -0.368 C  
HETATM   14  O   UNL     1     -12.358  12.877  67.203  1.00  0.00    -0.339 OA 
BRANCH  13  15
HETATM   15  N   UNL     1     -11.020  14.728  67.059  1.00  0.00    -0.316 N  
HETATM   16  H   UNL     1     -10.550  15.459  67.592  1.00  0.00     0.000 HD 
BRANCH  15  17
HETATM   17  C   UNL     1     -10.690  14.522  65.680  1.00  0.00    -0.327 C  
BRANCH  17  18
HETATM   18  N   UNL     1      -9.814  13.396  65.493  1.00  0.00    -0.485 N  
HETATM   19  H   UNL     1      -8.894  13.381  65.934  1.00  0.00     0.000 HD 
BRANCH  18  20
HETATM   20  C   UNL     1     -10.225  12.344  64.718  1.00  0.00    -0.279 C  
HETATM   21  O   UNL     1     -10.377  12.409  63.505  1.00  0.00    -0.425 OA 
BRANCH  20  22
HETATM   22  N   UNL     1     -10.436  11.200  65.452  1.00  0.00    -0.268 N  
HETATM   23  H   UNL     1     -11.328  10.706  65.436  1.00  0.00     0.000 HD 
BRANCH  22  24
HETATM   24  C   UNL     1      -9.327  10.741  66.244  1.00  0.00    -0.180 C  
HETATM   25  N   UNL     1      -9.634   9.796  67.289  1.00  0.00    -0.153 N  
HETATM   26  O   UNL     1      -7.944   9.990  64.312  1.00  0.00    -0.143 OA 
HETATM   27  C   UNL     1      -8.630   8.859  67.425  1.00  0.00    -0.119 C  
HETATM   28  N   UNL     1      -7.808   8.951  66.350  1.00  0.00    -0.102 NA 
HETATM   29  O   UNL     1      -8.511   8.046  68.326  1.00  0.00    -0.122 OA 
HETATM   30  C   UNL     1      -8.294   9.880  65.477  1.00  0.00    -0.140 C  
BRANCH  25  31
HETATM   31  C   UNL     1     -10.680   9.983  68.244  1.00  0.00    -0.240 C  
HETATM   32  H   UNL     1     -11.001  11.143  69.758  1.00  0.00     0.000 HD 
HETATM   33  O   UNL     1     -10.306  11.018  69.122  1.00  0.00    -0.214 OA 
ENDBRANCH  25  31
ENDBRANCH  22  24
ENDBRANCH  20  22
ENDBRANCH  18  20
ENDBRANCH  17  18
ENDBRANCH  15  17
ENDBRANCH  13  15
ENDBRANCH  11  13
ENDBRANCH   5  11
ENDBRANCH   2   4
TORSDOF 10
ENDMDL
MODEL      156
REMARK 921   NORMALIZED FREE ENERGY PREDICTED BY IDOCK:   -5.16 KCAL/MOL
REMARK 922        TOTAL FREE ENERGY PREDICTED BY IDOCK:  -10.18 KCAL/MOL
REMARK 923 INTER-LIGAND FREE ENERGY PREDICTED BY IDOCK:   -8.85 KCAL/MOL
REMARK 924 INTRA-LIGAND FREE ENERGY PREDICTED BY IDOCK:   -1.32 KCAL/MOL
REMARK 927      BINDING AFFINITY PREDICTED BY RF-SCORE:    0.00 PKD
ROOT
HETATM    1  O   UNL     1      -5.832  19.123  70.024  1.00  0.00    -0.243 OA 
HETATM    2  C   UNL     1      -7.190  19.486  69.952  1.00  0.00     0.110 C  
HETATM    3  H   UNL     1      -5.551  19.157  70.931  1.00  0.00     0.000 HD 
ENDROOT
BRANCH   2   4
HETATM    4  N   UNL     1      -7.613  19.436  68.584  1.00  0.00    -0.352 N  
HETATM    5  C   UNL     1      -8.045  18.185  67.995  1.00  0.00    -0.258 C  
HETATM    6  O   UNL     1      -6.315  21.240  67.903  1.00  0.00    -0.348 OA 
HETATM    7  C   UNL     1      -7.400  18.327  66.597  1.00  0.00    -0.223 C  
HETATM    8  N   UNL     1      -6.968  19.609  66.458  1.00  0.00    -0.207 NA 
HETATM    9  O   UNL     1      -7.335  17.485  65.714  1.00  0.00    -0.456 OA 
HETATM   10  C   UNL     1      -6.938  20.218  67.664  1.00  0.00    -0.282 C  
BRANCH   5  11
HETATM   11  N   UNL     1      -9.480  18.138  67.866  1.00  0.00    -0.275 N  
HETATM   12  H   UNL     1      -9.969  18.904  67.404  1.00  0.00     0.000 HD 
BRANCH  11  13
HETATM   13  C   UNL     1     -10.194  17.081  68.354  1.00  0.00    -0.331 C  
HETATM   14  O   UNL     1     -10.406  16.897  69.545  1.00  0.00    -0.273 OA 
BRANCH  13  15
HETATM   15  N   UNL     1     -10.713  16.297  67.358  1.00  0.00    -0.312 N  
HETATM   16  H   UNL     1     -11.557  15.751  67.526  1.00  0.00     0.000 HD 
BRANCH  15  17
HETATM   17  C   UNL     1     -10.068  16.245  66.080  1.00  0.00    -0.356 C  
BRANCH  17  18
HETATM   18  N   UNL     1      -9.088  15.194  66.008  1.00  0.00    -0.472 N  
HETATM   19  H   UNL     1      -8.244  15.313  65.447  1.00  0.00     0.000 HD 
BRANCH  18  20
HETATM   20  C   UNL     1      -9.297  14.030  66.701  1.00  0.00    -0.277 C  
HETATM   21  O   UNL     1      -9.162  13.925  67.913  1.00  0.00    -0.183 OA 
BRANCH  20  22
HETATM   22  N   UNL     1      -9.687  12.994  65.885  1.00  0.00    -0.411 N  
HETATM   23  H   UNL     1      -9.208  12.094  65.891  1.00  0.00     0.000 HD 
BRANCH  22  24
HETATM   24  C   UNL     1     -10.808  13.254  65.023  1.00  0.00    -0.322 C  
HETATM   25  N   UNL     1     -11.136  12.222  64.069  1.00  0.00    -0.351 N  
HETATM   26  O   UNL     1     -12.417  13.747  66.860  1.00  0.00    -0.338 OA 
HETATM   27  C   UNL     1     -12.501  12.117  63.898  1.00  0.00    -0.478 C  
HETATM   28  N   UNL     1     -13.113  12.817  64.886  1.00  0.00    -0.821 NA 
HETATM   29  O   UNL     1     -13.079  11.469  63.042  1.00  0.00    -0.296 OA 
HETATM   30  C   UNL     1     -12.177  13.320  65.741  1.00  0.00    -0.456 C  
BRANCH  25  31
HETATM   31  C   UNL     1     -10.177  11.609  63.206  1.00  0.00    -0.407 C  
HETATM   32  H   UNL     1      -8.828  10.233  63.365  1.00  0.00     0.000 HD 
HETATM   33  O   UNL     1      -9.466  10.641  63.939  1.00  0.00    -0.232 OA 
ENDBRANCH  25  31
ENDBRANCH  22  24
ENDBRANCH  20  22
ENDBRANCH  18  20
ENDBRANCH  17  18
ENDBRANCH  15  17
ENDBRANCH  13  15
ENDBRANCH  11  13
ENDBRANCH   5  11
ENDBRANCH   2   4
TORSDOF 10
ENDMDL
MODEL      157
REMARK 921   NORMALIZED FREE ENERGY PREDICTED BY IDOCK:   -5.16 KCAL/MOL
REMARK 922        TOTAL FREE ENERGY PREDICTED BY IDOCK:  -10.16 KCAL/MOL
REMARK 923 INTER-LIGAND FREE ENERGY PREDICTED BY IDOCK:   -8.91 KCAL/MOL
REMARK 924 INTRA-LIGAND FREE ENERGY PREDICTED BY IDOCK:   -1.25 KCAL/MOL
REMARK 927      BINDING AFFINITY PREDICTED BY RF-SCORE:    0.00 PKD
ROOT
HETATM    1  O   UNL     1     -12.635  14.835  64.066  1.00  0.00    -0.862 OA 
HETATM    2  C   UNL     1     -11.749  13.886  64.612  1.00  0.00    -0.397 C  
HETATM    3  H   UNL     1     -13.027  14.475  63.280  1.00  0.00     0.000 HD 
ENDROOT
BRANCH   2   4
HETATM    4  N   UNL     1     -11.157  14.430  65.797  1.00  0.00    -0.309 N  
HETATM    5  C   UNL     1     -11.665  14.067  67.105  1.00  0.00    -0.393 C  
HETATM    6  O   UNL     1     -10.419  16.385  64.779  1.00  0.00    -0.620 OA 
HETATM    7  C   UNL     1     -11.572  15.442  67.804  1.00  0.00    -0.228 C  
HETATM    8  N   UNL     1     -10.842  16.273  67.010  1.00  0.00    -0.236 NA 
HETATM    9  O   UNL     1     -11.998  15.751  68.906  1.00  0.00    -0.382 OA 
HETATM   10  C   UNL     1     -10.735  15.747  65.770  1.00  0.00    -0.327 C  
BRANCH   5  11
HETATM   11  N   UNL     1     -10.790  13.127  67.761  1.00  0.00    -0.240 N  
HETATM   12  H   UNL     1      -9.836  13.404  67.991  1.00  0.00     0.000 HD 
BRANCH  11  13
HETATM   13  C   UNL     1     -11.222  11.872  68.079  1.00  0.00    -0.257 C  
HETATM   14  O   UNL     1     -11.971  11.211  67.372  1.00  0.00    -0.532 OA 
BRANCH  13  15
HETATM   15  N   UNL     1     -10.659  11.404  69.237  1.00  0.00    -0.386 N  
HETATM   16  H   UNL     1      -9.644  11.361  69.329  1.00  0.00     0.000 HD 
BRANCH  15  17
HETATM   17  C   UNL     1     -11.496  10.975  70.317  1.00  0.00    -0.273 C  
BRANCH  17  18
HETATM   18  N   UNL     1     -12.073   9.678  70.075  1.00  0.00    -0.454 N  
HETATM   19  H   UNL     1     -12.578   9.493  69.208  1.00  0.00     0.000 HD 
BRANCH  18  20
HETATM   20  C   UNL     1     -11.939   8.695  71.020  1.00  0.00    -0.243 C  
HETATM   21  O   UNL     1     -11.381   8.856  72.097  1.00  0.00    -0.356 OA 
BRANCH  20  22
HETATM   22  N   UNL     1     -12.513   7.508  70.629  1.00  0.00    -0.545 N  
HETATM   23  H   UNL     1     -13.521   7.412  70.505  1.00  0.00     0.000 HD 
BRANCH  22  24
HETATM   24  C   UNL     1     -11.611   6.411  70.405  1.00  0.00    -0.373 C  
HETATM   25  N   UNL     1     -10.457   6.687  69.584  1.00  0.00    -0.200 N  
HETATM   26  O   UNL     1     -11.271   5.881  72.817  1.00  0.00    -0.264 OA 
HETATM   27  C   UNL     1      -9.348   6.001  70.037  1.00  0.00    -0.153 C  
HETATM   28  N   UNL     1      -9.621   5.510  71.272  1.00  0.00    -0.152 NA 
HETATM   29  O   UNL     1      -8.279   5.887  69.461  1.00  0.00    -0.110 OA 
HETATM   30  C   UNL     1     -10.860   5.920  71.667  1.00  0.00    -0.263 C  
BRANCH  25  31
HETATM   31  C   UNL     1     -10.527   7.334  68.313  1.00  0.00    -0.199 C  
HETATM   32  H   UNL     1      -9.880   8.988  67.548  1.00  0.00     0.000 HD 
HETATM   33  O   UNL     1      -9.834   8.557  68.394  1.00  0.00    -0.163 OA 
ENDBRANCH  25  31
ENDBRANCH  22  24
ENDBRANCH  20  22
ENDBRANCH  18  20
ENDBRANCH  17  18
ENDBRANCH  15  17
ENDBRANCH  13  15
ENDBRANCH  11  13
ENDBRANCH   5  11
ENDBRANCH   2   4
TORSDOF 10
ENDMDL
MODEL      158
REMARK 921   NORMALIZED FREE ENERGY PREDICTED BY IDOCK:   -5.15 KCAL/MOL
REMARK 922        TOTAL FREE ENERGY PREDICTED BY IDOCK:  -10.16 KCAL/MOL
REMARK 923 INTER-LIGAND FREE ENERGY PREDICTED BY IDOCK:   -8.09 KCAL/MOL
REMARK 924 INTRA-LIGAND FREE ENERGY PREDICTED BY IDOCK:   -2.08 KCAL/MOL
REMARK 927      BINDING AFFINITY PREDICTED BY RF-SCORE:    0.00 PKD
ROOT
HETATM    1  O   UNL     1     -11.950   6.992  72.977  1.00  0.00    -0.435 OA 
HETATM    2  C   UNL     1     -11.486   5.831  72.331  1.00  0.00    -0.288 C  
HETATM    3  H   UNL     1     -12.395   6.743  73.778  1.00  0.00     0.000 HD 
ENDROOT
BRANCH   2   4
HETATM    4  N   UNL     1     -10.814   6.207  71.123  1.00  0.00    -0.259 N  
HETATM    5  C   UNL     1     -11.565   6.717  69.993  1.00  0.00    -0.362 C  
HETATM    6  O   UNL     1      -9.032   4.744  71.417  1.00  0.00    -0.128 OA 
HETATM    7  C   UNL     1     -10.807   6.011  68.846  1.00  0.00    -0.331 C  
HETATM    8  N   UNL     1      -9.668   5.473  69.359  1.00  0.00    -0.149 NA 
HETATM    9  O   UNL     1     -11.102   5.983  67.660  1.00  0.00    -0.297 OA 
HETATM   10  C   UNL     1      -9.741   5.439  70.707  1.00  0.00    -0.180 C  
BRANCH   5  11
HETATM   11  N   UNL     1     -11.416   8.145  69.870  1.00  0.00    -0.449 N  
HETATM   12  H   UNL     1     -12.169   8.696  69.458  1.00  0.00     0.000 HD 
BRANCH  11  13
HETATM   13  C   UNL     1     -10.281   8.772  70.298  1.00  0.00    -0.196 C  
HETATM   14  O   UNL     1     -10.075   9.082  71.463  1.00  0.00    -0.301 OA 
BRANCH  13  15
HETATM   15  N   UNL     1      -9.367   8.940  69.291  1.00  0.00    -0.148 N  
HETATM   16  H   UNL     1      -9.004   8.129  68.791  1.00  0.00     0.000 HD 
BRANCH  15  17
HETATM   17  C   UNL     1      -8.922  10.256  68.942  1.00  0.00    -0.164 C  
BRANCH  17  18
HETATM   18  N   UNL     1      -9.914  11.259  69.228  1.00  0.00    -0.428 N  
HETATM   19  H   UNL     1      -9.801  11.882  70.028  1.00  0.00     0.000 HD 
BRANCH  18  20
HETATM   20  C   UNL     1     -11.013  11.370  68.417  1.00  0.00    -0.215 C  
HETATM   21  O   UNL     1     -11.098  10.853  67.310  1.00  0.00    -0.296 OA 
BRANCH  20  22
HETATM   22  N   UNL     1     -12.016  12.117  68.988  1.00  0.00    -0.282 N  
HETATM   23  H   UNL     1     -12.756  12.542  68.430  1.00  0.00     0.000 HD 
BRANCH  22  24
HETATM   24  C   UNL     1     -11.962  12.262  70.417  1.00  0.00    -0.263 C  
HETATM   25  N   UNL     1     -12.436  13.515  70.952  1.00  0.00    -0.371 N  
HETATM   26  O   UNL     1     -13.238  10.182  70.922  1.00  0.00    -0.395 OA 
HETATM   27  C   UNL     1     -13.094  13.330  72.151  1.00  0.00    -0.385 C  
HETATM   28  N   UNL     1     -13.336  12.004  72.307  1.00  0.00    -0.364 NA 
HETATM   29  O   UNL     1     -13.450  14.199  72.927  1.00  0.00    -0.628 OA 
HETATM   30  C   UNL     1     -12.913  11.325  71.202  1.00  0.00    -0.272 C  
BRANCH  25  31
HETATM   31  C   UNL     1     -12.021  14.792  70.464  1.00  0.00    -0.312 C  
HETATM   32  H   UNL     1     -12.070  15.727  68.773  1.00  0.00     0.000 HD 
HETATM   33  O   UNL     1     -12.346  14.878  69.098  1.00  0.00    -0.187 OA 
ENDBRANCH  25  31
ENDBRANCH  22  24
ENDBRANCH  20  22
ENDBRANCH  18  20
ENDBRANCH  17  18
ENDBRANCH  15  17
ENDBRANCH  13  15
ENDBRANCH  11  13
ENDBRANCH   5  11
ENDBRANCH   2   4
TORSDOF 10
ENDMDL
MODEL      159
REMARK 921   NORMALIZED FREE ENERGY PREDICTED BY IDOCK:   -5.14 KCAL/MOL
REMARK 922        TOTAL FREE ENERGY PREDICTED BY IDOCK:  -10.14 KCAL/MOL
REMARK 923 INTER-LIGAND FREE ENERGY PREDICTED BY IDOCK:   -8.69 KCAL/MOL
REMARK 924 INTRA-LIGAND FREE ENERGY PREDICTED BY IDOCK:   -1.46 KCAL/MOL
REMARK 927      BINDING AFFINITY PREDICTED BY RF-SCORE:    0.00 PKD
ROOT
HETATM    1  O   UNL     1     -12.149  14.191  68.092  1.00  0.00    -0.479 OA 
HETATM    2  C   UNL     1     -12.336  13.219  67.092  1.00  0.00    -0.107 C  
HETATM    3  H   UNL     1     -12.493  13.860  68.913  1.00  0.00     0.000 HD 
ENDROOT
BRANCH   2   4
HETATM    4  N   UNL     1     -11.817  13.718  65.854  1.00  0.00    -0.363 N  
HETATM    5  C   UNL     1     -11.103  14.979  65.812  1.00  0.00    -0.346 C  
HETATM    6  O   UNL     1     -13.398  12.652  64.525  1.00  0.00    -0.679 OA 
HETATM    7  C   UNL     1     -11.665  15.544  64.488  1.00  0.00    -0.253 C  
HETATM    8  N   UNL     1     -12.333  14.545  63.850  1.00  0.00    -0.757 NA 
HETATM    9  O   UNL     1     -11.498  16.661  64.020  1.00  0.00    -1.192 OA 
HETATM   10  C   UNL     1     -12.568  13.528  64.708  1.00  0.00    -0.301 C  
BRANCH   5  11
HETATM   11  N   UNL     1      -9.682  14.769  65.690  1.00  0.00    -0.466 N  
HETATM   12  H   UNL     1      -9.208  15.030  64.825  1.00  0.00     0.000 HD 
BRANCH  11  13
HETATM   13  C   UNL     1      -8.962  14.227  66.715  1.00  0.00    -0.227 C  
HETATM   14  O   UNL     1      -8.757  14.798  67.777  1.00  0.00    -0.162 OA 
BRANCH  13  15
HETATM   15  N   UNL     1      -8.564  12.943  66.451  1.00  0.00    -0.411 N  
HETATM   16  H   UNL     1      -8.070  12.730  65.584  1.00  0.00     0.000 HD 
BRANCH  15  17
HETATM   17  C   UNL     1      -8.843  11.900  67.393  1.00  0.00    -0.171 C  
BRANCH  17  18
HETATM   18  N   UNL     1      -7.665  11.486  68.109  1.00  0.00    -0.113 N  
HETATM   19  H   UNL     1      -6.742  11.590  67.687  1.00  0.00     0.000 HD 
BRANCH  18  20
HETATM   20  C   UNL     1      -7.794  10.949  69.363  1.00  0.00    -0.040 C  
HETATM   21  O   UNL     1      -6.886  10.907  70.182  1.00  0.00    -0.171 OA 
BRANCH  20  22
HETATM   22  N   UNL     1      -9.061  10.473  69.604  1.00  0.00    -0.405 N  
HETATM   23  H   UNL     1      -9.884  11.072  69.537  1.00  0.00     0.000 HD 
BRANCH  22  24
HETATM   24  C   UNL     1      -9.161   9.083  69.956  1.00  0.00    -0.176 C  
HETATM   25  N   UNL     1     -10.479   8.596  70.279  1.00  0.00    -0.205 N  
HETATM   26  O   UNL     1      -8.034   8.231  67.902  1.00  0.00    -0.119 OA 
HETATM   27  C   UNL     1     -10.660   7.305  69.823  1.00  0.00    -0.235 C  
HETATM   28  N   UNL     1      -9.648   7.006  68.971  1.00  0.00    -0.142 NA 
HETATM   29  O   UNL     1     -11.590   6.564  70.089  1.00  0.00    -0.396 OA 
HETATM   30  C   UNL     1      -8.848   8.097  68.804  1.00  0.00    -0.138 C  
BRANCH  25  31
HETATM   31  C   UNL     1     -11.359   9.243  71.199  1.00  0.00    -0.342 C  
HETATM   32  H   UNL     1     -12.417  10.862  71.220  1.00  0.00     0.000 HD 
HETATM   33  O   UNL     1     -11.832  10.430  70.609  1.00  0.00    -0.294 OA 
ENDBRANCH  25  31
ENDBRANCH  22  24
ENDBRANCH  20  22
ENDBRANCH  18  20
ENDBRANCH  17  18
ENDBRANCH  15  17
ENDBRANCH  13  15
ENDBRANCH  11  13
ENDBRANCH   5  11
ENDBRANCH   2   4
TORSDOF 10
ENDMDL
MODEL      160
REMARK 921   NORMALIZED FREE ENERGY PREDICTED BY IDOCK:   -5.13 KCAL/MOL
REMARK 922        TOTAL FREE ENERGY PREDICTED BY IDOCK:  -10.12 KCAL/MOL
REMARK 923 INTER-LIGAND FREE ENERGY PREDICTED BY IDOCK:   -7.53 KCAL/MOL
REMARK 924 INTRA-LIGAND FREE ENERGY PREDICTED BY IDOCK:   -2.60 KCAL/MOL
REMARK 927      BINDING AFFINITY PREDICTED BY RF-SCORE:    0.00 PKD
ROOT
HETATM    1  O   UNL     1     -10.596   5.618  66.080  1.00  0.00    -0.466 OA 
HETATM    2  C   UNL     1     -11.143   6.436  67.086  1.00  0.00    -0.341 C  
HETATM    3  H   UNL     1     -11.276   5.046  65.743  1.00  0.00     0.000 HD 
ENDROOT
BRANCH   2   4
HETATM    4  N   UNL     1     -10.117   7.298  67.593  1.00  0.00    -0.168 N  
HETATM    5  C   UNL     1      -9.880   8.593  66.988  1.00  0.00    -0.220 C  
HETATM    6  O   UNL     1      -8.793   5.575  68.419  1.00  0.00    -0.108 OA 
HETATM    7  C   UNL     1      -8.336   8.618  67.038  1.00  0.00    -0.106 C  
HETATM    8  N   UNL     1      -7.921   7.593  67.831  1.00  0.00    -0.117 NA 
HETATM    9  O   UNL     1      -7.584   9.439  66.535  1.00  0.00    -0.093 OA 
HETATM   10  C   UNL     1      -8.936   6.722  68.026  1.00  0.00    -0.117 C  
BRANCH   5  11
HETATM   11  N   UNL     1     -10.412   9.655  67.804  1.00  0.00    -0.240 N  
HETATM   12  H   UNL     1     -10.619   9.479  68.787  1.00  0.00     0.000 HD 
BRANCH  11  13
HETATM   13  C   UNL     1     -10.642  10.895  67.280  1.00  0.00    -0.251 C  
HETATM   14  O   UNL     1     -10.854  11.101  66.093  1.00  0.00    -0.253 OA 
BRANCH  13  15
HETATM   15  N   UNL     1     -10.689  11.868  68.243  1.00  0.00    -0.213 N  
HETATM   16  H   UNL     1      -9.857  12.419  68.452  1.00  0.00     0.000 HD 
BRANCH  15  17
HETATM   17  C   UNL     1     -11.908  12.110  68.957  1.00  0.00    -0.306 C  
BRANCH  17  18
HETATM   18  N   UNL     1     -11.724  12.048  70.383  1.00  0.00    -0.525 N  
HETATM   19  H   UNL     1     -10.951  12.545  70.824  1.00  0.00     0.000 HD 
BRANCH  18  20
HETATM   20  C   UNL     1     -12.598  11.316  71.143  1.00  0.00    -0.397 C  
HETATM   21  O   UNL     1     -13.253  11.781  72.067  1.00  0.00    -0.506 OA 
BRANCH  20  22
HETATM   22  N   UNL     1     -12.668  10.001  70.745  1.00  0.00    -0.480 N  
HETATM   23  H   UNL     1     -13.231   9.709  69.947  1.00  0.00     0.000 HD 
BRANCH  22  24
HETATM   24  C   UNL     1     -11.901   9.063  71.518  1.00  0.00    -0.345 C  
HETATM   25  N   UNL     1     -12.321   7.685  71.455  1.00  0.00    -0.325 N  
HETATM   26  O   UNL     1      -9.694   9.692  70.545  1.00  0.00    -0.259 OA 
HETATM   27  C   UNL     1     -11.237   6.830  71.478  1.00  0.00    -0.260 C  
HETATM   28  N   UNL     1     -10.112   7.559  71.268  1.00  0.00    -0.188 NA 
HETATM   29  O   UNL     1     -11.269   5.619  71.614  1.00  0.00    -0.231 OA 
HETATM   30  C   UNL     1     -10.444   8.862  71.036  1.00  0.00    -0.248 C  
BRANCH  25  31
HETATM   31  C   UNL     1     -13.672   7.259  71.645  1.00  0.00    -0.347 C  
HETATM   32  H   UNL     1     -15.309   8.051  72.302  1.00  0.00     0.000 HD 
HETATM   33  O   UNL     1     -14.411   8.333  72.175  1.00  0.00    -0.417 OA 
ENDBRANCH  25  31
ENDBRANCH  22  24
ENDBRANCH  20  22
ENDBRANCH  18  20
ENDBRANCH  17  18
ENDBRANCH  15  17
ENDBRANCH  13  15
ENDBRANCH  11  13
ENDBRANCH   5  11
ENDBRANCH   2   4
TORSDOF 10
ENDMDL
MODEL      161
REMARK 921   NORMALIZED FREE ENERGY PREDICTED BY IDOCK:   -5.12 KCAL/MOL
REMARK 922        TOTAL FREE ENERGY PREDICTED BY IDOCK:  -10.11 KCAL/MOL
REMARK 923 INTER-LIGAND FREE ENERGY PREDICTED BY IDOCK:   -8.10 KCAL/MOL
REMARK 924 INTRA-LIGAND FREE ENERGY PREDICTED BY IDOCK:   -2.01 KCAL/MOL
REMARK 927      BINDING AFFINITY PREDICTED BY RF-SCORE:    0.00 PKD
ROOT
HETATM    1  O   UNL     1      -6.652  18.918  65.036  1.00  0.00    -0.476 OA 
HETATM    2  C   UNL     1      -6.939  17.818  65.866  1.00  0.00    -0.256 C  
HETATM    3  H   UNL     1      -5.997  18.662  64.398  1.00  0.00     0.000 HD 
ENDROOT
BRANCH   2   4
HETATM    4  N   UNL     1      -7.926  18.206  66.829  1.00  0.00    -0.232 N  
HETATM    5  C   UNL     1      -9.330  17.939  66.589  1.00  0.00    -0.286 C  
HETATM    6  O   UNL     1      -6.688  19.975  67.689  1.00  0.00    -0.225 OA 
HETATM    7  C   UNL     1      -9.934  19.253  67.134  1.00  0.00    -0.360 C  
HETATM    8  N   UNL     1      -8.958  19.921  67.807  1.00  0.00    -0.323 NA 
HETATM    9  O   UNL     1     -11.095  19.629  67.063  1.00  0.00    -0.412 OA 
HETATM   10  C   UNL     1      -7.749  19.404  67.498  1.00  0.00    -0.256 C  
BRANCH   5  11
HETATM   11  N   UNL     1      -9.791  16.825  67.380  1.00  0.00    -0.247 N  
HETATM   12  H   UNL     1     -10.248  16.999  68.275  1.00  0.00     0.000 HD 
BRANCH  11  13
HETATM   13  C   UNL     1      -9.625  15.541  66.947  1.00  0.00    -0.228 C  
HETATM   14  O   UNL     1      -9.286  14.618  67.675  1.00  0.00    -0.186 OA 
BRANCH  13  15
HETATM   15  N   UNL     1      -9.958  15.388  65.627  1.00  0.00    -0.351 N  
HETATM   16  H   UNL     1      -9.275  15.601  64.901  1.00  0.00     0.000 HD 
BRANCH  15  17
HETATM   17  C   UNL     1     -11.267  14.930  65.269  1.00  0.00    -0.369 C  
BRANCH  17  18
HETATM   18  N   UNL     1     -11.870  14.139  66.309  1.00  0.00    -0.394 N  
HETATM   19  H   UNL     1     -12.278  14.590  67.128  1.00  0.00     0.000 HD 
BRANCH  18  20
HETATM   20  C   UNL     1     -11.891  12.774  66.190  1.00  0.00    -0.425 C  
HETATM   21  O   UNL     1     -12.496  12.176  65.310  1.00  0.00    -0.520 OA 
BRANCH  20  22
HETATM   22  N   UNL     1     -11.147  12.149  67.163  1.00  0.00    -0.273 N  
HETATM   23  H   UNL     1     -10.133  12.066  67.096  1.00  0.00     0.000 HD 
BRANCH  22  24
HETATM   24  C   UNL     1     -11.880  11.619  68.281  1.00  0.00    -0.265 C  
HETATM   25  N   UNL     1     -11.301  10.477  68.944  1.00  0.00    -0.259 N  
HETATM   26  O   UNL     1     -12.031  13.778  69.517  1.00  0.00    -0.307 OA 
HETATM   27  C   UNL     1     -11.515  10.530  70.307  1.00  0.00    -0.333 C  
HETATM   28  N   UNL     1     -11.952  11.774  70.624  1.00  0.00    -0.308 NA 
HETATM   29  O   UNL     1     -11.306   9.637  71.110  1.00  0.00    -0.327 OA 
HETATM   30  C   UNL     1     -11.960  12.558  69.509  1.00  0.00    -0.266 C  
BRANCH  25  31
HETATM   31  C   UNL     1     -10.840   9.312  68.257  1.00  0.00    -0.080 C  
HETATM   32  H   UNL     1      -9.133   8.466  67.929  1.00  0.00     0.000 HD 
HETATM   33  O   UNL     1      -9.440   9.240  68.386  1.00  0.00    -0.138 OA 
ENDBRANCH  25  31
ENDBRANCH  22  24
ENDBRANCH  20  22
ENDBRANCH  18  20
ENDBRANCH  17  18
ENDBRANCH  15  17
ENDBRANCH  13  15
ENDBRANCH  11  13
ENDBRANCH   5  11
ENDBRANCH   2   4
TORSDOF 10
ENDMDL
MODEL      162
REMARK 921   NORMALIZED FREE ENERGY PREDICTED BY IDOCK:   -5.10 KCAL/MOL
REMARK 922        TOTAL FREE ENERGY PREDICTED BY IDOCK:  -10.08 KCAL/MOL
REMARK 923 INTER-LIGAND FREE ENERGY PREDICTED BY IDOCK:   -7.85 KCAL/MOL
REMARK 924 INTRA-LIGAND FREE ENERGY PREDICTED BY IDOCK:   -2.23 KCAL/MOL
REMARK 927      BINDING AFFINITY PREDICTED BY RF-SCORE:    0.00 PKD
ROOT
HETATM    1  O   UNL     1     -12.792  16.145  71.983  1.00  0.00    -0.473 OA 
HETATM    2  C   UNL     1     -13.244  15.414  70.869  1.00  0.00    -0.455 C  
HETATM    3  H   UNL     1     -13.245  16.979  72.009  1.00  0.00     0.000 HD 
ENDROOT
BRANCH   2   4
HETATM    4  N   UNL     1     -12.561  14.155  70.829  1.00  0.00    -0.344 N  
HETATM    5  C   UNL     1     -12.045  13.639  69.577  1.00  0.00    -0.314 C  
HETATM    6  O   UNL     1     -13.665  13.266  72.671  1.00  0.00    -0.674 OA 
HETATM    7  C   UNL     1     -12.399  12.145  69.753  1.00  0.00    -0.026 C  
HETATM    8  N   UNL     1     -12.771  11.947  71.047  1.00  0.00    -0.316 NA 
HETATM    9  O   UNL     1     -12.304  11.251  68.926  1.00  0.00    -0.485 OA 
HETATM   10  C   UNL     1     -13.026  13.135  71.639  1.00  0.00    -0.335 C  
BRANCH   5  11
HETATM   11  N   UNL     1     -10.613  13.795  69.500  1.00  0.00    -0.439 N  
HETATM   12  H   UNL     1     -10.087  14.032  70.341  1.00  0.00     0.000 HD 
BRANCH  11  13
HETATM   13  C   UNL     1      -9.953  13.629  68.317  1.00  0.00    -0.236 C  
HETATM   14  O   UNL     1     -10.119  14.347  67.340  1.00  0.00    -0.240 OA 
BRANCH  13  15
HETATM   15  N   UNL     1      -9.026  12.622  68.374  1.00  0.00    -0.320 N  
HETATM   16  H   UNL     1      -8.377  12.569  69.158  1.00  0.00     0.000 HD 
BRANCH  15  17
HETATM   17  C   UNL     1      -8.970  11.643  67.329  1.00  0.00    -0.169 C  
BRANCH  17  18
HETATM   18  N   UNL     1      -9.742  10.469  67.642  1.00  0.00    -0.163 N  
HETATM   19  H   UNL     1     -10.428  10.112  66.977  1.00  0.00     0.000 HD 
BRANCH  18  20
HETATM   20  C   UNL     1      -9.548   9.835  68.841  1.00  0.00    -0.167 C  
HETATM   21  O   UNL     1      -8.588  10.039  69.572  1.00  0.00    -0.162 OA 
BRANCH  20  22
HETATM   22  N   UNL     1     -10.558   8.951  69.139  1.00  0.00    -0.296 N  
HETATM   23  H   UNL     1     -11.541   9.215  69.073  1.00  0.00     0.000 HD 
BRANCH  22  24
HETATM   24  C   UNL     1     -10.150   7.635  69.549  1.00  0.00    -0.192 C  
HETATM   25  N   UNL     1     -10.472   7.257  70.903  1.00  0.00    -0.213 N  
HETATM   26  O   UNL     1     -11.266   6.439  67.669  1.00  0.00    -0.337 OA 
HETATM   27  C   UNL     1     -10.811   5.921  70.980  1.00  0.00    -0.273 C  
HETATM   28  N   UNL     1     -11.010   5.455  69.722  1.00  0.00    -0.133 NA 
HETATM   29  O   UNL     1     -10.960   5.266  71.998  1.00  0.00    -0.208 OA 
HETATM   30  C   UNL     1     -10.878   6.475  68.827  1.00  0.00    -0.299 C  
BRANCH  25  31
HETATM   31  C   UNL     1     -10.187   8.071  72.041  1.00  0.00    -0.226 C  
HETATM   32  H   UNL     1     -10.866   9.721  72.786  1.00  0.00     0.000 HD 
HETATM   33  O   UNL     1     -11.055   9.179  72.029  1.00  0.00    -0.357 OA 
ENDBRANCH  25  31
ENDBRANCH  22  24
ENDBRANCH  20  22
ENDBRANCH  18  20
ENDBRANCH  17  18
ENDBRANCH  15  17
ENDBRANCH  13  15
ENDBRANCH  11  13
ENDBRANCH   5  11
ENDBRANCH   2   4
TORSDOF 10
ENDMDL
MODEL      163
REMARK 921   NORMALIZED FREE ENERGY PREDICTED BY IDOCK:   -5.07 KCAL/MOL
REMARK 922        TOTAL FREE ENERGY PREDICTED BY IDOCK:  -10.03 KCAL/MOL
REMARK 923 INTER-LIGAND FREE ENERGY PREDICTED BY IDOCK:   -8.26 KCAL/MOL
REMARK 924 INTRA-LIGAND FREE ENERGY PREDICTED BY IDOCK:   -1.76 KCAL/MOL
REMARK 927      BINDING AFFINITY PREDICTED BY RF-SCORE:    0.00 PKD
ROOT
HETATM    1  O   UNL     1     -11.418  16.478  63.742  1.00  0.00    -1.615 OA 
HETATM    2  C   UNL     1     -10.908  16.200  65.024  1.00  0.00    -0.363 C  
HETATM    3  H   UNL     1     -11.274  17.396  63.545  1.00  0.00     0.000 HD 
ENDROOT
BRANCH   2   4
HETATM    4  N   UNL     1     -11.125  14.816  65.321  1.00  0.00    -0.350 N  
HETATM    5  C   UNL     1     -10.018  13.966  65.712  1.00  0.00    -0.284 C  
HETATM    6  O   UNL     1     -12.988  14.602  63.947  1.00  0.00    -0.472 OA 
HETATM    7  C   UNL     1     -10.400  12.682  64.941  1.00  0.00    -0.308 C  
HETATM    8  N   UNL     1     -11.674  12.825  64.484  1.00  0.00    -0.346 NA 
HETATM    9  O   UNL     1      -9.736  11.665  64.806  1.00  0.00    -0.238 OA 
HETATM   10  C   UNL     1     -12.046  14.121  64.557  1.00  0.00    -0.468 C  
BRANCH   5  11
HETATM   11  N   UNL     1     -10.036  13.707  67.130  1.00  0.00    -0.243 N  
HETATM   12  H   UNL     1      -9.164  13.740  67.658  1.00  0.00     0.000 HD 
BRANCH  11  13
HETATM   13  C   UNL     1     -11.203  13.416  67.775  1.00  0.00    -0.279 C  
HETATM   14  O   UNL     1     -11.883  14.249  68.358  1.00  0.00    -0.324 OA 
BRANCH  13  15
HETATM   15  N   UNL     1     -11.567  12.103  67.628  1.00  0.00    -0.338 N  
HETATM   16  H   UNL     1     -11.515  11.659  66.712  1.00  0.00     0.000 HD 
BRANCH  15  17
HETATM   17  C   UNL     1     -12.022  11.356  68.763  1.00  0.00    -0.287 C  
BRANCH  17  18
HETATM   18  N   UNL     1     -11.042  11.318  69.817  1.00  0.00    -0.437 N  
HETATM   19  H   UNL     1     -10.498  12.151  70.044  1.00  0.00     0.000 HD 
BRANCH  18  20
HETATM   20  C   UNL     1     -10.847  10.154  70.514  1.00  0.00    -0.273 C  
HETATM   21  O   UNL     1     -11.733   9.565  71.117  1.00  0.00    -0.306 OA 
BRANCH  20  22
HETATM   22  N   UNL     1      -9.545   9.714  70.448  1.00  0.00    -0.290 N  
HETATM   23  H   UNL     1      -8.866   9.930  71.178  1.00  0.00     0.000 HD 
BRANCH  22  24
HETATM   24  C   UNL     1      -9.197   8.933  69.293  1.00  0.00    -0.145 C  
HETATM   25  N   UNL     1      -7.941   9.250  68.659  1.00  0.00    -0.099 N  
HETATM   26  O   UNL     1      -9.454   6.720  70.411  1.00  0.00    -0.165 OA 
HETATM   27  C   UNL     1      -7.318   8.112  68.187  1.00  0.00    -0.096 C  
HETATM   28  N   UNL     1      -7.943   7.031  68.717  1.00  0.00    -0.118 NA 
HETATM   29  O   UNL     1      -6.342   8.067  67.459  1.00  0.00    -0.053 OA 
HETATM   30  C   UNL     1      -8.916   7.438  69.581  1.00  0.00    -0.141 C  
BRANCH  25  31
HETATM   31  C   UNL     1      -7.546  10.577  68.305  1.00  0.00    -0.096 C  
HETATM   32  H   UNL     1      -8.414  12.154  67.599  1.00  0.00     0.000 HD 
HETATM   33  O   UNL     1      -8.676  11.271  67.835  1.00  0.00    -0.130 OA 
ENDBRANCH  25  31
ENDBRANCH  22  24
ENDBRANCH  20  22
ENDBRANCH  18  20
ENDBRANCH  17  18
ENDBRANCH  15  17
ENDBRANCH  13  15
ENDBRANCH  11  13
ENDBRANCH   5  11
ENDBRANCH   2   4
TORSDOF 10
ENDMDL
MODEL      164
REMARK 921   NORMALIZED FREE ENERGY PREDICTED BY IDOCK:   -5.06 KCAL/MOL
REMARK 922        TOTAL FREE ENERGY PREDICTED BY IDOCK:  -10.02 KCAL/MOL
REMARK 923 INTER-LIGAND FREE ENERGY PREDICTED BY IDOCK:   -8.31 KCAL/MOL
REMARK 924 INTRA-LIGAND FREE ENERGY PREDICTED BY IDOCK:   -1.71 KCAL/MOL
REMARK 927      BINDING AFFINITY PREDICTED BY RF-SCORE:    0.00 PKD
ROOT
HETATM    1  O   UNL     1      -9.752   9.158  68.181  1.00  0.00    -0.149 OA 
HETATM    2  C   UNL     1     -10.145   8.818  66.873  1.00  0.00    -0.278 C  
HETATM    3  H   UNL     1     -10.212   8.600  68.796  1.00  0.00     0.000 HD 
ENDROOT
BRANCH   2   4
HETATM    4  N   UNL     1      -9.451   9.660  65.945  1.00  0.00    -0.215 N  
HETATM    5  C   UNL     1     -10.153  10.252  64.824  1.00  0.00    -0.266 C  
HETATM    6  O   UNL     1      -7.377   8.664  66.276  1.00  0.00    -0.084 OA 
HETATM    7  C   UNL     1      -9.069  10.094  63.734  1.00  0.00    -0.261 C  
HETATM    8  N   UNL     1      -7.905   9.738  64.342  1.00  0.00    -0.130 NA 
HETATM    9  O   UNL     1      -9.174  10.313  62.536  1.00  0.00    -0.253 OA 
HETATM   10  C   UNL     1      -8.153   9.325  65.604  1.00  0.00    -0.112 C  
BRANCH   5  11
HETATM   11  N   UNL     1     -10.414  11.651  65.052  1.00  0.00    -0.273 N  
HETATM   12  H   UNL     1     -10.015  12.110  65.870  1.00  0.00     0.000 HD 
BRANCH  11  13
HETATM   13  C   UNL     1     -11.189  12.370  64.188  1.00  0.00    -0.376 C  
HETATM   14  O   UNL     1     -12.155  11.907  63.597  1.00  0.00    -0.483 OA 
BRANCH  13  15
HETATM   15  N   UNL     1     -10.813  13.685  64.121  1.00  0.00    -0.570 N  
HETATM   16  H   UNL     1      -9.902  13.936  63.737  1.00  0.00     0.000 HD 
BRANCH  15  17
HETATM   17  C   UNL     1     -11.701  14.708  64.590  1.00  0.00    -0.426 C  
BRANCH  17  18
HETATM   18  N   UNL     1     -11.172  16.028  64.371  1.00  0.00    -0.732 N  
HETATM   19  H   UNL     1     -11.083  16.397  63.424  1.00  0.00     0.000 HD 
BRANCH  18  20
HETATM   20  C   UNL     1     -10.789  16.787  65.446  1.00  0.00    -0.141 C  
HETATM   21  O   UNL     1     -10.779  18.011  65.447  1.00  0.00    -0.632 OA 
BRANCH  20  22
HETATM   22  N   UNL     1     -10.430  16.021  66.530  1.00  0.00    -0.302 N  
HETATM   23  H   UNL     1      -9.674  15.338  66.480  1.00  0.00     0.000 HD 
BRANCH  22  24
HETATM   24  C   UNL     1     -11.181  16.236  67.736  1.00  0.00    -0.163 C  
HETATM   25  N   UNL     1     -11.400  15.080  68.571  1.00  0.00    -0.288 N  
HETATM   26  O   UNL     1      -9.741  18.081  68.593  1.00  0.00    -0.326 OA 
HETATM   27  C   UNL     1     -11.353  15.415  69.909  1.00  0.00    -0.304 C  
HETATM   28  N   UNL     1     -10.835  16.664  70.021  1.00  0.00    -0.275 NA 
HETATM   29  O   UNL     1     -11.670  14.704  70.848  1.00  0.00    -0.298 OA 
HETATM   30  C   UNL     1     -10.477  17.126  68.789  1.00  0.00    -0.351 C  
BRANCH  25  31
HETATM   31  C   UNL     1     -11.894  13.833  68.081  1.00  0.00    -0.376 C  
HETATM   32  H   UNL     1     -11.158  12.301  67.158  1.00  0.00     0.000 HD 
HETATM   33  O   UNL     1     -10.830  13.131  67.484  1.00  0.00    -0.248 OA 
ENDBRANCH  25  31
ENDBRANCH  22  24
ENDBRANCH  20  22
ENDBRANCH  18  20
ENDBRANCH  17  18
ENDBRANCH  15  17
ENDBRANCH  13  15
ENDBRANCH  11  13
ENDBRANCH   5  11
ENDBRANCH   2   4
TORSDOF 10
ENDMDL
MODEL      165
REMARK 921   NORMALIZED FREE ENERGY PREDICTED BY IDOCK:   -5.06 KCAL/MOL
REMARK 922        TOTAL FREE ENERGY PREDICTED BY IDOCK:  -10.02 KCAL/MOL
REMARK 923 INTER-LIGAND FREE ENERGY PREDICTED BY IDOCK:   -8.37 KCAL/MOL
REMARK 924 INTRA-LIGAND FREE ENERGY PREDICTED BY IDOCK:   -1.65 KCAL/MOL
REMARK 927      BINDING AFFINITY PREDICTED BY RF-SCORE:    0.00 PKD
ROOT
HETATM    1  O   UNL     1     -10.200   8.722  66.240  1.00  0.00    -0.359 OA 
HETATM    2  C   UNL     1      -9.683   9.066  67.502  1.00  0.00    -0.161 C  
HETATM    3  H   UNL     1      -9.575   8.975  65.571  1.00  0.00     0.000 HD 
ENDROOT
BRANCH   2   4
HETATM    4  N   UNL     1     -10.626   8.685  68.511  1.00  0.00    -0.166 N  
HETATM    5  C   UNL     1     -10.834   9.523  69.675  1.00  0.00    -0.235 C  
HETATM    6  O   UNL     1     -10.445   6.403  68.109  1.00  0.00    -0.170 OA 
HETATM    7  C   UNL     1     -10.964   8.426  70.757  1.00  0.00    -0.247 C  
HETATM    8  N   UNL     1     -11.091   7.225  70.129  1.00  0.00    -0.266 NA 
HETATM    9  O   UNL     1     -11.024   8.573  71.968  1.00  0.00    -0.292 OA 
HETATM   10  C   UNL     1     -10.732   7.344  68.832  1.00  0.00    -0.130 C  
BRANCH   5  11
HETATM   11  N   UNL     1     -12.070  10.258  69.575  1.00  0.00    -0.509 N  
HETATM   12  H   UNL     1     -12.890   9.809  69.168  1.00  0.00     0.000 HD 
BRANCH  11  13
HETATM   13  C   UNL     1     -12.158  11.546  70.017  1.00  0.00    -0.331 C  
HETATM   14  O   UNL     1     -12.411  11.851  71.175  1.00  0.00    -0.348 OA 
BRANCH  13  15
HETATM   15  N   UNL     1     -11.852  12.455  69.039  1.00  0.00    -0.310 N  
HETATM   16  H   UNL     1     -12.463  12.559  68.230  1.00  0.00     0.000 HD 
BRANCH  15  17
HETATM   17  C   UNL     1     -10.672  13.260  69.156  1.00  0.00    -0.047 C  
BRANCH  17  18
HETATM   18  N   UNL     1      -9.618  12.807  68.287  1.00  0.00    -0.231 N  
HETATM   19  H   UNL     1      -9.023  12.025  68.563  1.00  0.00     0.000 HD 
BRANCH  18  20
HETATM   20  C   UNL     1      -9.419  13.434  67.085  1.00  0.00    -0.244 C  
HETATM   21  O   UNL     1      -9.068  14.601  66.975  1.00  0.00    -0.213 OA 
BRANCH  20  22
HETATM   22  N   UNL     1      -9.646  12.603  66.013  1.00  0.00    -0.368 N  
HETATM   23  H   UNL     1      -9.178  11.701  65.923  1.00  0.00     0.000 HD 
BRANCH  22  24
HETATM   24  C   UNL     1     -10.580  13.077  65.029  1.00  0.00    -0.319 C  
HETATM   25  N   UNL     1     -11.044  12.108  64.067  1.00  0.00    -0.351 N  
HETATM   26  O   UNL     1     -12.205  14.016  66.669  1.00  0.00    -0.442 OA 
HETATM   27  C   UNL     1     -12.371  12.317  63.749  1.00  0.00    -0.538 C  
HETATM   28  N   UNL     1     -12.897  13.185  64.649  1.00  0.00    -0.720 NA 
HETATM   29  O   UNL     1     -12.996  11.784  62.848  1.00  0.00    -0.367 OA 
HETATM   30  C   UNL     1     -11.960  13.494  65.592  1.00  0.00    -0.397 C  
BRANCH  25  31
HETATM   31  C   UNL     1     -10.176  11.249  63.326  1.00  0.00    -0.368 C  
HETATM   32  H   UNL     1      -8.909   9.848  63.737  1.00  0.00     0.000 HD 
HETATM   33  O   UNL     1      -9.487  10.419  64.230  1.00  0.00    -0.244 OA 
ENDBRANCH  25  31
ENDBRANCH  22  24
ENDBRANCH  20  22
ENDBRANCH  18  20
ENDBRANCH  17  18
ENDBRANCH  15  17
ENDBRANCH  13  15
ENDBRANCH  11  13
ENDBRANCH   5  11
ENDBRANCH   2   4
TORSDOF 10
ENDMDL
MODEL      166
REMARK 921   NORMALIZED FREE ENERGY PREDICTED BY IDOCK:   -5.06 KCAL/MOL
REMARK 922        TOTAL FREE ENERGY PREDICTED BY IDOCK:  -10.01 KCAL/MOL
REMARK 923 INTER-LIGAND FREE ENERGY PREDICTED BY IDOCK:   -8.06 KCAL/MOL
REMARK 924 INTRA-LIGAND FREE ENERGY PREDICTED BY IDOCK:   -1.95 KCAL/MOL
REMARK 927      BINDING AFFINITY PREDICTED BY RF-SCORE:    0.00 PKD
ROOT
HETATM    1  O   UNL     1     -10.662  17.339  69.293  1.00  0.00    -0.353 OA 
HETATM    2  C   UNL     1     -10.148  18.552  68.797  1.00  0.00    -0.356 C  
HETATM    3  H   UNL     1     -11.203  17.520  70.051  1.00  0.00     0.000 HD 
ENDROOT
BRANCH   2   4
HETATM    4  N   UNL     1      -9.331  18.278  67.652  1.00  0.00    -0.265 N  
HETATM    5  C   UNL     1      -8.926  16.921  67.347  1.00  0.00    -0.209 C  
HETATM    6  O   UNL     1      -8.314  20.368  67.623  1.00  0.00    -0.302 OA 
HETATM    7  C   UNL     1      -7.471  17.185  66.898  1.00  0.00    -0.204 C  
HETATM    8  N   UNL     1      -7.314  18.527  66.738  1.00  0.00    -0.208 NA 
HETATM    9  O   UNL     1      -6.605  16.361  66.644  1.00  0.00    -0.255 OA 
HETATM   10  C   UNL     1      -8.336  19.183  67.330  1.00  0.00    -0.277 C  
BRANCH   5  11
HETATM   11  N   UNL     1      -9.687  16.385  66.246  1.00  0.00    -0.289 N  
HETATM   12  H   UNL     1      -9.738  16.905  65.370  1.00  0.00     0.000 HD 
BRANCH  11  13
HETATM   13  C   UNL     1     -10.339  15.191  66.359  1.00  0.00    -0.286 C  
HETATM   14  O   UNL     1     -10.934  14.652  65.435  1.00  0.00    -0.316 OA 
BRANCH  13  15
HETATM   15  N   UNL     1     -10.185  14.628  67.598  1.00  0.00    -0.232 N  
HETATM   16  H   UNL     1      -9.252  14.511  67.993  1.00  0.00     0.000 HD 
BRANCH  15  17
HETATM   17  C   UNL     1     -11.336  14.203  68.338  1.00  0.00    -0.287 C  
BRANCH  17  18
HETATM   18  N   UNL     1     -11.224  12.837  68.779  1.00  0.00    -0.267 N  
HETATM   19  H   UNL     1     -10.801  12.621  69.682  1.00  0.00     0.000 HD 
BRANCH  18  20
HETATM   20  C   UNL     1     -11.692  11.830  67.976  1.00  0.00    -0.293 C  
HETATM   21  O   UNL     1     -12.094  12.001  66.833  1.00  0.00    -0.608 OA 
BRANCH  20  22
HETATM   22  N   UNL     1     -11.647  10.602  68.593  1.00  0.00    -0.456 N  
HETATM   23  H   UNL     1     -12.207   9.815  68.267  1.00  0.00     0.000 HD 
BRANCH  22  24
HETATM   24  C   UNL     1     -10.764  10.491  69.722  1.00  0.00    -0.264 C  
HETATM   25  N   UNL     1     -11.293   9.822  70.886  1.00  0.00    -0.336 N  
HETATM   26  O   UNL     1      -8.896   9.421  68.466  1.00  0.00    -0.127 OA 
HETATM   27  C   UNL     1     -10.321   9.070  71.514  1.00  0.00    -0.342 C  
HETATM   28  N   UNL     1      -9.253   8.970  70.684  1.00  0.00    -0.210 NA 
HETATM   29  O   UNL     1     -10.407   8.538  72.607  1.00  0.00    -0.297 OA 
HETATM   30  C   UNL     1      -9.533   9.580  69.497  1.00  0.00    -0.185 C  
BRANCH  25  31
HETATM   31  C   UNL     1     -12.558  10.134  71.472  1.00  0.00    -0.434 C  
HETATM   32  H   UNL     1     -13.649  11.716  71.685  1.00  0.00     0.000 HD 
HETATM   33  O   UNL     1     -12.808  11.508  71.295  1.00  0.00    -0.404 OA 
ENDBRANCH  25  31
ENDBRANCH  22  24
ENDBRANCH  20  22
ENDBRANCH  18  20
ENDBRANCH  17  18
ENDBRANCH  15  17
ENDBRANCH  13  15
ENDBRANCH  11  13
ENDBRANCH   5  11
ENDBRANCH   2   4
TORSDOF 10
ENDMDL
MODEL      167
REMARK 921   NORMALIZED FREE ENERGY PREDICTED BY IDOCK:   -5.05 KCAL/MOL
REMARK 922        TOTAL FREE ENERGY PREDICTED BY IDOCK:  -10.00 KCAL/MOL
REMARK 923 INTER-LIGAND FREE ENERGY PREDICTED BY IDOCK:   -8.47 KCAL/MOL
REMARK 924 INTRA-LIGAND FREE ENERGY PREDICTED BY IDOCK:   -1.53 KCAL/MOL
REMARK 927      BINDING AFFINITY PREDICTED BY RF-SCORE:    0.00 PKD
ROOT
HETATM    1  O   UNL     1      -9.243   7.255  68.286  1.00  0.00    -0.134 OA 
HETATM    2  C   UNL     1     -10.183   8.286  68.464  1.00  0.00    -0.208 C  
HETATM    3  H   UNL     1      -8.921   7.281  67.392  1.00  0.00     0.000 HD 
ENDROOT
BRANCH   2   4
HETATM    4  N   UNL     1     -10.669   8.246  69.811  1.00  0.00    -0.238 N  
HETATM    5  C   UNL     1     -10.033   9.039  70.844  1.00  0.00    -0.260 C  
HETATM    6  O   UNL     1     -11.530   6.093  69.653  1.00  0.00    -0.429 OA 
HETATM    7  C   UNL     1     -10.080   8.023  72.008  1.00  0.00    -0.218 C  
HETATM    8  N   UNL     1     -10.895   6.996  71.642  1.00  0.00    -0.222 NA 
HETATM    9  O   UNL     1      -9.556   8.120  73.108  1.00  0.00    -0.271 OA 
HETATM   10  C   UNL     1     -11.112   7.034  70.309  1.00  0.00    -0.285 C  
BRANCH   5  11
HETATM   11  N   UNL     1     -10.827  10.196  71.176  1.00  0.00    -0.218 N  
HETATM   12  H   UNL     1     -10.456  10.891  71.823  1.00  0.00     0.000 HD 
BRANCH  11  13
HETATM   13  C   UNL     1     -12.067  10.374  70.635  1.00  0.00    -0.348 C  
HETATM   14  O   UNL     1     -13.087   9.879  71.095  1.00  0.00    -0.367 OA 
BRANCH  13  15
HETATM   15  N   UNL     1     -12.052  11.234  69.568  1.00  0.00    -0.328 N  
HETATM   16  H   UNL     1     -12.694  11.091  68.788  1.00  0.00     0.000 HD 
BRANCH  15  17
HETATM   17  C   UNL     1     -11.135  12.334  69.549  1.00  0.00    -0.033 C  
BRANCH  17  18
HETATM   18  N   UNL     1     -10.068  12.136  68.604  1.00  0.00    -0.346 N  
HETATM   19  H   UNL     1      -9.099  12.099  68.921  1.00  0.00     0.000 HD 
BRANCH  18  20
HETATM   20  C   UNL     1     -10.364  11.996  67.273  1.00  0.00    -0.212 C  
HETATM   21  O   UNL     1      -9.973  11.065  66.582  1.00  0.00    -0.198 OA 
BRANCH  20  22
HETATM   22  N   UNL     1     -11.162  13.012  66.802  1.00  0.00    -0.287 N  
HETATM   23  H   UNL     1     -12.140  13.102  67.078  1.00  0.00     0.000 HD 
BRANCH  22  24
HETATM   24  C   UNL     1     -10.539  13.942  65.900  1.00  0.00    -0.293 C  
HETATM   25  N   UNL     1     -11.416  14.642  64.994  1.00  0.00    -0.371 N  
HETATM   26  O   UNL     1      -9.354  15.239  67.668  1.00  0.00    -0.197 OA 
HETATM   27  C   UNL     1     -10.993  15.941  64.794  1.00  0.00    -0.375 C  
HETATM   28  N   UNL     1     -10.054  16.235  65.728  1.00  0.00    -0.420 NA 
HETATM   29  O   UNL     1     -11.414  16.722  63.958  1.00  0.00    -1.198 OA 
HETATM   30  C   UNL     1      -9.905  15.180  66.579  1.00  0.00    -0.262 C  
BRANCH  25  31
HETATM   31  C   UNL     1     -12.402  13.995  64.188  1.00  0.00    -0.332 C  
HETATM   32  H   UNL     1     -12.559  12.310  63.252  1.00  0.00     0.000 HD 
HETATM   33  O   UNL     1     -11.903  12.741  63.788  1.00  0.00    -0.419 OA 
ENDBRANCH  25  31
ENDBRANCH  22  24
ENDBRANCH  20  22
ENDBRANCH  18  20
ENDBRANCH  17  18
ENDBRANCH  15  17
ENDBRANCH  13  15
ENDBRANCH  11  13
ENDBRANCH   5  11
ENDBRANCH   2   4
TORSDOF 10
ENDMDL
MODEL      168
REMARK 921   NORMALIZED FREE ENERGY PREDICTED BY IDOCK:   -5.03 KCAL/MOL
REMARK 922        TOTAL FREE ENERGY PREDICTED BY IDOCK:   -9.97 KCAL/MOL
REMARK 923 INTER-LIGAND FREE ENERGY PREDICTED BY IDOCK:   -8.47 KCAL/MOL
REMARK 924 INTRA-LIGAND FREE ENERGY PREDICTED BY IDOCK:   -1.50 KCAL/MOL
REMARK 927      BINDING AFFINITY PREDICTED BY RF-SCORE:    0.00 PKD
ROOT
HETATM    1  O   UNL     1      -8.434  12.325  66.078  1.00  0.00    -0.377 OA 
HETATM    2  C   UNL     1      -8.698  11.353  67.061  1.00  0.00    -0.160 C  
HETATM    3  H   UNL     1      -7.538  12.228  65.780  1.00  0.00     0.000 HD 
ENDROOT
BRANCH   2   4
HETATM    4  N   UNL     1     -10.051  11.500  67.509  1.00  0.00    -0.182 N  
HETATM    5  C   UNL     1     -10.877  12.580  67.010  1.00  0.00    -0.254 C  
HETATM    6  O   UNL     1      -9.691  10.492  69.573  1.00  0.00    -0.202 OA 
HETATM    7  C   UNL     1     -11.608  12.965  68.317  1.00  0.00    -0.335 C  
HETATM    8  N   UNL     1     -11.365  11.996  69.240  1.00  0.00    -0.265 NA 
HETATM    9  O   UNL     1     -12.345  13.921  68.508  1.00  0.00    -0.272 OA 
HETATM   10  C   UNL     1     -10.331  11.225  68.836  1.00  0.00    -0.195 C  
BRANCH   5  11
HETATM   11  N   UNL     1     -11.831  12.102  66.041  1.00  0.00    -0.341 N  
HETATM   12  H   UNL     1     -12.129  11.127  66.068  1.00  0.00     0.000 HD 
BRANCH  11  13
HETATM   13  C   UNL     1     -12.340  12.935  65.087  1.00  0.00    -0.493 C  
HETATM   14  O   UNL     1     -12.955  12.547  64.103  1.00  0.00    -0.740 OA 
BRANCH  13  15
HETATM   15  N   UNL     1     -12.157  14.257  65.398  1.00  0.00    -0.388 N  
HETATM   16  H   UNL     1     -12.636  14.663  66.201  1.00  0.00     0.000 HD 
BRANCH  15  17
HETATM   17  C   UNL     1     -11.292  15.067  64.593  1.00  0.00    -0.352 C  
BRANCH  17  18
HETATM   18  N   UNL     1     -10.220  15.646  65.360  1.00  0.00    -0.373 N  
HETATM   19  H   UNL     1      -9.299  15.208  65.370  1.00  0.00     0.000 HD 
BRANCH  18  20
HETATM   20  C   UNL     1     -10.447  16.792  66.076  1.00  0.00    -0.293 C  
HETATM   21  O   UNL     1     -10.498  17.909  65.577  1.00  0.00    -0.650 OA 
BRANCH  20  22
HETATM   22  N   UNL     1     -10.626  16.548  67.418  1.00  0.00    -0.317 N  
HETATM   23  H   UNL     1     -11.413  16.002  67.766  1.00  0.00     0.000 HD 
BRANCH  22  24
HETATM   24  C   UNL     1      -9.638  17.106  68.301  1.00  0.00    -0.280 C  
HETATM   25  N   UNL     1      -8.259  16.900  67.932  1.00  0.00    -0.193 N  
HETATM   26  O   UNL     1     -10.559  19.422  68.262  1.00  0.00    -0.359 OA 
HETATM   27  C   UNL     1      -7.489  18.002  68.244  1.00  0.00    -0.266 C  
HETATM   28  N   UNL     1      -8.318  19.036  68.536  1.00  0.00    -0.342 NA 
HETATM   29  O   UNL     1      -6.272  18.070  68.219  1.00  0.00    -0.177 OA 
HETATM   30  C   UNL     1      -9.614  18.653  68.353  1.00  0.00    -0.359 C  
BRANCH  25  31
HETATM   31  C   UNL     1      -7.716  15.628  67.576  1.00  0.00    -0.168 C  
HETATM   32  H   UNL     1      -8.046  13.783  68.051  1.00  0.00     0.000 HD 
HETATM   33  O   UNL     1      -8.407  14.629  68.288  1.00  0.00    -0.135 OA 
ENDBRANCH  25  31
ENDBRANCH  22  24
ENDBRANCH  20  22
ENDBRANCH  18  20
ENDBRANCH  17  18
ENDBRANCH  15  17
ENDBRANCH  13  15
ENDBRANCH  11  13
ENDBRANCH   5  11
ENDBRANCH   2   4
TORSDOF 10
ENDMDL
MODEL      169
REMARK 921   NORMALIZED FREE ENERGY PREDICTED BY IDOCK:   -5.03 KCAL/MOL
REMARK 922        TOTAL FREE ENERGY PREDICTED BY IDOCK:   -9.97 KCAL/MOL
REMARK 923 INTER-LIGAND FREE ENERGY PREDICTED BY IDOCK:   -8.27 KCAL/MOL
REMARK 924 INTRA-LIGAND FREE ENERGY PREDICTED BY IDOCK:   -1.70 KCAL/MOL
REMARK 927      BINDING AFFINITY PREDICTED BY RF-SCORE:    0.00 PKD
ROOT
HETATM    1  O   UNL     1      -9.078  20.064  65.673  1.00  0.00    -0.456 OA 
HETATM    2  C   UNL     1      -7.680  20.058  65.839  1.00  0.00    -0.282 C  
HETATM    3  H   UNL     1      -9.337  20.884  65.271  1.00  0.00     0.000 HD 
ENDROOT
BRANCH   2   4
HETATM    4  N   UNL     1      -7.288  18.821  66.446  1.00  0.00    -0.233 N  
HETATM    5  C   UNL     1      -7.814  18.441  67.742  1.00  0.00    -0.241 C  
HETATM    6  O   UNL     1      -5.219  18.722  65.391  1.00  0.00    -0.142 OA 
HETATM    7  C   UNL     1      -6.537  17.833  68.365  1.00  0.00    -0.202 C  
HETATM    8  N   UNL     1      -5.612  17.686  67.378  1.00  0.00    -0.133 NA 
HETATM    9  O   UNL     1      -6.370  17.463  69.518  1.00  0.00    -0.244 OA 
HETATM   10  C   UNL     1      -5.977  18.407  66.295  1.00  0.00    -0.169 C  
BRANCH   5  11
HETATM   11  N   UNL     1      -8.827  17.422  67.615  1.00  0.00    -0.224 N  
HETATM   12  H   UNL     1      -8.583  16.517  67.214  1.00  0.00     0.000 HD 
BRANCH  11  13
HETATM   13  C   UNL     1     -10.109  17.653  68.023  1.00  0.00    -0.343 C  
HETATM   14  O   UNL     1     -10.831  18.514  67.540  1.00  0.00    -0.422 OA 
BRANCH  13  15
HETATM   15  N   UNL     1     -10.521  16.760  68.977  1.00  0.00    -0.318 N  
HETATM   16  H   UNL     1     -10.087  16.763  69.900  1.00  0.00     0.000 HD 
BRANCH  15  17
HETATM   17  C   UNL     1     -11.562  15.822  68.677  1.00  0.00    -0.386 C  
BRANCH  17  18
HETATM   18  N   UNL     1     -11.050  14.613  68.087  1.00  0.00    -0.264 N  
HETATM   19  H   UNL     1     -10.307  14.655  67.389  1.00  0.00     0.000 HD 
BRANCH  18  20
HETATM   20  C   UNL     1     -11.570  13.405  68.470  1.00  0.00    -0.333 C  
HETATM   21  O   UNL     1     -11.898  13.137  69.618  1.00  0.00    -0.304 OA 
BRANCH  20  22
HETATM   22  N   UNL     1     -11.695  12.528  67.417  1.00  0.00    -0.370 N  
HETATM   23  H   UNL     1     -12.042  11.578  67.546  1.00  0.00     0.000 HD 
BRANCH  22  24
HETATM   24  C   UNL     1     -11.307  13.028  66.126  1.00  0.00    -0.314 C  
HETATM   25  N   UNL     1     -10.684  12.082  65.233  1.00  0.00    -0.278 N  
HETATM   26  O   UNL     1     -13.550  13.941  65.536  1.00  0.00    -0.579 OA 
HETATM   27  C   UNL     1     -11.066  12.304  63.926  1.00  0.00    -0.412 C  
HETATM   28  N   UNL     1     -12.122  13.156  63.926  1.00  0.00    -0.511 NA 
HETATM   29  O   UNL     1     -10.582  11.793  62.930  1.00  0.00    -0.208 OA 
HETATM   30  C   UNL     1     -12.484  13.440  65.209  1.00  0.00    -0.483 C  
BRANCH  25  31
HETATM   31  C   UNL     1      -9.598  11.235  65.610  1.00  0.00    -0.229 C  
HETATM   32  H   UNL     1      -8.051  11.371  66.763  1.00  0.00     0.000 HD 
HETATM   33  O   UNL     1      -8.774  11.934  66.512  1.00  0.00    -0.194 OA 
ENDBRANCH  25  31
ENDBRANCH  22  24
ENDBRANCH  20  22
ENDBRANCH  18  20
ENDBRANCH  17  18
ENDBRANCH  15  17
ENDBRANCH  13  15
ENDBRANCH  11  13
ENDBRANCH   5  11
ENDBRANCH   2   4
TORSDOF 10
ENDMDL
MODEL      170
REMARK 921   NORMALIZED FREE ENERGY PREDICTED BY IDOCK:   -5.03 KCAL/MOL
REMARK 922        TOTAL FREE ENERGY PREDICTED BY IDOCK:   -9.96 KCAL/MOL
REMARK 923 INTER-LIGAND FREE ENERGY PREDICTED BY IDOCK:   -8.84 KCAL/MOL
REMARK 924 INTRA-LIGAND FREE ENERGY PREDICTED BY IDOCK:   -1.13 KCAL/MOL
REMARK 927      BINDING AFFINITY PREDICTED BY RF-SCORE:    0.00 PKD
ROOT
HETATM    1  O   UNL     1     -10.068  10.594  70.235  1.00  0.00    -0.341 OA 
HETATM    2  C   UNL     1     -10.726  11.555  69.445  1.00  0.00    -0.068 C  
HETATM    3  H   UNL     1      -9.234  10.382  69.832  1.00  0.00     0.000 HD 
ENDROOT
BRANCH   2   4
HETATM    4  N   UNL     1     -11.983  11.875  70.052  1.00  0.00    -0.339 N  
HETATM    5  C   UNL     1     -12.168  13.138  70.738  1.00  0.00    -0.290 C  
HETATM    6  O   UNL     1     -12.593   9.664  70.434  1.00  0.00    -0.042 OA 
HETATM    7  C   UNL     1     -13.007  12.652  71.941  1.00  0.00    -0.297 C  
HETATM    8  N   UNL     1     -13.407  11.376  71.692  1.00  0.00    -0.289 NA 
HETATM    9  O   UNL     1     -13.341  13.292  72.927  1.00  0.00    -0.518 OA 
HETATM   10  C   UNL     1     -12.684  10.857  70.675  1.00  0.00    -0.309 C  
BRANCH   5  11
HETATM   11  N   UNL     1     -12.943  14.055  69.941  1.00  0.00    -0.227 N  
HETATM   12  H   UNL     1     -13.537  13.696  69.194  1.00  0.00     0.000 HD 
BRANCH  11  13
HETATM   13  C   UNL     1     -12.894  15.400  70.172  1.00  0.00    -0.158 C  
HETATM   14  O   UNL     1     -13.399  15.940  71.147  1.00  0.00    -0.516 OA 
BRANCH  13  15
HETATM   15  N   UNL     1     -12.147  16.063  69.235  1.00  0.00    -0.382 N  
HETATM   16  H   UNL     1     -12.600  16.694  68.575  1.00  0.00     0.000 HD 
BRANCH  15  17
HETATM   17  C   UNL     1     -10.728  15.870  69.184  1.00  0.00    -0.259 C  
BRANCH  17  18
HETATM   18  N   UNL     1     -10.243  15.757  67.833  1.00  0.00    -0.238 N  
HETATM   19  H   UNL     1      -9.563  16.427  67.473  1.00  0.00     0.000 HD 
BRANCH  18  20
HETATM   20  C   UNL     1     -10.703  14.743  67.035  1.00  0.00    -0.300 C  
HETATM   21  O   UNL     1     -11.776  14.179  67.201  1.00  0.00    -0.361 OA 
BRANCH  20  22
HETATM   22  N   UNL     1      -9.830  14.437  66.018  1.00  0.00    -0.313 N  
HETATM   23  H   UNL     1      -8.821  14.402  66.166  1.00  0.00     0.000 HD 
BRANCH  22  24
HETATM   24  C   UNL     1     -10.420  14.168  64.735  1.00  0.00    -0.408 C  
HETATM   25  N   UNL     1     -11.340  13.059  64.671  1.00  0.00    -0.314 N  
HETATM   26  O   UNL     1     -11.292  16.476  64.381  1.00  0.00    -0.921 OA 
HETATM   27  C   UNL     1     -12.384  13.326  63.809  1.00  0.00    -0.367 C  
HETATM   28  N   UNL     1     -12.368  14.650  63.512  1.00  0.00    -0.512 NA 
HETATM   29  O   UNL     1     -13.218  12.532  63.410  1.00  0.00    -0.441 OA 
HETATM   30  C   UNL     1     -11.379  15.268  64.218  1.00  0.00    -0.103 C  
BRANCH  25  31
HETATM   31  C   UNL     1     -11.052  11.761  65.191  1.00  0.00    -0.282 C  
HETATM   32  H   UNL     1      -9.708  10.402  64.897  1.00  0.00     0.000 HD 
HETATM   33  O   UNL     1      -9.900  11.266  64.551  1.00  0.00    -0.242 OA 
ENDBRANCH  25  31
ENDBRANCH  22  24
ENDBRANCH  20  22
ENDBRANCH  18  20
ENDBRANCH  17  18
ENDBRANCH  15  17
ENDBRANCH  13  15
ENDBRANCH  11  13
ENDBRANCH   5  11
ENDBRANCH   2   4
TORSDOF 10
ENDMDL
MODEL      171
REMARK 921   NORMALIZED FREE ENERGY PREDICTED BY IDOCK:   -5.03 KCAL/MOL
REMARK 922        TOTAL FREE ENERGY PREDICTED BY IDOCK:   -9.96 KCAL/MOL
REMARK 923 INTER-LIGAND FREE ENERGY PREDICTED BY IDOCK:   -9.38 KCAL/MOL
REMARK 924 INTRA-LIGAND FREE ENERGY PREDICTED BY IDOCK:   -0.58 KCAL/MOL
REMARK 927      BINDING AFFINITY PREDICTED BY RF-SCORE:    0.00 PKD
ROOT
HETATM    1  O   UNL     1     -10.925  17.133  64.868  1.00  0.00    -0.743 OA 
HETATM    2  C   UNL     1     -10.532  15.929  65.482  1.00  0.00    -0.404 C  
HETATM    3  H   UNL     1     -10.264  17.794  65.033  1.00  0.00     0.000 HD 
ENDROOT
BRANCH   2   4
HETATM    4  N   UNL     1     -11.530  14.932  65.233  1.00  0.00    -0.349 N  
HETATM    5  C   UNL     1     -11.276  13.543  65.556  1.00  0.00    -0.292 C  
HETATM    6  O   UNL     1     -12.532  16.080  63.478  1.00  0.00    -0.372 OA 
HETATM    7  C   UNL     1     -11.935  12.873  64.329  1.00  0.00    -0.399 C  
HETATM    8  N   UNL     1     -12.657  13.817  63.667  1.00  0.00    -0.782 NA 
HETATM    9  O   UNL     1     -11.902  11.693  64.014  1.00  0.00    -0.323 OA 
HETATM   10  C   UNL     1     -12.298  15.050  64.088  1.00  0.00    -0.142 C  
BRANCH   5  11
HETATM   11  N   UNL     1     -11.971  13.151  66.757  1.00  0.00    -0.388 N  
HETATM   12  H   UNL     1     -12.931  13.462  66.906  1.00  0.00     0.000 HD 
BRANCH  11  13
HETATM   13  C   UNL     1     -11.363  12.371  67.697  1.00  0.00    -0.312 C  
HETATM   14  O   UNL     1     -11.897  11.408  68.230  1.00  0.00    -0.501 OA 
BRANCH  13  15
HETATM   15  N   UNL     1     -10.061  12.739  67.917  1.00  0.00    -0.224 N  
HETATM   16  H   UNL     1      -9.327  12.031  67.935  1.00  0.00     0.000 HD 
BRANCH  15  17
HETATM   17  C   UNL     1      -9.733  14.118  68.122  1.00  0.00    -0.225 C  
BRANCH  17  18
HETATM   18  N   UNL     1      -8.706  14.291  69.115  1.00  0.00    -0.371 N  
HETATM   19  H   UNL     1      -8.625  13.633  69.891  1.00  0.00     0.000 HD 
BRANCH  18  20
HETATM   20  C   UNL     1      -7.838  15.345  69.010  1.00  0.00    -0.194 C  
HETATM   21  O   UNL     1      -6.843  15.482  69.710  1.00  0.00    -0.178 OA 
BRANCH  20  22
HETATM   22  N   UNL     1      -8.200  16.229  68.021  1.00  0.00    -0.154 N  
HETATM   23  H   UNL     1      -8.204  15.963  67.036  1.00  0.00     0.000 HD 
BRANCH  22  24
HETATM   24  C   UNL     1      -8.573  17.548  68.453  1.00  0.00    -0.275 C  
HETATM   25  N   UNL     1      -8.415  18.608  67.488  1.00  0.00    -0.264 N  
HETATM   26  O   UNL     1     -10.873  16.922  69.183  1.00  0.00    -0.312 OA 
HETATM   27  C   UNL     1      -9.430  19.538  67.596  1.00  0.00    -0.324 C  
HETATM   28  N   UNL     1     -10.407  19.016  68.379  1.00  0.00    -0.357 NA 
HETATM   29  O   UNL     1      -9.480  20.626  67.049  1.00  0.00    -0.389 OA 
HETATM   30  C   UNL     1     -10.085  17.738  68.728  1.00  0.00    -0.381 C  
BRANCH  25  31
HETATM   31  C   UNL     1      -7.219  18.823  66.737  1.00  0.00    -0.213 C  
HETATM   32  H   UNL     1      -6.388  18.041  65.176  1.00  0.00     0.000 HD 
HETATM   33  O   UNL     1      -7.184  17.899  65.676  1.00  0.00    -0.514 OA 
ENDBRANCH  25  31
ENDBRANCH  22  24
ENDBRANCH  20  22
ENDBRANCH  18  20
ENDBRANCH  17  18
ENDBRANCH  15  17
ENDBRANCH  13  15
ENDBRANCH  11  13
ENDBRANCH   5  11
ENDBRANCH   2   4
TORSDOF 10
ENDMDL
MODEL      172
REMARK 921   NORMALIZED FREE ENERGY PREDICTED BY IDOCK:   -5.02 KCAL/MOL
REMARK 922        TOTAL FREE ENERGY PREDICTED BY IDOCK:   -9.96 KCAL/MOL
REMARK 923 INTER-LIGAND FREE ENERGY PREDICTED BY IDOCK:   -8.34 KCAL/MOL
REMARK 924 INTRA-LIGAND FREE ENERGY PREDICTED BY IDOCK:   -1.62 KCAL/MOL
REMARK 927      BINDING AFFINITY PREDICTED BY RF-SCORE:    0.00 PKD
ROOT
HETATM    1  O   UNL     1     -12.234  14.031  63.432  1.00  0.00    -1.039 OA 
HETATM    2  C   UNL     1     -12.793  14.247  64.706  1.00  0.00    -0.021 C  
HETATM    3  H   UNL     1     -12.915  13.726  62.844  1.00  0.00     0.000 HD 
ENDROOT
BRANCH   2   4
HETATM    4  N   UNL     1     -11.766  14.706  65.593  1.00  0.00    -0.334 N  
HETATM    5  C   UNL     1     -11.889  14.510  67.023  1.00  0.00    -0.385 C  
HETATM    6  O   UNL     1     -11.045  16.422  64.200  1.00  0.00    -0.809 OA 
HETATM    7  C   UNL     1     -11.330  15.865  67.514  1.00  0.00    -0.098 C  
HETATM    8  N   UNL     1     -10.751  16.493  66.454  1.00  0.00    -0.210 NA 
HETATM    9  O   UNL     1     -11.320  16.301  68.655  1.00  0.00    -0.359 OA 
HETATM   10  C   UNL     1     -11.140  15.905  65.302  1.00  0.00    -0.248 C  
BRANCH   5  11
HETATM   11  N   UNL     1     -11.040  13.438  67.478  1.00  0.00    -0.267 N  
HETATM   12  H   UNL     1     -10.173  13.238  66.981  1.00  0.00     0.000 HD 
BRANCH  11  13
HETATM   13  C   UNL     1     -11.380  12.687  68.566  1.00  0.00    -0.296 C  
HETATM   14  O   UNL     1     -11.560  13.152  69.683  1.00  0.00    -0.283 OA 
BRANCH  13  15
HETATM   15  N   UNL     1     -11.576  11.369  68.249  1.00  0.00    -0.303 N  
HETATM   16  H   UNL     1     -12.506  11.038  67.993  1.00  0.00     0.000 HD 
BRANCH  15  17
HETATM   17  C   UNL     1     -10.472  10.455  68.279  1.00  0.00    -0.191 C  
BRANCH  17  18
HETATM   18  N   UNL     1     -10.840   9.177  68.831  1.00  0.00    -0.408 N  
HETATM   19  H   UNL     1     -10.778   8.333  68.262  1.00  0.00     0.000 HD 
BRANCH  18  20
HETATM   20  C   UNL     1     -11.273   9.105  70.129  1.00  0.00    -0.187 C  
HETATM   21  O   UNL     1     -11.353  10.070  70.876  1.00  0.00    -0.322 OA 
BRANCH  20  22
HETATM   22  N   UNL     1     -11.622   7.826  70.496  1.00  0.00    -0.430 N  
HETATM   23  H   UNL     1     -12.590   7.564  70.683  1.00  0.00     0.000 HD 
BRANCH  22  24
HETATM   24  C   UNL     1     -10.545   6.880  70.603  1.00  0.00    -0.222 C  
HETATM   25  N   UNL     1     -10.598   5.970  71.720  1.00  0.00    -0.221 N  
HETATM   26  O   UNL     1     -10.795   5.968  68.297  1.00  0.00    -0.275 OA 
HETATM   27  C   UNL     1     -10.128   4.721  71.370  1.00  0.00    -0.189 C  
HETATM   28  N   UNL     1     -10.031   4.663  70.018  1.00  0.00    -0.231 NA 
HETATM   29  O   UNL     1      -9.883   3.797  72.126  1.00  0.00    -0.152 OA 
HETATM   30  C   UNL     1     -10.495   5.824  69.472  1.00  0.00    -0.293 C  
BRANCH  25  31
HETATM   31  C   UNL     1     -10.821   6.385  73.069  1.00  0.00    -0.259 C  
HETATM   32  H   UNL     1     -10.317   7.891  74.171  1.00  0.00     0.000 HD 
HETATM   33  O   UNL     1     -10.169   7.615  73.274  1.00  0.00    -0.305 OA 
ENDBRANCH  25  31
ENDBRANCH  22  24
ENDBRANCH  20  22
ENDBRANCH  18  20
ENDBRANCH  17  18
ENDBRANCH  15  17
ENDBRANCH  13  15
ENDBRANCH  11  13
ENDBRANCH   5  11
ENDBRANCH   2   4
TORSDOF 10
ENDMDL
MODEL      173
REMARK 921   NORMALIZED FREE ENERGY PREDICTED BY IDOCK:   -5.01 KCAL/MOL
REMARK 922        TOTAL FREE ENERGY PREDICTED BY IDOCK:   -9.94 KCAL/MOL
REMARK 923 INTER-LIGAND FREE ENERGY PREDICTED BY IDOCK:   -7.63 KCAL/MOL
REMARK 924 INTRA-LIGAND FREE ENERGY PREDICTED BY IDOCK:   -2.31 KCAL/MOL
REMARK 927      BINDING AFFINITY PREDICTED BY RF-SCORE:    0.00 PKD
ROOT
HETATM    1  O   UNL     1     -13.131  10.309  70.317  1.00  0.00    -0.557 OA 
HETATM    2  C   UNL     1     -12.031   9.944  71.115  1.00  0.00    -0.384 C  
HETATM    3  H   UNL     1     -13.927  10.222  70.829  1.00  0.00     0.000 HD 
ENDROOT
BRANCH   2   4
HETATM    4  N   UNL     1     -10.832  10.074  70.343  1.00  0.00    -0.303 N  
HETATM    5  C   UNL     1     -10.898  10.233  68.905  1.00  0.00    -0.228 C  
HETATM    6  O   UNL     1      -9.501   8.882  71.830  1.00  0.00    -0.290 OA 
HETATM    7  C   UNL     1      -9.705   9.340  68.496  1.00  0.00    -0.150 C  
HETATM    8  N   UNL     1      -8.997   9.039  69.618  1.00  0.00    -0.147 NA 
HETATM    9  O   UNL     1      -9.374   9.003  67.369  1.00  0.00    -0.136 OA 
HETATM   10  C   UNL     1      -9.731   9.323  70.716  1.00  0.00    -0.282 C  
BRANCH   5  11
HETATM   11  N   UNL     1     -10.641  11.598  68.518  1.00  0.00    -0.208 N  
HETATM   12  H   UNL     1      -9.680  11.935  68.472  1.00  0.00     0.000 HD 
BRANCH  11  13
HETATM   13  C   UNL     1     -11.667  12.446  68.213  1.00  0.00    -0.345 C  
HETATM   14  O   UNL     1     -12.279  13.098  69.048  1.00  0.00    -0.247 OA 
BRANCH  13  15
HETATM   15  N   UNL     1     -11.879  12.544  66.863  1.00  0.00    -0.377 N  
HETATM   16  H   UNL     1     -11.936  11.700  66.293  1.00  0.00     0.000 HD 
BRANCH  15  17
HETATM   17  C   UNL     1     -12.020  13.833  66.254  1.00  0.00    -0.429 C  
BRANCH  17  18
HETATM   18  N   UNL     1     -11.003  14.081  65.266  1.00  0.00    -0.318 N  
HETATM   19  H   UNL     1     -10.722  13.344  64.619  1.00  0.00     0.000 HD 
BRANCH  18  20
HETATM   20  C   UNL     1     -10.415  15.317  65.201  1.00  0.00    -0.411 C  
HETATM   21  O   UNL     1     -10.941  16.296  64.690  1.00  0.00    -0.674 OA 
BRANCH  20  22
HETATM   22  N   UNL     1      -9.170  15.339  65.787  1.00  0.00    -0.436 N  
HETATM   23  H   UNL     1      -8.314  15.339  65.233  1.00  0.00     0.000 HD 
BRANCH  22  24
HETATM   24  C   UNL     1      -9.146  15.362  67.224  1.00  0.00    -0.206 C  
HETATM   25  N   UNL     1      -8.019  14.721  67.856  1.00  0.00    -0.130 N  
HETATM   26  O   UNL     1      -9.396  17.833  67.432  1.00  0.00    -0.249 OA 
HETATM   27  C   UNL     1      -7.625  15.407  68.987  1.00  0.00    -0.177 C  
HETATM   28  N   UNL     1      -8.236  16.617  68.990  1.00  0.00    -0.224 NA 
HETATM   29  O   UNL     1      -6.826  15.027  69.827  1.00  0.00    -0.167 OA 
HETATM   30  C   UNL     1      -8.967  16.767  67.848  1.00  0.00    -0.219 C  
BRANCH  25  31
HETATM   31  C   UNL     1      -7.570  13.405  67.529  1.00  0.00    -0.169 C  
HETATM   32  H   UNL     1      -8.279  11.883  66.570  1.00  0.00     0.000 HD 
HETATM   33  O   UNL     1      -8.577  12.758  66.788  1.00  0.00    -0.174 OA 
ENDBRANCH  25  31
ENDBRANCH  22  24
ENDBRANCH  20  22
ENDBRANCH  18  20
ENDBRANCH  17  18
ENDBRANCH  15  17
ENDBRANCH  13  15
ENDBRANCH  11  13
ENDBRANCH   5  11
ENDBRANCH   2   4
TORSDOF 10
ENDMDL
MODEL      174
REMARK 921   NORMALIZED FREE ENERGY PREDICTED BY IDOCK:   -5.01 KCAL/MOL
REMARK 922        TOTAL FREE ENERGY PREDICTED BY IDOCK:   -9.93 KCAL/MOL
REMARK 923 INTER-LIGAND FREE ENERGY PREDICTED BY IDOCK:   -8.04 KCAL/MOL
REMARK 924 INTRA-LIGAND FREE ENERGY PREDICTED BY IDOCK:   -1.89 KCAL/MOL
REMARK 927      BINDING AFFINITY PREDICTED BY RF-SCORE:    0.00 PKD
ROOT
HETATM    1  O   UNL     1      -6.995  18.765  65.136  1.00  0.00    -0.502 OA 
HETATM    2  C   UNL     1      -6.505  17.866  66.101  1.00  0.00    -0.257 C  
HETATM    3  H   UNL     1      -6.556  18.601  64.310  1.00  0.00     0.000 HD 
ENDROOT
BRANCH   2   4
HETATM    4  N   UNL     1      -7.168  18.113  67.347  1.00  0.00    -0.197 N  
HETATM    5  C   UNL     1      -8.513  17.624  67.573  1.00  0.00    -0.219 C  
HETATM    6  O   UNL     1      -6.007  20.073  67.809  1.00  0.00    -0.193 OA 
HETATM    7  C   UNL     1      -9.101  18.837  68.329  1.00  0.00    -0.324 C  
HETATM    8  N   UNL     1      -8.075  19.665  68.664  1.00  0.00    -0.326 NA 
HETATM    9  O   UNL     1     -10.263  19.024  68.655  1.00  0.00    -0.381 OA 
HETATM   10  C   UNL     1      -6.970  19.338  67.959  1.00  0.00    -0.252 C  
BRANCH   5  11
HETATM   11  N   UNL     1      -8.508  16.468  68.436  1.00  0.00    -0.199 N  
HETATM   12  H   UNL     1      -7.752  16.345  69.107  1.00  0.00     0.000 HD 
BRANCH  11  13
HETATM   13  C   UNL     1      -9.504  15.537  68.365  1.00  0.00    -0.196 C  
HETATM   14  O   UNL     1      -9.507  14.496  69.008  1.00  0.00    -0.179 OA 
BRANCH  13  15
HETATM   15  N   UNL     1     -10.535  15.936  67.556  1.00  0.00    -0.292 N  
HETATM   16  H   UNL     1     -10.342  16.471  66.710  1.00  0.00     0.000 HD 
BRANCH  15  17
HETATM   17  C   UNL     1     -11.885  15.601  67.900  1.00  0.00     0.036 C  
BRANCH  17  18
HETATM   18  N   UNL     1     -12.224  14.254  67.521  1.00  0.00    -0.598 N  
HETATM   19  H   UNL     1     -12.427  13.554  68.234  1.00  0.00     0.000 HD 
BRANCH  18  20
HETATM   20  C   UNL     1     -12.273  13.921  66.192  1.00  0.00    -0.464 C  
HETATM   21  O   UNL     1     -13.207  14.201  65.453  1.00  0.00    -0.741 OA 
BRANCH  20  22
HETATM   22  N   UNL     1     -11.148  13.248  65.778  1.00  0.00    -0.279 N  
HETATM   23  H   UNL     1     -10.317  13.739  65.446  1.00  0.00     0.000 HD 
BRANCH  22  24
HETATM   24  C   UNL     1     -11.209  11.813  65.837  1.00  0.00    -0.290 C  
HETATM   25  N   UNL     1     -10.363  11.096  64.916  1.00  0.00    -0.296 N  
HETATM   26  O   UNL     1     -10.736  11.651  68.279  1.00  0.00    -0.194 OA 
HETATM   27  C   UNL     1      -9.858   9.947  65.492  1.00  0.00    -0.311 C  
HETATM   28  N   UNL     1     -10.086  10.002  66.828  1.00  0.00    -0.215 NA 
HETATM   29  O   UNL     1      -9.261   9.050  64.922  1.00  0.00    -0.151 OA 
HETATM   30  C   UNL     1     -10.666  11.194  67.148  1.00  0.00    -0.259 C  
BRANCH  25  31
HETATM   31  C   UNL     1     -10.300  11.376  63.516  1.00  0.00    -0.423 C  
HETATM   32  H   UNL     1     -11.355  12.376  62.241  1.00  0.00     0.000 HD 
HETATM   33  O   UNL     1     -11.395  12.190  63.172  1.00  0.00    -0.343 OA 
ENDBRANCH  25  31
ENDBRANCH  22  24
ENDBRANCH  20  22
ENDBRANCH  18  20
ENDBRANCH  17  18
ENDBRANCH  15  17
ENDBRANCH  13  15
ENDBRANCH  11  13
ENDBRANCH   5  11
ENDBRANCH   2   4
TORSDOF 10
ENDMDL
MODEL      175
REMARK 921   NORMALIZED FREE ENERGY PREDICTED BY IDOCK:   -5.00 KCAL/MOL
REMARK 922        TOTAL FREE ENERGY PREDICTED BY IDOCK:   -9.93 KCAL/MOL
REMARK 923 INTER-LIGAND FREE ENERGY PREDICTED BY IDOCK:   -7.89 KCAL/MOL
REMARK 924 INTRA-LIGAND FREE ENERGY PREDICTED BY IDOCK:   -2.03 KCAL/MOL
REMARK 927      BINDING AFFINITY PREDICTED BY RF-SCORE:    0.00 PKD
ROOT
HETATM    1  O   UNL     1     -10.018  10.364  65.535  1.00  0.00    -0.249 OA 
HETATM    2  C   UNL     1     -10.378   9.573  66.642  1.00  0.00    -0.210 C  
HETATM    3  H   UNL     1      -9.857   9.797  64.790  1.00  0.00     0.000 HD 
ENDROOT
BRANCH   2   4
HETATM    4  N   UNL     1     -10.621  10.427  67.765  1.00  0.00    -0.230 N  
HETATM    5  C   UNL     1     -10.458   9.928  69.116  1.00  0.00    -0.217 C  
HETATM    6  O   UNL     1     -12.151  11.785  66.662  1.00  0.00    -0.527 OA 
HETATM    7  C   UNL     1     -11.673  10.610  69.786  1.00  0.00    -0.310 C  
HETATM    8  N   UNL     1     -12.167  11.538  68.923  1.00  0.00    -0.419 NA 
HETATM    9  O   UNL     1     -12.100  10.432  70.917  1.00  0.00    -0.311 OA 
HETATM   10  C   UNL     1     -11.668  11.328  67.685  1.00  0.00    -0.134 C  
BRANCH   5  11
HETATM   11  N   UNL     1      -9.237  10.416  69.708  1.00  0.00    -0.411 N  
HETATM   12  H   UNL     1      -9.235  10.712  70.684  1.00  0.00     0.000 HD 
BRANCH  11  13
HETATM   13  C   UNL     1      -8.084  10.486  68.981  1.00  0.00    -0.143 C  
HETATM   14  O   UNL     1      -7.467   9.505  68.589  1.00  0.00    -0.077 OA 
BRANCH  13  15
HETATM   15  N   UNL     1      -7.741  11.776  68.671  1.00  0.00    -0.156 N  
HETATM   16  H   UNL     1      -7.597  12.458  69.415  1.00  0.00     0.000 HD 
BRANCH  15  17
HETATM   17  C   UNL     1      -7.586  12.165  67.301  1.00  0.00    -0.156 C  
BRANCH  17  18
HETATM   18  N   UNL     1      -8.582  13.119  66.890  1.00  0.00    -0.381 N  
HETATM   19  H   UNL     1      -9.056  13.015  65.993  1.00  0.00     0.000 HD 
BRANCH  18  20
HETATM   20  C   UNL     1      -8.890  14.168  67.716  1.00  0.00    -0.185 C  
HETATM   21  O   UNL     1      -8.053  14.899  68.229  1.00  0.00    -0.123 OA 
BRANCH  20  22
HETATM   22  N   UNL     1     -10.245  14.318  67.894  1.00  0.00    -0.234 N  
HETATM   23  H   UNL     1     -10.785  13.683  68.482  1.00  0.00     0.000 HD 
BRANCH  22  24
HETATM   24  C   UNL     1     -10.858  15.420  67.203  1.00  0.00    -0.321 C  
HETATM   25  N   UNL     1     -10.422  16.740  67.588  1.00  0.00    -0.320 N  
HETATM   26  O   UNL     1     -10.323  14.598  64.912  1.00  0.00    -0.411 OA 
HETATM   27  C   UNL     1     -10.368  17.586  66.498  1.00  0.00    -0.325 C  
HETATM   28  N   UNL     1     -10.467  16.838  65.370  1.00  0.00    -0.634 NA 
HETATM   29  O   UNL     1     -10.209  18.794  66.523  1.00  0.00    -0.362 OA 
HETATM   30  C   UNL     1     -10.513  15.515  65.697  1.00  0.00    -0.374 C  
BRANCH  25  31
HETATM   31  C   UNL     1     -10.349  17.186  68.943  1.00  0.00    -0.348 C  
HETATM   32  H   UNL     1     -10.993  16.565  70.657  1.00  0.00     0.000 HD 
HETATM   33  O   UNL     1     -11.041  16.269  69.756  1.00  0.00    -0.326 OA 
ENDBRANCH  25  31
ENDBRANCH  22  24
ENDBRANCH  20  22
ENDBRANCH  18  20
ENDBRANCH  17  18
ENDBRANCH  15  17
ENDBRANCH  13  15
ENDBRANCH  11  13
ENDBRANCH   5  11
ENDBRANCH   2   4
TORSDOF 10
ENDMDL
MODEL      176
REMARK 921   NORMALIZED FREE ENERGY PREDICTED BY IDOCK:   -5.00 KCAL/MOL
REMARK 922        TOTAL FREE ENERGY PREDICTED BY IDOCK:   -9.92 KCAL/MOL
REMARK 923 INTER-LIGAND FREE ENERGY PREDICTED BY IDOCK:   -7.89 KCAL/MOL
REMARK 924 INTRA-LIGAND FREE ENERGY PREDICTED BY IDOCK:   -2.03 KCAL/MOL
REMARK 927      BINDING AFFINITY PREDICTED BY RF-SCORE:    0.00 PKD
ROOT
HETATM    1  O   UNL     1     -11.382   3.528  73.446  1.00  0.00    -0.205 OA 
HETATM    2  C   UNL     1     -10.853   4.770  73.844  1.00  0.00    -0.294 C  
HETATM    3  H   UNL     1     -11.595   3.021  74.220  1.00  0.00     0.000 HD 
ENDROOT
BRANCH   2   4
HETATM    4  N   UNL     1     -10.531   5.535  72.677  1.00  0.00    -0.204 N  
HETATM    5  C   UNL     1     -11.531   6.377  72.052  1.00  0.00    -0.305 C  
HETATM    6  O   UNL     1      -8.869   4.088  71.936  1.00  0.00    -0.108 OA 
HETATM    7  C   UNL     1     -11.200   6.104  70.567  1.00  0.00    -0.334 C  
HETATM    8  N   UNL     1     -10.010   5.446  70.512  1.00  0.00    -0.205 NA 
HETATM    9  O   UNL     1     -11.827   6.464  69.582  1.00  0.00    -0.323 OA 
HETATM   10  C   UNL     1      -9.693   4.966  71.735  1.00  0.00    -0.166 C  
BRANCH   5  11
HETATM   11  N   UNL     1     -11.304   7.768  72.354  1.00  0.00    -0.320 N  
HETATM   12  H   UNL     1     -10.436   8.049  72.809  1.00  0.00     0.000 HD 
BRANCH  11  13
HETATM   13  C   UNL     1     -12.236   8.715  72.040  1.00  0.00    -0.373 C  
HETATM   14  O   UNL     1     -13.428   8.605  72.292  1.00  0.00    -0.370 OA 
BRANCH  13  15
HETATM   15  N   UNL     1     -11.675   9.835  71.484  1.00  0.00    -0.389 N  
HETATM   16  H   UNL     1     -11.876  10.754  71.876  1.00  0.00     0.000 HD 
BRANCH  15  17
HETATM   17  C   UNL     1     -10.805   9.712  70.352  1.00  0.00    -0.295 C  
BRANCH  17  18
HETATM   18  N   UNL     1     -11.534   9.643  69.112  1.00  0.00    -0.454 N  
HETATM   19  H   UNL     1     -12.296   8.974  68.999  1.00  0.00     0.000 HD 
BRANCH  18  20
HETATM   20  C   UNL     1     -11.196  10.484  68.085  1.00  0.00    -0.293 C  
HETATM   21  O   UNL     1     -10.316  10.244  67.270  1.00  0.00    -0.205 OA 
BRANCH  20  22
HETATM   22  N   UNL     1     -11.966  11.623  68.063  1.00  0.00    -0.218 N  
HETATM   23  H   UNL     1     -12.917  11.624  67.694  1.00  0.00     0.000 HD 
BRANCH  22  24
HETATM   24  C   UNL     1     -11.353  12.813  68.589  1.00  0.00    -0.294 C  
HETATM   25  N   UNL     1     -11.486  14.008  67.793  1.00  0.00    -0.303 N  
HETATM   26  O   UNL     1     -12.491  12.712  70.804  1.00  0.00    -0.348 OA 
HETATM   27  C   UNL     1     -11.642  15.124  68.590  1.00  0.00    -0.338 C  
HETATM   28  N   UNL     1     -11.906  14.714  69.856  1.00  0.00    -0.300 NA 
HETATM   29  O   UNL     1     -11.603  16.288  68.228  1.00  0.00    -0.301 OA 
HETATM   30  C   UNL     1     -11.996  13.353  69.890  1.00  0.00    -0.338 C  
BRANCH  25  31
HETATM   31  C   UNL     1     -11.194  14.065  66.396  1.00  0.00    -0.319 C  
HETATM   32  H   UNL     1      -9.815  13.383  65.225  1.00  0.00     0.000 HD 
HETATM   33  O   UNL     1     -10.009  13.346  66.154  1.00  0.00    -0.284 OA 
ENDBRANCH  25  31
ENDBRANCH  22  24
ENDBRANCH  20  22
ENDBRANCH  18  20
ENDBRANCH  17  18
ENDBRANCH  15  17
ENDBRANCH  13  15
ENDBRANCH  11  13
ENDBRANCH   5  11
ENDBRANCH   2   4
TORSDOF 10
ENDMDL
MODEL      177
REMARK 921   NORMALIZED FREE ENERGY PREDICTED BY IDOCK:   -4.96 KCAL/MOL
REMARK 922        TOTAL FREE ENERGY PREDICTED BY IDOCK:   -9.85 KCAL/MOL
REMARK 923 INTER-LIGAND FREE ENERGY PREDICTED BY IDOCK:   -8.26 KCAL/MOL
REMARK 924 INTRA-LIGAND FREE ENERGY PREDICTED BY IDOCK:   -1.59 KCAL/MOL
REMARK 927      BINDING AFFINITY PREDICTED BY RF-SCORE:    0.00 PKD
ROOT
HETATM    1  O   UNL     1      -8.809   9.160  69.819  1.00  0.00    -0.140 OA 
HETATM    2  C   UNL     1      -9.506   8.273  68.979  1.00  0.00    -0.155 C  
HETATM    3  H   UNL     1      -7.984   9.391  69.408  1.00  0.00     0.000 HD 
ENDROOT
BRANCH   2   4
HETATM    4  N   UNL     1     -10.749   7.924  69.600  1.00  0.00    -0.240 N  
HETATM    5  C   UNL     1     -11.215   8.646  70.767  1.00  0.00    -0.261 C  
HETATM    6  O   UNL     1     -10.698   5.701  68.924  1.00  0.00    -0.248 OA 
HETATM    7  C   UNL     1     -11.789   7.465  71.582  1.00  0.00    -0.291 C  
HETATM    8  N   UNL     1     -11.844   6.375  70.770  1.00  0.00    -0.325 NA 
HETATM    9  O   UNL     1     -12.204   7.481  72.732  1.00  0.00    -0.054 OA 
HETATM   10  C   UNL     1     -11.092   6.585  69.667  1.00  0.00    -0.376 C  
BRANCH   5  11
HETATM   11  N   UNL     1     -12.275   9.562  70.424  1.00  0.00    -0.469 N  
HETATM   12  H   UNL     1     -12.932   9.317  69.685  1.00  0.00     0.000 HD 
BRANCH  11  13
HETATM   13  C   UNL     1     -12.410  10.753  71.077  1.00  0.00    -0.404 C  
HETATM   14  O   UNL     1     -12.912  10.867  72.187  1.00  0.00    -0.419 OA 
BRANCH  13  15
HETATM   15  N   UNL     1     -11.847  11.794  70.386  1.00  0.00    -0.499 N  
HETATM   16  H   UNL     1     -11.852  12.733  70.783  1.00  0.00     0.000 HD 
BRANCH  15  17
HETATM   17  C   UNL     1     -11.252  11.561  69.103  1.00  0.00    -0.274 C  
BRANCH  17  18
HETATM   18  N   UNL     1     -10.348  12.615  68.724  1.00  0.00    -0.390 N  
HETATM   19  H   UNL     1     -10.462  13.554  69.108  1.00  0.00     0.000 HD 
BRANCH  18  20
HETATM   20  C   UNL     1      -9.333  12.348  67.844  1.00  0.00    -0.195 C  
HETATM   21  O   UNL     1      -8.315  11.739  68.143  1.00  0.00    -0.141 OA 
BRANCH  20  22
HETATM   22  N   UNL     1      -9.591  12.828  66.581  1.00  0.00    -0.249 N  
HETATM   23  H   UNL     1      -9.172  13.691  66.237  1.00  0.00     0.000 HD 
BRANCH  22  24
HETATM   24  C   UNL     1     -10.486  12.043  65.775  1.00  0.00    -0.254 C  
HETATM   25  N   UNL     1     -11.615  12.739  65.207  1.00  0.00    -0.328 N  
HETATM   26  O   UNL     1      -8.726  11.162  64.246  1.00  0.00     0.006 OA 
HETATM   27  C   UNL     1     -11.908  12.268  63.943  1.00  0.00    -0.464 C  
HETATM   28  N   UNL     1     -10.872  11.500  63.521  1.00  0.00    -0.410 NA 
HETATM   29  O   UNL     1     -12.900  12.526  63.283  1.00  0.00    -0.666 OA 
HETATM   30  C   UNL     1      -9.876  11.517  64.452  1.00  0.00    -0.241 C  
BRANCH  25  31
HETATM   31  C   UNL     1     -12.488  13.580  65.963  1.00  0.00    -0.399 C  
HETATM   32  H   UNL     1     -12.287  15.056  67.196  1.00  0.00     0.000 HD 
HETATM   33  O   UNL     1     -11.707  14.496  66.693  1.00  0.00    -0.372 OA 
ENDBRANCH  25  31
ENDBRANCH  22  24
ENDBRANCH  20  22
ENDBRANCH  18  20
ENDBRANCH  17  18
ENDBRANCH  15  17
ENDBRANCH  13  15
ENDBRANCH  11  13
ENDBRANCH   5  11
ENDBRANCH   2   4
TORSDOF 10
ENDMDL
MODEL      178
REMARK 921   NORMALIZED FREE ENERGY PREDICTED BY IDOCK:   -4.96 KCAL/MOL
REMARK 922        TOTAL FREE ENERGY PREDICTED BY IDOCK:   -9.85 KCAL/MOL
REMARK 923 INTER-LIGAND FREE ENERGY PREDICTED BY IDOCK:   -8.40 KCAL/MOL
REMARK 924 INTRA-LIGAND FREE ENERGY PREDICTED BY IDOCK:   -1.45 KCAL/MOL
REMARK 927      BINDING AFFINITY PREDICTED BY RF-SCORE:    0.00 PKD
ROOT
HETATM    1  O   UNL     1     -12.430  12.014  70.928  1.00  0.00    -0.369 OA 
HETATM    2  C   UNL     1     -13.132  10.867  71.340  1.00  0.00    -0.356 C  
HETATM    3  H   UNL     1     -13.042  12.735  70.839  1.00  0.00     0.000 HD 
ENDROOT
BRANCH   2   4
HETATM    4  N   UNL     1     -12.210   9.779  71.474  1.00  0.00    -0.381 N  
HETATM    5  C   UNL     1     -11.418   9.344  70.342  1.00  0.00    -0.223 C  
HETATM    6  O   UNL     1     -13.373   8.736  73.195  1.00  0.00    -0.214 OA 
HETATM    7  C   UNL     1     -11.484   7.815  70.558  1.00  0.00    -0.205 C  
HETATM    8  N   UNL     1     -11.997   7.585  71.797  1.00  0.00    -0.290 NA 
HETATM    9  O   UNL     1     -11.086   6.936  69.809  1.00  0.00    -0.263 OA 
HETATM   10  C   UNL     1     -12.574   8.710  72.273  1.00  0.00    -0.395 C  
BRANCH   5  11
HETATM   11  N   UNL     1     -10.053   9.794  70.456  1.00  0.00    -0.326 N  
HETATM   12  H   UNL     1      -9.638   9.914  71.380  1.00  0.00     0.000 HD 
BRANCH  11  13
HETATM   13  C   UNL     1      -9.308  10.063  69.344  1.00  0.00    -0.223 C  
HETATM   14  O   UNL     1      -9.462   9.499  68.270  1.00  0.00    -0.133 OA 
BRANCH  13  15
HETATM   15  N   UNL     1      -8.424  11.091  69.545  1.00  0.00    -0.353 N  
HETATM   16  H   UNL     1      -8.183  11.379  70.493  1.00  0.00     0.000 HD 
BRANCH  15  17
HETATM   17  C   UNL     1      -7.841  11.762  68.421  1.00  0.00    -0.141 C  
BRANCH  17  18
HETATM   18  N   UNL     1      -8.532  12.983  68.098  1.00  0.00    -0.171 N  
HETATM   19  H   UNL     1      -8.646  13.712  68.802  1.00  0.00     0.000 HD 
BRANCH  18  20
HETATM   20  C   UNL     1      -9.035  13.158  66.836  1.00  0.00    -0.209 C  
HETATM   21  O   UNL     1      -9.080  14.239  66.264  1.00  0.00    -0.196 OA 
BRANCH  20  22
HETATM   22  N   UNL     1      -9.472  11.981  66.276  1.00  0.00    -0.227 N  
HETATM   23  H   UNL     1      -8.918  11.125  66.317  1.00  0.00     0.000 HD 
BRANCH  22  24
HETATM   24  C   UNL     1     -10.756  12.024  65.629  1.00  0.00    -0.272 C  
HETATM   25  N   UNL     1     -11.710  12.965  66.162  1.00  0.00    -0.376 N  
HETATM   26  O   UNL     1      -9.859  12.391  63.333  1.00  0.00    -0.370 OA 
HETATM   27  C   UNL     1     -12.472  13.527  65.157  1.00  0.00    -0.451 C  
HETATM   28  N   UNL     1     -11.894  13.231  63.965  1.00  0.00    -0.433 NA 
HETATM   29  O   UNL     1     -13.468  14.215  65.297  1.00  0.00    -0.606 OA 
HETATM   30  C   UNL     1     -10.732  12.549  64.173  1.00  0.00    -0.391 C  
BRANCH  25  31
HETATM   31  C   UNL     1     -12.025  13.073  67.551  1.00  0.00    -0.306 C  
HETATM   32  H   UNL     1     -12.220  11.856  69.040  1.00  0.00     0.000 HD 
HETATM   33  O   UNL     1     -12.010  11.784  68.116  1.00  0.00    -0.521 OA 
ENDBRANCH  25  31
ENDBRANCH  22  24
ENDBRANCH  20  22
ENDBRANCH  18  20
ENDBRANCH  17  18
ENDBRANCH  15  17
ENDBRANCH  13  15
ENDBRANCH  11  13
ENDBRANCH   5  11
ENDBRANCH   2   4
TORSDOF 10
ENDMDL
MODEL      179
REMARK 921   NORMALIZED FREE ENERGY PREDICTED BY IDOCK:   -4.95 KCAL/MOL
REMARK 922        TOTAL FREE ENERGY PREDICTED BY IDOCK:   -9.84 KCAL/MOL
REMARK 923 INTER-LIGAND FREE ENERGY PREDICTED BY IDOCK:   -7.71 KCAL/MOL
REMARK 924 INTRA-LIGAND FREE ENERGY PREDICTED BY IDOCK:   -2.13 KCAL/MOL
REMARK 927      BINDING AFFINITY PREDICTED BY RF-SCORE:    0.00 PKD
ROOT
HETATM    1  O   UNL     1      -8.866  11.864  62.927  1.00  0.00    -0.638 OA 
HETATM    2  C   UNL     1     -10.201  11.546  63.239  1.00  0.00    -0.391 C  
HETATM    3  H   UNL     1      -8.624  11.426  62.120  1.00  0.00     0.000 HD 
ENDROOT
BRANCH   2   4
HETATM    4  N   UNL     1     -10.564  12.206  64.457  1.00  0.00    -0.292 N  
HETATM    5  C   UNL     1     -10.079  11.717  65.731  1.00  0.00    -0.240 C  
HETATM    6  O   UNL     1     -12.580  13.032  63.646  1.00  0.00    -0.697 OA 
HETATM    7  C   UNL     1     -11.354  11.915  66.582  1.00  0.00    -0.337 C  
HETATM    8  N   UNL     1     -12.229  12.670  65.864  1.00  0.00    -0.597 NA 
HETATM    9  O   UNL     1     -11.554  11.542  67.728  1.00  0.00    -0.421 OA 
HETATM   10  C   UNL     1     -11.849  12.708  64.568  1.00  0.00    -0.379 C  
BRANCH   5  11
HETATM   11  N   UNL     1      -9.019  12.551  66.240  1.00  0.00    -0.421 N  
HETATM   12  H   UNL     1      -8.972  13.531  65.961  1.00  0.00     0.000 HD 
BRANCH  11  13
HETATM   13  C   UNL     1      -8.077  12.048  67.090  1.00  0.00    -0.177 C  
HETATM   14  O   UNL     1      -8.081  12.239  68.299  1.00  0.00    -0.154 OA 
BRANCH  13  15
HETATM   15  N   UNL     1      -7.175  11.240  66.450  1.00  0.00    -0.304 N  
HETATM   16  H   UNL     1      -6.502  11.642  65.798  1.00  0.00     0.000 HD 
BRANCH  15  17
HETATM   17  C   UNL     1      -7.177   9.828  66.698  1.00  0.00    -0.090 C  
BRANCH  17  18
HETATM   18  N   UNL     1      -8.099   9.461  67.741  1.00  0.00    -0.106 N  
HETATM   19  H   UNL     1      -7.957   9.796  68.694  1.00  0.00     0.000 HD 
BRANCH  18  20
HETATM   20  C   UNL     1      -9.168   8.659  67.443  1.00  0.00    -0.136 C  
HETATM   21  O   UNL     1      -9.343   8.134  66.351  1.00  0.00    -0.187 OA 
BRANCH  20  22
HETATM   22  N   UNL     1     -10.019   8.497  68.511  1.00  0.00    -0.178 N  
HETATM   23  H   UNL     1     -10.876   9.041  68.605  1.00  0.00     0.000 HD 
BRANCH  22  24
HETATM   24  C   UNL     1      -9.630   7.517  69.488  1.00  0.00    -0.156 C  
HETATM   25  N   UNL     1      -9.963   7.812  70.860  1.00  0.00    -0.183 N  
HETATM   26  O   UNL     1     -10.753   5.596  68.365  1.00  0.00    -0.216 OA 
HETATM   27  C   UNL     1     -10.321   6.667  71.544  1.00  0.00    -0.209 C  
HETATM   28  N   UNL     1     -10.520   5.673  70.643  1.00  0.00    -0.253 NA 
HETATM   29  O   UNL     1     -10.484   6.560  72.748  1.00  0.00    -0.198 OA 
HETATM   30  C   UNL     1     -10.370   6.161  69.378  1.00  0.00    -0.227 C  
BRANCH  25  31
HETATM   31  C   UNL     1      -9.673   9.058  71.495  1.00  0.00    -0.295 C  
HETATM   32  H   UNL     1      -8.400  10.492  71.247  1.00  0.00     0.000 HD 
HETATM   33  O   UNL     1      -8.594   9.663  70.825  1.00  0.00    -0.227 OA 
ENDBRANCH  25  31
ENDBRANCH  22  24
ENDBRANCH  20  22
ENDBRANCH  18  20
ENDBRANCH  17  18
ENDBRANCH  15  17
ENDBRANCH  13  15
ENDBRANCH  11  13
ENDBRANCH   5  11
ENDBRANCH   2   4
TORSDOF 10
ENDMDL
MODEL      180
REMARK 921   NORMALIZED FREE ENERGY PREDICTED BY IDOCK:   -4.95 KCAL/MOL
REMARK 922        TOTAL FREE ENERGY PREDICTED BY IDOCK:   -9.83 KCAL/MOL
REMARK 923 INTER-LIGAND FREE ENERGY PREDICTED BY IDOCK:   -7.51 KCAL/MOL
REMARK 924 INTRA-LIGAND FREE ENERGY PREDICTED BY IDOCK:   -2.32 KCAL/MOL
REMARK 927      BINDING AFFINITY PREDICTED BY RF-SCORE:    0.00 PKD
ROOT
HETATM    1  O   UNL     1     -10.625   7.769  68.276  1.00  0.00    -0.308 OA 
HETATM    2  C   UNL     1     -10.630   7.837  69.682  1.00  0.00    -0.242 C  
HETATM    3  H   UNL     1     -11.212   7.076  67.998  1.00  0.00     0.000 HD 
ENDROOT
BRANCH   2   4
HETATM    4  N   UNL     1      -9.744   8.881  70.101  1.00  0.00    -0.171 N  
HETATM    5  C   UNL     1      -8.724   9.384  69.202  1.00  0.00    -0.142 C  
HETATM    6  O   UNL     1      -9.862   8.353  72.361  1.00  0.00    -0.273 OA 
HETATM    7  C   UNL     1      -7.563   9.556  70.208  1.00  0.00    -0.155 C  
HETATM    8  N   UNL     1      -8.068   9.425  71.464  1.00  0.00    -0.213 NA 
HETATM    9  O   UNL     1      -6.399   9.836  69.965  1.00  0.00    -0.050 OA 
HETATM   10  C   UNL     1      -9.299   8.872  71.411  1.00  0.00    -0.268 C  
BRANCH   5  11
HETATM   11  N   UNL     1      -9.094  10.667  68.660  1.00  0.00    -0.162 N  
HETATM   12  H   UNL     1      -9.285  11.444  69.292  1.00  0.00     0.000 HD 
BRANCH  11  13
HETATM   13  C   UNL     1      -9.192  10.857  67.312  1.00  0.00    -0.151 C  
HETATM   14  O   UNL     1      -9.109   9.954  66.491  1.00  0.00    -0.147 OA 
BRANCH  13  15
HETATM   15  N   UNL     1      -9.474  12.158  66.987  1.00  0.00    -0.196 N  
HETATM   16  H   UNL     1      -8.837  12.904  67.269  1.00  0.00     0.000 HD 
BRANCH  15  17
HETATM   17  C   UNL     1     -10.663  12.470  66.252  1.00  0.00    -0.260 C  
BRANCH  17  18
HETATM   18  N   UNL     1     -11.135  13.803  66.523  1.00  0.00    -0.303 N  
HETATM   19  H   UNL     1     -11.519  14.376  65.770  1.00  0.00     0.000 HD 
BRANCH  18  20
HETATM   20  C   UNL     1     -11.065  14.296  67.799  1.00  0.00    -0.280 C  
HETATM   21  O   UNL     1     -10.108  14.921  68.236  1.00  0.00    -0.215 OA 
BRANCH  20  22
HETATM   22  N   UNL     1     -12.196  14.022  68.532  1.00  0.00    -0.537 N  
HETATM   23  H   UNL     1     -13.132  14.172  68.155  1.00  0.00     0.000 HD 
BRANCH  22  24
HETATM   24  C   UNL     1     -11.983  13.512  69.859  1.00  0.00    -0.348 C  
HETATM   25  N   UNL     1     -12.797  14.083  70.904  1.00  0.00    -0.332 N  
HETATM   26  O   UNL     1     -12.313  11.117  69.253  1.00  0.00    -0.381 OA 
HETATM   27  C   UNL     1     -13.151  13.130  71.838  1.00  0.00    -0.385 C  
HETATM   28  N   UNL     1     -12.861  11.905  71.332  1.00  0.00    -0.364 NA 
HETATM   29  O   UNL     1     -13.679  13.332  72.918  1.00  0.00    -0.580 OA 
HETATM   30  C   UNL     1     -12.392  12.032  70.058  1.00  0.00    -0.108 C  
BRANCH  25  31
HETATM   31  C   UNL     1     -12.959  15.488  71.102  1.00  0.00    -0.496 C  
HETATM   32  H   UNL     1     -11.901  16.928  71.840  1.00  0.00     0.000 HD 
HETATM   33  O   UNL     1     -11.794  15.993  71.708  1.00  0.00    -0.446 OA 
ENDBRANCH  25  31
ENDBRANCH  22  24
ENDBRANCH  20  22
ENDBRANCH  18  20
ENDBRANCH  17  18
ENDBRANCH  15  17
ENDBRANCH  13  15
ENDBRANCH  11  13
ENDBRANCH   5  11
ENDBRANCH   2   4
TORSDOF 10
ENDMDL
MODEL      181
REMARK 921   NORMALIZED FREE ENERGY PREDICTED BY IDOCK:   -4.94 KCAL/MOL
REMARK 922        TOTAL FREE ENERGY PREDICTED BY IDOCK:   -9.82 KCAL/MOL
REMARK 923 INTER-LIGAND FREE ENERGY PREDICTED BY IDOCK:   -8.53 KCAL/MOL
REMARK 924 INTRA-LIGAND FREE ENERGY PREDICTED BY IDOCK:   -1.29 KCAL/MOL
REMARK 927      BINDING AFFINITY PREDICTED BY RF-SCORE:    0.00 PKD
ROOT
HETATM    1  O   UNL     1     -10.607   6.978  73.990  1.00  0.00    -0.443 OA 
HETATM    2  C   UNL     1      -9.885   7.879  73.186  1.00  0.00    -0.290 C  
HETATM    3  H   UNL     1     -10.748   7.370  74.844  1.00  0.00     0.000 HD 
ENDROOT
BRANCH   2   4
HETATM    4  N   UNL     1      -9.673   7.288  71.899  1.00  0.00    -0.156 N  
HETATM    5  C   UNL     1     -10.458   7.713  70.758  1.00  0.00    -0.210 C  
HETATM    6  O   UNL     1      -8.903   5.258  72.731  1.00  0.00    -0.122 OA 
HETATM    7  C   UNL     1     -10.688   6.342  70.083  1.00  0.00    -0.286 C  
HETATM    8  N   UNL     1      -9.869   5.434  70.678  1.00  0.00    -0.179 NA 
HETATM    9  O   UNL     1     -11.410   6.088  69.130  1.00  0.00    -0.364 OA 
HETATM   10  C   UNL     1      -9.395   5.934  71.841  1.00  0.00    -0.151 C  
BRANCH   5  11
HETATM   11  N   UNL     1      -9.688   8.564  69.884  1.00  0.00    -0.177 N  
HETATM   12  H   UNL     1      -8.718   8.328  69.680  1.00  0.00     0.000 HD 
BRANCH  11  13
HETATM   13  C   UNL     1     -10.242   9.680  69.326  1.00  0.00    -0.205 C  
HETATM   14  O   UNL     1     -10.289   9.884  68.120  1.00  0.00    -0.174 OA 
BRANCH  13  15
HETATM   15  N   UNL     1     -10.809  10.504  70.261  1.00  0.00    -0.446 N  
HETATM   16  H   UNL     1     -10.580  10.389  71.248  1.00  0.00     0.000 HD 
BRANCH  15  17
HETATM   17  C   UNL     1     -11.725  11.527  69.851  1.00  0.00    -0.343 C  
BRANCH  17  18
HETATM   18  N   UNL     1     -11.057  12.630  69.212  1.00  0.00    -0.421 N  
HETATM   19  H   UNL     1     -10.155  12.958  69.560  1.00  0.00     0.000 HD 
BRANCH  18  20
HETATM   20  C   UNL     1     -11.641  13.236  68.131  1.00  0.00    -0.338 C  
HETATM   21  O   UNL     1     -12.373  14.214  68.212  1.00  0.00    -0.246 OA 
BRANCH  20  22
HETATM   22  N   UNL     1     -11.303  12.633  66.943  1.00  0.00    -0.301 N  
HETATM   23  H   UNL     1     -11.476  11.642  66.774  1.00  0.00     0.000 HD 
BRANCH  22  24
HETATM   24  C   UNL     1     -10.694  13.478  65.952  1.00  0.00    -0.277 C  
HETATM   25  N   UNL     1     -11.531  14.505  65.383  1.00  0.00    -0.340 N  
HETATM   26  O   UNL     1      -8.758  14.154  67.369  1.00  0.00    -0.186 OA 
HETATM   27  C   UNL     1     -10.813  15.658  65.142  1.00  0.00    -0.431 C  
HETATM   28  N   UNL     1      -9.618  15.560  65.777  1.00  0.00    -0.344 NA 
HETATM   29  O   UNL     1     -11.189  16.631  64.512  1.00  0.00    -0.909 OA 
HETATM   30  C   UNL     1      -9.568  14.396  66.487  1.00  0.00    -0.293 C  
BRANCH  25  31
HETATM   31  C   UNL     1     -12.840  14.262  64.864  1.00  0.00    -0.104 C  
HETATM   32  H   UNL     1     -13.598  13.769  63.155  1.00  0.00     0.000 HD 
HETATM   33  O   UNL     1     -12.728  13.930  63.501  1.00  0.00    -0.797 OA 
ENDBRANCH  25  31
ENDBRANCH  22  24
ENDBRANCH  20  22
ENDBRANCH  18  20
ENDBRANCH  17  18
ENDBRANCH  15  17
ENDBRANCH  13  15
ENDBRANCH  11  13
ENDBRANCH   5  11
ENDBRANCH   2   4
TORSDOF 10
ENDMDL
MODEL      182
REMARK 921   NORMALIZED FREE ENERGY PREDICTED BY IDOCK:   -4.94 KCAL/MOL
REMARK 922        TOTAL FREE ENERGY PREDICTED BY IDOCK:   -9.82 KCAL/MOL
REMARK 923 INTER-LIGAND FREE ENERGY PREDICTED BY IDOCK:   -8.25 KCAL/MOL
REMARK 924 INTRA-LIGAND FREE ENERGY PREDICTED BY IDOCK:   -1.57 KCAL/MOL
REMARK 927      BINDING AFFINITY PREDICTED BY RF-SCORE:    0.00 PKD
ROOT
HETATM    1  O   UNL     1      -9.560   4.071  68.904  1.00  0.00    -0.170 OA 
HETATM    2  C   UNL     1      -8.500   4.701  68.226  1.00  0.00    -0.097 C  
HETATM    3  H   UNL     1      -9.292   3.890  69.796  1.00  0.00     0.000 HD 
ENDROOT
BRANCH   2   4
HETATM    4  N   UNL     1      -8.906   4.975  66.879  1.00  0.00    -0.107 N  
HETATM    5  C   UNL     1     -10.204   4.545  66.402  1.00  0.00    -0.217 C  
HETATM    6  O   UNL     1      -6.746   5.023  66.022  1.00  0.00    -0.050 OA 
HETATM    7  C   UNL     1      -9.812   4.085  64.979  1.00  0.00    -0.202 C  
HETATM    8  N   UNL     1      -8.547   4.517  64.728  1.00  0.00    -0.131 NA 
HETATM    9  O   UNL     1     -10.509   3.502  64.162  1.00  0.00    -0.229 OA 
HETATM   10  C   UNL     1      -7.951   4.892  65.881  1.00  0.00    -0.107 C  
BRANCH   5  11
HETATM   11  N   UNL     1     -11.123   5.653  66.320  1.00  0.00    -0.772 N  
HETATM   12  H   UNL     1     -11.757   5.722  65.525  1.00  0.00     0.000 HD 
BRANCH  11  13
HETATM   13  C   UNL     1     -11.155   6.610  67.292  1.00  0.00    -0.345 C  
HETATM   14  O   UNL     1     -11.245   6.363  68.487  1.00  0.00    -0.328 OA 
BRANCH  13  15
HETATM   15  N   UNL     1     -10.994   7.873  66.786  1.00  0.00    -0.333 N  
HETATM   16  H   UNL     1     -11.802   8.390  66.439  1.00  0.00     0.000 HD 
BRANCH  15  17
HETATM   17  C   UNL     1      -9.690   8.466  66.744  1.00  0.00    -0.242 C  
BRANCH  17  18
HETATM   18  N   UNL     1      -9.636   9.711  67.465  1.00  0.00    -0.147 N  
HETATM   19  H   UNL     1      -8.806   9.958  68.004  1.00  0.00     0.000 HD 
BRANCH  18  20
HETATM   20  C   UNL     1     -10.709  10.562  67.420  1.00  0.00    -0.281 C  
HETATM   21  O   UNL     1     -11.756  10.372  68.024  1.00  0.00    -0.383 OA 
BRANCH  20  22
HETATM   22  N   UNL     1     -10.474  11.663  66.630  1.00  0.00    -0.225 N  
HETATM   23  H   UNL     1      -9.619  12.214  66.713  1.00  0.00     0.000 HD 
BRANCH  22  24
HETATM   24  C   UNL     1     -11.502  11.994  65.681  1.00  0.00    -0.316 C  
HETATM   25  N   UNL     1     -11.840  13.391  65.563  1.00  0.00    -0.345 N  
HETATM   26  O   UNL     1     -10.422  10.851  63.747  1.00  0.00    -0.353 OA 
HETATM   27  C   UNL     1     -12.132  13.725  64.256  1.00  0.00    -0.440 C  
HETATM   28  N   UNL     1     -11.735  12.706  63.453  1.00  0.00    -0.513 NA 
HETATM   29  O   UNL     1     -12.619  14.772  63.864  1.00  0.00    -0.834 OA 
HETATM   30  C   UNL     1     -11.124  11.742  64.201  1.00  0.00    -0.374 C  
BRANCH  25  31
HETATM   31  C   UNL     1     -12.126  14.233  66.680  1.00  0.00    -0.420 C  
HETATM   32  H   UNL     1     -11.143  14.940  68.188  1.00  0.00     0.000 HD 
HETATM   33  O   UNL     1     -10.953  14.380  67.444  1.00  0.00    -0.286 OA 
ENDBRANCH  25  31
ENDBRANCH  22  24
ENDBRANCH  20  22
ENDBRANCH  18  20
ENDBRANCH  17  18
ENDBRANCH  15  17
ENDBRANCH  13  15
ENDBRANCH  11  13
ENDBRANCH   5  11
ENDBRANCH   2   4
TORSDOF 10
ENDMDL
MODEL      183
REMARK 921   NORMALIZED FREE ENERGY PREDICTED BY IDOCK:   -4.92 KCAL/MOL
REMARK 922        TOTAL FREE ENERGY PREDICTED BY IDOCK:   -9.80 KCAL/MOL
REMARK 923 INTER-LIGAND FREE ENERGY PREDICTED BY IDOCK:   -7.77 KCAL/MOL
REMARK 924 INTRA-LIGAND FREE ENERGY PREDICTED BY IDOCK:   -2.02 KCAL/MOL
REMARK 927      BINDING AFFINITY PREDICTED BY RF-SCORE:    0.00 PKD
ROOT
HETATM    1  O   UNL     1     -10.789  14.833  70.736  1.00  0.00    -0.511 OA 
HETATM    2  C   UNL     1     -11.839  14.770  69.801  1.00  0.00    -0.316 C  
HETATM    3  H   UNL     1     -11.076  14.435  71.549  1.00  0.00     0.000 HD 
ENDROOT
BRANCH   2   4
HETATM    4  N   UNL     1     -11.406  15.370  68.574  1.00  0.00    -0.318 N  
HETATM    5  C   UNL     1     -10.927  14.546  67.482  1.00  0.00    -0.293 C  
HETATM    6  O   UNL     1     -10.771  17.385  69.544  1.00  0.00    -0.147 OA 
HETATM    7  C   UNL     1      -9.752  15.424  66.997  1.00  0.00    -0.224 C  
HETATM    8  N   UNL     1      -9.853  16.639  67.601  1.00  0.00    -0.252 NA 
HETATM    9  O   UNL     1      -8.904  15.145  66.163  1.00  0.00    -0.250 OA 
HETATM   10  C   UNL     1     -10.713  16.566  68.641  1.00  0.00    -0.334 C  
BRANCH   5  11
HETATM   11  N   UNL     1     -11.917  14.436  66.439  1.00  0.00    -0.404 N  
HETATM   12  H   UNL     1     -12.585  15.193  66.299  1.00  0.00     0.000 HD 
BRANCH  11  13
HETATM   13  C   UNL     1     -11.972  13.332  65.638  1.00  0.00    -0.412 C  
HETATM   14  O   UNL     1     -12.731  12.392  65.828  1.00  0.00    -0.392 OA 
BRANCH  13  15
HETATM   15  N   UNL     1     -11.140  13.433  64.554  1.00  0.00    -0.363 N  
HETATM   16  H   UNL     1     -10.283  13.982  64.618  1.00  0.00     0.000 HD 
BRANCH  15  17
HETATM   17  C   UNL     1     -11.476  12.768  63.331  1.00  0.00    -0.394 C  
BRANCH  17  18
HETATM   18  N   UNL     1     -11.176  11.361  63.377  1.00  0.00    -0.791 N  
HETATM   19  H   UNL     1     -11.914  10.683  63.569  1.00  0.00     0.000 HD 
BRANCH  18  20
HETATM   20  C   UNL     1      -9.890  10.939  63.161  1.00  0.00    -0.351 C  
HETATM   21  O   UNL     1      -9.022  11.634  62.651  1.00  0.00    -0.307 OA 
BRANCH  20  22
HETATM   22  N   UNL     1      -9.680   9.650  63.592  1.00  0.00    -0.409 N  
HETATM   23  H   UNL     1     -10.302   8.886  63.331  1.00  0.00     0.000 HD 
BRANCH  22  24
HETATM   24  C   UNL     1      -8.532   9.442  64.433  1.00  0.00    -0.184 C  
HETATM   25  N   UNL     1      -8.755   8.701  65.650  1.00  0.00    -0.173 N  
HETATM   26  O   UNL     1      -7.109   8.430  62.654  1.00  0.00    -0.090 OA 
HETATM   27  C   UNL     1      -7.679   7.889  65.944  1.00  0.00    -0.093 C  
HETATM   28  N   UNL     1      -6.876   7.828  64.852  1.00  0.00    -0.050 NA 
HETATM   29  O   UNL     1      -7.490   7.280  66.984  1.00  0.00    -0.099 OA 
HETATM   30  C   UNL     1      -7.441   8.527  63.826  1.00  0.00    -0.118 C  
BRANCH  25  31
HETATM   31  C   UNL     1      -9.805   8.994  66.574  1.00  0.00    -0.268 C  
HETATM   32  H   UNL     1     -11.028  10.459  66.884  1.00  0.00     0.000 HD 
HETATM   33  O   UNL     1     -10.330  10.264  66.270  1.00  0.00    -0.230 OA 
ENDBRANCH  25  31
ENDBRANCH  22  24
ENDBRANCH  20  22
ENDBRANCH  18  20
ENDBRANCH  17  18
ENDBRANCH  15  17
ENDBRANCH  13  15
ENDBRANCH  11  13
ENDBRANCH   5  11
ENDBRANCH   2   4
TORSDOF 10
ENDMDL
MODEL      184
REMARK 921   NORMALIZED FREE ENERGY PREDICTED BY IDOCK:   -4.92 KCAL/MOL
REMARK 922        TOTAL FREE ENERGY PREDICTED BY IDOCK:   -9.79 KCAL/MOL
REMARK 923 INTER-LIGAND FREE ENERGY PREDICTED BY IDOCK:   -8.08 KCAL/MOL
REMARK 924 INTRA-LIGAND FREE ENERGY PREDICTED BY IDOCK:   -1.71 KCAL/MOL
REMARK 927      BINDING AFFINITY PREDICTED BY RF-SCORE:    0.00 PKD
ROOT
HETATM    1  O   UNL     1     -10.601  17.876  69.140  1.00  0.00    -0.408 OA 
HETATM    2  C   UNL     1      -9.635  18.745  68.600  1.00  0.00    -0.387 C  
HETATM    3  H   UNL     1     -10.974  18.274  69.918  1.00  0.00     0.000 HD 
ENDROOT
BRANCH   2   4
HETATM    4  N   UNL     1      -9.072  18.145  67.428  1.00  0.00    -0.252 N  
HETATM    5  C   UNL     1      -8.063  17.112  67.544  1.00  0.00    -0.184 C  
HETATM    6  O   UNL     1      -9.413  19.998  66.066  1.00  0.00    -0.396 OA 
HETATM    7  C   UNL     1      -7.134  17.534  66.383  1.00  0.00    -0.286 C  
HETATM    8  N   UNL     1      -7.782  18.471  65.640  1.00  0.00    -0.483 NA 
HETATM    9  O   UNL     1      -6.036  17.078  66.100  1.00  0.00    -0.267 OA 
HETATM   10  C   UNL     1      -8.840  18.953  66.329  1.00  0.00    -0.252 C  
BRANCH   5  11
HETATM   11  N   UNL     1      -8.617  15.809  67.275  1.00  0.00    -0.177 N  
HETATM   12  H   UNL     1      -9.533  15.733  66.833  1.00  0.00     0.000 HD 
BRANCH  11  13
HETATM   13  C   UNL     1      -7.934  14.674  67.605  1.00  0.00    -0.179 C  
HETATM   14  O   UNL     1      -7.171  14.593  68.558  1.00  0.00    -0.105 OA 
BRANCH  13  15
HETATM   15  N   UNL     1      -8.259  13.616  66.798  1.00  0.00    -0.396 N  
HETATM   16  H   UNL     1      -8.713  13.780  65.900  1.00  0.00     0.000 HD 
BRANCH  15  17
HETATM   17  C   UNL     1      -7.962  12.278  67.218  1.00  0.00    -0.177 C  
BRANCH  17  18
HETATM   18  N   UNL     1      -9.116  11.420  67.155  1.00  0.00    -0.161 N  
HETATM   19  H   UNL     1      -9.435  10.924  67.988  1.00  0.00     0.000 HD 
BRANCH  18  20
HETATM   20  C   UNL     1      -9.782  11.274  65.967  1.00  0.00    -0.220 C  
HETATM   21  O   UNL     1      -9.231  11.256  64.874  1.00  0.00    -0.197 OA 
BRANCH  20  22
HETATM   22  N   UNL     1     -11.139  11.135  66.138  1.00  0.00    -0.156 N  
HETATM   23  H   UNL     1     -11.590  10.220  66.159  1.00  0.00     0.000 HD 
BRANCH  22  24
HETATM   24  C   UNL     1     -11.887  12.354  66.287  1.00  0.00    -0.364 C  
HETATM   25  N   UNL     1     -11.669  13.096  67.504  1.00  0.00    -0.351 N  
HETATM   26  O   UNL     1     -11.157  13.353  64.124  1.00  0.00    -0.378 OA 
HETATM   27  C   UNL     1     -11.706  14.456  67.274  1.00  0.00    -0.404 C  
HETATM   28  N   UNL     1     -11.653  14.666  65.934  1.00  0.00    -0.349 NA 
HETATM   29  O   UNL     1     -11.732  15.336  68.117  1.00  0.00    -0.345 OA 
HETATM   30  C   UNL     1     -11.510  13.474  65.287  1.00  0.00    -0.299 C  
BRANCH  25  31
HETATM   31  C   UNL     1     -11.710  12.510  68.807  1.00  0.00    -0.327 C  
HETATM   32  H   UNL     1     -12.192  10.793  69.554  1.00  0.00     0.000 HD 
HETATM   33  O   UNL     1     -12.164  11.183  68.688  1.00  0.00    -0.582 OA 
ENDBRANCH  25  31
ENDBRANCH  22  24
ENDBRANCH  20  22
ENDBRANCH  18  20
ENDBRANCH  17  18
ENDBRANCH  15  17
ENDBRANCH  13  15
ENDBRANCH  11  13
ENDBRANCH   5  11
ENDBRANCH   2   4
TORSDOF 10
ENDMDL
MODEL      185
REMARK 921   NORMALIZED FREE ENERGY PREDICTED BY IDOCK:   -4.91 KCAL/MOL
REMARK 922        TOTAL FREE ENERGY PREDICTED BY IDOCK:   -9.78 KCAL/MOL
REMARK 923 INTER-LIGAND FREE ENERGY PREDICTED BY IDOCK:   -7.64 KCAL/MOL
REMARK 924 INTRA-LIGAND FREE ENERGY PREDICTED BY IDOCK:   -2.14 KCAL/MOL
REMARK 927      BINDING AFFINITY PREDICTED BY RF-SCORE:    0.00 PKD
ROOT
HETATM    1  O   UNL     1      -7.776  10.847  69.742  1.00  0.00    -0.366 OA 
HETATM    2  C   UNL     1      -8.478   9.688  70.120  1.00  0.00    -0.204 C  
HETATM    3  H   UNL     1      -7.185  11.093  70.443  1.00  0.00     0.000 HD 
ENDROOT
BRANCH   2   4
HETATM    4  N   UNL     1      -9.371   9.318  69.063  1.00  0.00    -0.149 N  
HETATM    5  C   UNL     1     -10.353   8.272  69.263  1.00  0.00    -0.218 C  
HETATM    6  O   UNL     1      -7.930   9.948  67.351  1.00  0.00    -0.105 OA 
HETATM    7  C   UNL     1     -10.261   7.572  67.888  1.00  0.00    -0.194 C  
HETATM    8  N   UNL     1      -9.539   8.368  67.054  1.00  0.00    -0.174 NA 
HETATM    9  O   UNL     1     -10.791   6.526  67.544  1.00  0.00    -0.275 OA 
HETATM   10  C   UNL     1      -8.880   9.306  67.769  1.00  0.00    -0.120 C  
BRANCH   5  11
HETATM   11  N   UNL     1     -11.673   8.823  69.441  1.00  0.00     0.070 N  
HETATM   12  H   UNL     1     -12.315   8.858  68.650  1.00  0.00     0.000 HD 
BRANCH  11  13
HETATM   13  C   UNL     1     -12.076   9.300  70.656  1.00  0.00    -0.100 C  
HETATM   14  O   UNL     1     -11.561   8.975  71.717  1.00  0.00    -0.329 OA 
BRANCH  13  15
HETATM   15  N   UNL     1     -13.064  10.242  70.545  1.00  0.00    -0.554 N  
HETATM   16  H   UNL     1     -13.838  10.095  69.897  1.00  0.00     0.000 HD 
BRANCH  15  17
HETATM   17  C   UNL     1     -13.010  11.432  71.340  1.00  0.00    -0.365 C  
BRANCH  17  18
HETATM   18  N   UNL     1     -11.932  12.301  70.944  1.00  0.00    -0.377 N  
HETATM   19  H   UNL     1     -10.963  12.012  71.076  1.00  0.00     0.000 HD 
BRANCH  18  20
HETATM   20  C   UNL     1     -12.219  13.520  70.388  1.00  0.00    -0.356 C  
HETATM   21  O   UNL     1     -13.133  14.242  70.764  1.00  0.00    -0.343 OA 
BRANCH  20  22
HETATM   22  N   UNL     1     -11.358  13.849  69.368  1.00  0.00    -0.289 N  
HETATM   23  H   UNL     1     -10.399  14.143  69.546  1.00  0.00     0.000 HD 
BRANCH  22  24
HETATM   24  C   UNL     1     -11.889  13.753  68.035  1.00  0.00    -0.373 C  
HETATM   25  N   UNL     1     -11.136  14.413  66.996  1.00  0.00    -0.305 N  
HETATM   26  O   UNL     1     -12.042  11.265  68.012  1.00  0.00    -0.638 OA 
HETATM   27  C   UNL     1     -11.166  13.689  65.821  1.00  0.00    -0.295 C  
HETATM   28  N   UNL     1     -11.653  12.452  66.092  1.00  0.00    -0.380 NA 
HETATM   29  O   UNL     1     -10.780  14.063  64.727  1.00  0.00    -0.394 OA 
HETATM   30  C   UNL     1     -11.875  12.327  67.432  1.00  0.00    -0.257 C  
BRANCH  25  31
HETATM   31  C   UNL     1     -10.681  15.764  67.085  1.00  0.00    -0.312 C  
HETATM   32  H   UNL     1     -11.194  17.352  68.062  1.00  0.00     0.000 HD 
HETATM   33  O   UNL     1     -11.496  16.453  68.003  1.00  0.00    -0.239 OA 
ENDBRANCH  25  31
ENDBRANCH  22  24
ENDBRANCH  20  22
ENDBRANCH  18  20
ENDBRANCH  17  18
ENDBRANCH  15  17
ENDBRANCH  13  15
ENDBRANCH  11  13
ENDBRANCH   5  11
ENDBRANCH   2   4
TORSDOF 10
ENDMDL
MODEL      186
REMARK 921   NORMALIZED FREE ENERGY PREDICTED BY IDOCK:   -4.90 KCAL/MOL
REMARK 922        TOTAL FREE ENERGY PREDICTED BY IDOCK:   -9.77 KCAL/MOL
REMARK 923 INTER-LIGAND FREE ENERGY PREDICTED BY IDOCK:   -7.91 KCAL/MOL
REMARK 924 INTRA-LIGAND FREE ENERGY PREDICTED BY IDOCK:   -1.86 KCAL/MOL
REMARK 927      BINDING AFFINITY PREDICTED BY RF-SCORE:    0.00 PKD
ROOT
HETATM    1  O   UNL     1      -8.650   6.949  72.248  1.00  0.00    -0.119 OA 
HETATM    2  C   UNL     1      -9.309   6.087  71.352  1.00  0.00    -0.146 C  
HETATM    3  H   UNL     1      -8.501   6.489  73.065  1.00  0.00     0.000 HD 
ENDROOT
BRANCH   2   4
HETATM    4  N   UNL     1      -9.534   6.780  70.119  1.00  0.00    -0.159 N  
HETATM    5  C   UNL     1     -10.867   6.863  69.556  1.00  0.00    -0.252 C  
HETATM    6  O   UNL     1      -7.393   6.422  69.289  1.00  0.00    -0.087 OA 
HETATM    7  C   UNL     1     -10.524   6.669  68.062  1.00  0.00    -0.216 C  
HETATM    8  N   UNL     1      -9.175   6.773  67.920  1.00  0.00    -0.114 NA 
HETATM    9  O   UNL     1     -11.300   6.522  67.129  1.00  0.00    -0.333 OA 
HETATM   10  C   UNL     1      -8.576   6.675  69.127  1.00  0.00    -0.130 C  
BRANCH   5  11
HETATM   11  N   UNL     1     -11.438   8.171  69.759  1.00  0.00    -0.432 N  
HETATM   12  H   UNL     1     -12.438   8.311  69.617  1.00  0.00     0.000 HD 
BRANCH  11  13
HETATM   13  C   UNL     1     -10.659   9.225  70.140  1.00  0.00    -0.231 C  
HETATM   14  O   UNL     1     -10.340   9.451  71.299  1.00  0.00    -0.317 OA 
BRANCH  13  15
HETATM   15  N   UNL     1     -10.209   9.954  69.070  1.00  0.00    -0.189 N  
HETATM   16  H   UNL     1      -9.226  10.219  69.012  1.00  0.00     0.000 HD 
BRANCH  15  17
HETATM   17  C   UNL     1     -11.120  10.342  68.035  1.00  0.00    -0.298 C  
BRANCH  17  18
HETATM   18  N   UNL     1     -10.549  11.322  67.149  1.00  0.00    -0.223 N  
HETATM   19  H   UNL     1     -10.567  11.175  66.139  1.00  0.00     0.000 HD 
BRANCH  18  20
HETATM   20  C   UNL     1      -9.983  12.455  67.672  1.00  0.00    -0.200 C  
HETATM   21  O   UNL     1      -8.952  12.459  68.331  1.00  0.00    -0.187 OA 
BRANCH  20  22
HETATM   22  N   UNL     1     -10.695  13.590  67.363  1.00  0.00    -0.261 N  
HETATM   23  H   UNL     1     -11.417  13.958  67.982  1.00  0.00     0.000 HD 
BRANCH  22  24
HETATM   24  C   UNL     1     -10.364  14.228  66.118  1.00  0.00    -0.299 C  
HETATM   25  N   UNL     1     -11.469  14.745  65.349  1.00  0.00    -0.347 N  
HETATM   26  O   UNL     1      -8.725  15.831  67.095  1.00  0.00    -0.182 OA 
HETATM   27  C   UNL     1     -11.129  15.924  64.717  1.00  0.00    -0.384 C  
HETATM   28  N   UNL     1      -9.961  16.372  65.244  1.00  0.00    -0.487 NA 
HETATM   29  O   UNL     1     -11.777  16.506  63.864  1.00  0.00    -1.148 OA 
HETATM   30  C   UNL     1      -9.567  15.548  66.257  1.00  0.00    -0.309 C  
BRANCH  25  31
HETATM   31  C   UNL     1     -12.642  13.990  65.042  1.00  0.00    -0.390 C  
HETATM   32  H   UNL     1     -13.084  12.122  64.811  1.00  0.00     0.000 HD 
HETATM   33  O   UNL     1     -12.304  12.624  65.015  1.00  0.00    -0.467 OA 
ENDBRANCH  25  31
ENDBRANCH  22  24
ENDBRANCH  20  22
ENDBRANCH  18  20
ENDBRANCH  17  18
ENDBRANCH  15  17
ENDBRANCH  13  15
ENDBRANCH  11  13
ENDBRANCH   5  11
ENDBRANCH   2   4
TORSDOF 10
ENDMDL
MODEL      187
REMARK 921   NORMALIZED FREE ENERGY PREDICTED BY IDOCK:   -4.90 KCAL/MOL
REMARK 922        TOTAL FREE ENERGY PREDICTED BY IDOCK:   -9.77 KCAL/MOL
REMARK 923 INTER-LIGAND FREE ENERGY PREDICTED BY IDOCK:   -7.95 KCAL/MOL
REMARK 924 INTRA-LIGAND FREE ENERGY PREDICTED BY IDOCK:   -1.81 KCAL/MOL
REMARK 927      BINDING AFFINITY PREDICTED BY RF-SCORE:    0.00 PKD
ROOT
HETATM    1  O   UNL     1     -11.070  15.751  64.188  1.00  0.00    -0.827 OA 
HETATM    2  C   UNL     1     -10.616  16.224  65.432  1.00  0.00    -0.352 C  
HETATM    3  H   UNL     1     -11.073  16.469  63.566  1.00  0.00     0.000 HD 
ENDROOT
BRANCH   2   4
HETATM    4  N   UNL     1     -10.612  15.142  66.370  1.00  0.00    -0.298 N  
HETATM    5  C   UNL     1     -10.900  13.791  65.932  1.00  0.00    -0.283 C  
HETATM    6  O   UNL     1     -11.174  16.457  68.202  1.00  0.00    -0.346 OA 
HETATM    7  C   UNL     1     -11.760  13.315  67.126  1.00  0.00    -0.376 C  
HETATM    8  N   UNL     1     -11.642  14.232  68.124  1.00  0.00    -0.313 NA 
HETATM    9  O   UNL     1     -12.387  12.272  67.228  1.00  0.00    -0.363 OA 
HETATM   10  C   UNL     1     -11.111  15.376  67.639  1.00  0.00    -0.316 C  
BRANCH   5  11
HETATM   11  N   UNL     1      -9.697  13.001  65.853  1.00  0.00    -0.411 N  
HETATM   12  H   UNL     1      -8.837  13.350  66.274  1.00  0.00     0.000 HD 
BRANCH  11  13
HETATM   13  C   UNL     1      -9.693  11.790  65.222  1.00  0.00    -0.211 C  
HETATM   14  O   UNL     1     -10.312  11.559  64.192  1.00  0.00    -0.276 OA 
BRANCH  13  15
HETATM   15  N   UNL     1      -8.856  10.889  65.826  1.00  0.00    -0.188 N  
HETATM   16  H   UNL     1      -7.899  11.157  66.056  1.00  0.00     0.000 HD 
BRANCH  15  17
HETATM   17  C   UNL     1      -9.327   9.572  66.135  1.00  0.00    -0.198 C  
BRANCH  17  18
HETATM   18  N   UNL     1      -9.126   9.233  67.519  1.00  0.00    -0.121 N  
HETATM   19  H   UNL     1      -8.505   8.466  67.777  1.00  0.00     0.000 HD 
BRANCH  18  20
HETATM   20  C   UNL     1      -9.777   9.951  68.489  1.00  0.00    -0.154 C  
HETATM   21  O   UNL     1      -9.539  11.123  68.744  1.00  0.00    -0.192 OA 
BRANCH  20  22
HETATM   22  N   UNL     1     -10.738   9.210  69.135  1.00  0.00    -0.334 N  
HETATM   23  H   UNL     1     -11.687   9.558  69.269  1.00  0.00     0.000 HD 
BRANCH  22  24
HETATM   24  C   UNL     1     -10.328   7.917  69.612  1.00  0.00    -0.216 C  
HETATM   25  N   UNL     1     -10.779   7.548  70.932  1.00  0.00    -0.232 N  
HETATM   26  O   UNL     1     -11.194   6.649  67.648  1.00  0.00    -0.296 OA 
HETATM   27  C   UNL     1     -11.076   6.201  70.999  1.00  0.00    -0.297 C  
HETATM   28  N   UNL     1     -11.122   5.708  69.736  1.00  0.00    -0.251 NA 
HETATM   29  O   UNL     1     -11.308   5.558  72.008  1.00  0.00    -0.216 OA 
HETATM   30  C   UNL     1     -10.933   6.719  68.840  1.00  0.00    -0.218 C  
BRANCH  25  31
HETATM   31  C   UNL     1     -10.647   8.390  72.078  1.00  0.00    -0.317 C  
HETATM   32  H   UNL     1      -9.257   9.486  72.856  1.00  0.00     0.000 HD 
HETATM   33  O   UNL     1      -9.346   8.926  72.094  1.00  0.00    -0.348 OA 
ENDBRANCH  25  31
ENDBRANCH  22  24
ENDBRANCH  20  22
ENDBRANCH  18  20
ENDBRANCH  17  18
ENDBRANCH  15  17
ENDBRANCH  13  15
ENDBRANCH  11  13
ENDBRANCH   5  11
ENDBRANCH   2   4
TORSDOF 10
ENDMDL
MODEL      188
REMARK 921   NORMALIZED FREE ENERGY PREDICTED BY IDOCK:   -4.90 KCAL/MOL
REMARK 922        TOTAL FREE ENERGY PREDICTED BY IDOCK:   -9.76 KCAL/MOL
REMARK 923 INTER-LIGAND FREE ENERGY PREDICTED BY IDOCK:   -8.41 KCAL/MOL
REMARK 924 INTRA-LIGAND FREE ENERGY PREDICTED BY IDOCK:   -1.35 KCAL/MOL
REMARK 927      BINDING AFFINITY PREDICTED BY RF-SCORE:    0.00 PKD
ROOT
HETATM    1  O   UNL     1     -12.911  14.978  73.975  1.00  0.00    -0.557 OA 
HETATM    2  C   UNL     1     -13.291  15.423  72.695  1.00  0.00    -0.504 C  
HETATM    3  H   UNL     1     -13.406  15.459  74.628  1.00  0.00     0.000 HD 
ENDROOT
BRANCH   2   4
HETATM    4  N   UNL     1     -12.544  14.699  71.710  1.00  0.00    -0.326 N  
HETATM    5  C   UNL     1     -12.196  15.321  70.449  1.00  0.00    -0.363 C  
HETATM    6  O   UNL     1     -13.292  12.605  72.386  1.00  0.00    -0.514 OA 
HETATM    7  C   UNL     1     -12.424  14.121  69.502  1.00  0.00    -0.123 C  
HETATM    8  N   UNL     1     -12.578  13.004  70.264  1.00  0.00    -0.111 NA 
HETATM    9  O   UNL     1     -12.402  14.117  68.281  1.00  0.00    -0.246 OA 
HETATM   10  C   UNL     1     -12.813  13.352  71.548  1.00  0.00    -0.337 C  
BRANCH   5  11
HETATM   11  N   UNL     1     -10.806  15.705  70.423  1.00  0.00    -0.328 N  
HETATM   12  H   UNL     1     -10.198  15.444  71.198  1.00  0.00     0.000 HD 
BRANCH  11  13
HETATM   13  C   UNL     1     -10.294  16.414  69.375  1.00  0.00    -0.290 C  
HETATM   14  O   UNL     1     -10.912  17.283  68.776  1.00  0.00    -0.232 OA 
BRANCH  13  15
HETATM   15  N   UNL     1      -8.984  16.099  69.123  1.00  0.00    -0.249 N  
HETATM   16  H   UNL     1      -8.337  15.950  69.897  1.00  0.00     0.000 HD 
BRANCH  15  17
HETATM   17  C   UNL     1      -8.525  15.979  67.771  1.00  0.00    -0.161 C  
BRANCH  17  18
HETATM   18  N   UNL     1      -9.496  15.339  66.922  1.00  0.00    -0.224 N  
HETATM   19  H   UNL     1     -10.246  15.883  66.496  1.00  0.00     0.000 HD 
BRANCH  18  20
HETATM   20  C   UNL     1      -9.404  13.991  66.691  1.00  0.00    -0.277 C  
HETATM   21  O   UNL     1      -9.521  13.141  67.563  1.00  0.00    -0.199 OA 
BRANCH  20  22
HETATM   22  N   UNL     1      -9.177  13.699  65.366  1.00  0.00    -0.089 N  
HETATM   23  H   UNL     1      -8.237  13.552  65.000  1.00  0.00     0.000 HD 
BRANCH  22  24
HETATM   24  C   UNL     1     -10.342  13.612  64.528  1.00  0.00    -0.330 C  
HETATM   25  N   UNL     1     -11.295  12.582  64.860  1.00  0.00    -0.301 N  
HETATM   26  O   UNL     1     -11.010  15.998  64.792  1.00  0.00    -0.551 OA 
HETATM   27  C   UNL     1     -12.589  13.011  64.643  1.00  0.00    -0.362 C  
HETATM   28  N   UNL     1     -12.570  14.355  64.458  1.00  0.00    -0.673 NA 
HETATM   29  O   UNL     1     -13.596  12.323  64.660  1.00  0.00    -0.442 OA 
HETATM   30  C   UNL     1     -11.300  14.824  64.620  1.00  0.00    -0.366 C  
BRANCH  25  31
HETATM   31  C   UNL     1     -10.939  11.218  65.090  1.00  0.00    -0.146 C  
HETATM   32  H   UNL     1     -10.940  10.007  66.598  1.00  0.00     0.000 HD 
HETATM   33  O   UNL     1     -11.177  10.914  66.444  1.00  0.00    -0.111 OA 
ENDBRANCH  25  31
ENDBRANCH  22  24
ENDBRANCH  20  22
ENDBRANCH  18  20
ENDBRANCH  17  18
ENDBRANCH  15  17
ENDBRANCH  13  15
ENDBRANCH  11  13
ENDBRANCH   5  11
ENDBRANCH   2   4
TORSDOF 10
ENDMDL
MODEL      189
REMARK 921   NORMALIZED FREE ENERGY PREDICTED BY IDOCK:   -4.90 KCAL/MOL
REMARK 922        TOTAL FREE ENERGY PREDICTED BY IDOCK:   -9.75 KCAL/MOL
REMARK 923 INTER-LIGAND FREE ENERGY PREDICTED BY IDOCK:   -8.79 KCAL/MOL
REMARK 924 INTRA-LIGAND FREE ENERGY PREDICTED BY IDOCK:   -0.97 KCAL/MOL
REMARK 927      BINDING AFFINITY PREDICTED BY RF-SCORE:    0.00 PKD
ROOT
HETATM    1  O   UNL     1     -11.811   8.017  73.144  1.00  0.00    -0.625 OA 
HETATM    2  C   UNL     1     -10.671   7.335  72.680  1.00  0.00    -0.278 C  
HETATM    3  H   UNL     1     -12.068   7.654  73.983  1.00  0.00     0.000 HD 
ENDROOT
BRANCH   2   4
HETATM    4  N   UNL     1     -10.283   7.883  71.414  1.00  0.00    -0.189 N  
HETATM    5  C   UNL     1     -11.258   8.044  70.354  1.00  0.00    -0.229 C  
HETATM    6  O   UNL     1      -8.073   7.176  71.555  1.00  0.00    -0.102 OA 
HETATM    7  C   UNL     1     -10.391   7.618  69.147  1.00  0.00    -0.213 C  
HETATM    8  N   UNL     1      -9.096   7.548  69.558  1.00  0.00    -0.143 NA 
HETATM    9  O   UNL     1     -10.752   7.441  67.993  1.00  0.00    -0.194 OA 
HETATM   10  C   UNL     1      -9.042   7.540  70.908  1.00  0.00    -0.153 C  
BRANCH   5  11
HETATM   11  N   UNL     1     -11.649   9.424  70.211  1.00  0.00    -0.420 N  
HETATM   12  H   UNL     1     -12.432   9.784  70.757  1.00  0.00     0.000 HD 
BRANCH  11  13
HETATM   13  C   UNL     1     -10.987  10.256  69.355  1.00  0.00    -0.247 C  
HETATM   14  O   UNL     1      -9.893  10.748  69.597  1.00  0.00    -0.105 OA 
BRANCH  13  15
HETATM   15  N   UNL     1     -11.646  10.411  68.164  1.00  0.00    -0.479 N  
HETATM   16  H   UNL     1     -12.499   9.883  67.980  1.00  0.00     0.000 HD 
BRANCH  15  17
HETATM   17  C   UNL     1     -11.135  11.315  67.177  1.00  0.00    -0.301 C  
BRANCH  17  18
HETATM   18  N   UNL     1     -12.002  12.447  66.976  1.00  0.00    -0.284 N  
HETATM   19  H   UNL     1     -12.568  12.804  67.746  1.00  0.00     0.000 HD 
BRANCH  18  20
HETATM   20  C   UNL     1     -12.060  13.040  65.743  1.00  0.00    -0.454 C  
HETATM   21  O   UNL     1     -12.980  12.878  64.952  1.00  0.00    -0.754 OA 
BRANCH  20  22
HETATM   22  N   UNL     1     -10.976  13.848  65.496  1.00  0.00    -0.295 N  
HETATM   23  H   UNL     1     -10.185  13.533  64.934  1.00  0.00     0.000 HD 
BRANCH  22  24
HETATM   24  C   UNL     1     -11.020  15.163  66.075  1.00  0.00    -0.332 C  
HETATM   25  N   UNL     1      -9.908  15.532  66.915  1.00  0.00    -0.233 N  
HETATM   26  O   UNL     1     -11.346  16.368  63.917  1.00  0.00    -0.967 OA 
HETATM   27  C   UNL     1      -9.586  16.865  66.763  1.00  0.00    -0.262 C  
HETATM   28  N   UNL     1     -10.230  17.339  65.666  1.00  0.00    -0.613 NA 
HETATM   29  O   UNL     1      -8.819  17.512  67.455  1.00  0.00    -0.225 OA 
HETATM   30  C   UNL     1     -10.909  16.325  65.057  1.00  0.00    -0.320 C  
BRANCH  25  31
HETATM   31  C   UNL     1      -9.409  14.711  67.973  1.00  0.00    -0.198 C  
HETATM   32  H   UNL     1      -7.986  13.420  68.191  1.00  0.00     0.000 HD 
HETATM   33  O   UNL     1      -8.318  13.967  67.488  1.00  0.00    -0.170 OA 
ENDBRANCH  25  31
ENDBRANCH  22  24
ENDBRANCH  20  22
ENDBRANCH  18  20
ENDBRANCH  17  18
ENDBRANCH  15  17
ENDBRANCH  13  15
ENDBRANCH  11  13
ENDBRANCH   5  11
ENDBRANCH   2   4
TORSDOF 10
ENDMDL
MODEL      190
REMARK 921   NORMALIZED FREE ENERGY PREDICTED BY IDOCK:   -4.89 KCAL/MOL
REMARK 922        TOTAL FREE ENERGY PREDICTED BY IDOCK:   -9.75 KCAL/MOL
REMARK 923 INTER-LIGAND FREE ENERGY PREDICTED BY IDOCK:   -7.87 KCAL/MOL
REMARK 924 INTRA-LIGAND FREE ENERGY PREDICTED BY IDOCK:   -1.87 KCAL/MOL
REMARK 927      BINDING AFFINITY PREDICTED BY RF-SCORE:    0.00 PKD
ROOT
HETATM    1  O   UNL     1      -9.960   6.991  74.486  1.00  0.00    -0.469 OA 
HETATM    2  C   UNL     1      -9.245   7.873  73.654  1.00  0.00    -0.255 C  
HETATM    3  H   UNL     1      -9.888   7.289  75.385  1.00  0.00     0.000 HD 
ENDROOT
BRANCH   2   4
HETATM    4  N   UNL     1      -9.353   7.424  72.298  1.00  0.00    -0.140 N  
HETATM    5  C   UNL     1     -10.273   8.068  71.383  1.00  0.00    -0.196 C  
HETATM    6  O   UNL     1      -8.713   5.237  72.756  1.00  0.00    -0.119 OA 
HETATM    7  C   UNL     1     -10.800   6.822  70.634  1.00  0.00    -0.250 C  
HETATM    8  N   UNL     1     -10.010   5.765  70.963  1.00  0.00    -0.184 NA 
HETATM    9  O   UNL     1     -11.712   6.767  69.823  1.00  0.00    -0.270 OA 
HETATM   10  C   UNL     1      -9.269   6.065  72.052  1.00  0.00    -0.146 C  
BRANCH   5  11
HETATM   11  N   UNL     1      -9.575   8.930  70.462  1.00  0.00    -0.187 N  
HETATM   12  H   UNL     1      -8.556   8.915  70.434  1.00  0.00     0.000 HD 
BRANCH  11  13
HETATM   13  C   UNL     1     -10.259   9.767  69.629  1.00  0.00    -0.233 C  
HETATM   14  O   UNL     1     -10.146   9.754  68.410  1.00  0.00    -0.155 OA 
BRANCH  13  15
HETATM   15  N   UNL     1     -11.143  10.567  70.303  1.00  0.00    -0.381 N  
HETATM   16  H   UNL     1     -11.175  10.546  71.322  1.00  0.00     0.000 HD 
BRANCH  15  17
HETATM   17  C   UNL     1     -12.024  11.432  69.576  1.00  0.00    -0.341 C  
BRANCH  17  18
HETATM   18  N   UNL     1     -11.439  12.724  69.333  1.00  0.00    -0.373 N  
HETATM   19  H   UNL     1     -11.063  13.273  70.107  1.00  0.00     0.000 HD 
BRANCH  18  20
HETATM   20  C   UNL     1     -11.391  13.212  68.053  1.00  0.00    -0.292 C  
HETATM   21  O   UNL     1     -11.324  14.403  67.780  1.00  0.00    -0.283 OA 
BRANCH  20  22
HETATM   22  N   UNL     1     -11.412  12.213  67.108  1.00  0.00    -0.335 N  
HETATM   23  H   UNL     1     -11.690  11.259  67.339  1.00  0.00     0.000 HD 
BRANCH  22  24
HETATM   24  C   UNL     1     -11.020  12.590  65.778  1.00  0.00    -0.292 C  
HETATM   25  N   UNL     1     -10.117  11.695  65.097  1.00  0.00    -0.252 N  
HETATM   26  O   UNL     1     -13.341  12.848  64.905  1.00  0.00    -0.716 OA 
HETATM   27  C   UNL     1     -10.408  11.621  63.750  1.00  0.00    -0.398 C  
HETATM   28  N   UNL     1     -11.622  12.190  63.541  1.00  0.00    -0.464 NA 
HETATM   29  O   UNL     1      -9.726  11.095  62.887  1.00  0.00    -0.324 OA 
HETATM   30  C   UNL     1     -12.163  12.570  64.734  1.00  0.00    -0.465 C  
BRANCH  25  31
HETATM   31  C   UNL     1      -8.911  11.194  65.678  1.00  0.00    -0.184 C  
HETATM   32  H   UNL     1      -7.645  11.795  67.009  1.00  0.00     0.000 HD 
HETATM   33  O   UNL     1      -8.447  12.128  66.623  1.00  0.00    -0.169 OA 
ENDBRANCH  25  31
ENDBRANCH  22  24
ENDBRANCH  20  22
ENDBRANCH  18  20
ENDBRANCH  17  18
ENDBRANCH  15  17
ENDBRANCH  13  15
ENDBRANCH  11  13
ENDBRANCH   5  11
ENDBRANCH   2   4
TORSDOF 10
ENDMDL
MODEL      191
REMARK 921   NORMALIZED FREE ENERGY PREDICTED BY IDOCK:   -4.87 KCAL/MOL
REMARK 922        TOTAL FREE ENERGY PREDICTED BY IDOCK:   -9.71 KCAL/MOL
REMARK 923 INTER-LIGAND FREE ENERGY PREDICTED BY IDOCK:   -7.85 KCAL/MOL
REMARK 924 INTRA-LIGAND FREE ENERGY PREDICTED BY IDOCK:   -1.86 KCAL/MOL
REMARK 927      BINDING AFFINITY PREDICTED BY RF-SCORE:    0.00 PKD
ROOT
HETATM    1  O   UNL     1     -10.085   9.176  67.163  1.00  0.00    -0.199 OA 
HETATM    2  C   UNL     1      -9.700   7.824  67.212  1.00  0.00    -0.171 C  
HETATM    3  H   UNL     1      -9.580   9.617  66.490  1.00  0.00     0.000 HD 
ENDROOT
BRANCH   2   4
HETATM    4  N   UNL     1     -10.461   7.159  68.227  1.00  0.00    -0.195 N  
HETATM    5  C   UNL     1     -10.429   7.632  69.597  1.00  0.00    -0.235 C  
HETATM    6  O   UNL     1     -10.434   5.085  67.178  1.00  0.00    -0.194 OA 
HETATM    7  C   UNL     1     -10.403   6.273  70.334  1.00  0.00    -0.208 C  
HETATM    8  N   UNL     1     -10.681   5.296  69.429  1.00  0.00    -0.164 NA 
HETATM    9  O   UNL     1     -10.242   6.073  71.528  1.00  0.00    -0.195 OA 
HETATM   10  C   UNL     1     -10.555   5.780  68.174  1.00  0.00    -0.216 C  
BRANCH   5  11
HETATM   11  N   UNL     1     -11.637   8.345  69.931  1.00  0.00    -0.416 N  
HETATM   12  H   UNL     1     -12.522   7.841  69.974  1.00  0.00     0.000 HD 
BRANCH  11  13
HETATM   13  C   UNL     1     -11.612   9.685  70.189  1.00  0.00    -0.141 C  
HETATM   14  O   UNL     1     -11.235  10.165  71.250  1.00  0.00    -0.290 OA 
BRANCH  13  15
HETATM   15  N   UNL     1     -11.980  10.433  69.102  1.00  0.00    -0.534 N  
HETATM   16  H   UNL     1     -12.311   9.973  68.255  1.00  0.00     0.000 HD 
BRANCH  15  17
HETATM   17  C   UNL     1     -11.897  11.862  69.157  1.00  0.00    -0.311 C  
BRANCH  17  18
HETATM   18  N   UNL     1     -10.536  12.329  69.139  1.00  0.00    -0.429 N  
HETATM   19  H   UNL     1     -10.027  12.466  70.013  1.00  0.00     0.000 HD 
BRANCH  18  20
HETATM   20  C   UNL     1      -9.928  12.588  67.939  1.00  0.00    -0.212 C  
HETATM   21  O   UNL     1      -8.838  13.133  67.831  1.00  0.00    -0.176 OA 
BRANCH  20  22
HETATM   22  N   UNL     1     -10.674  12.155  66.868  1.00  0.00    -0.229 N  
HETATM   23  H   UNL     1     -11.087  11.223  66.840  1.00  0.00     0.000 HD 
BRANCH  22  24
HETATM   24  C   UNL     1     -10.837  13.092  65.789  1.00  0.00    -0.272 C  
HETATM   25  N   UNL     1     -11.319  12.554  64.541  1.00  0.00    -0.314 N  
HETATM   26  O   UNL     1     -12.288  14.672  67.058  1.00  0.00    -0.225 OA 
HETATM   27  C   UNL     1     -12.167  13.442  63.909  1.00  0.00    -0.415 C  
HETATM   28  N   UNL     1     -12.502  14.417  64.791  1.00  0.00    -0.594 NA 
HETATM   29  O   UNL     1     -12.592  13.356  62.770  1.00  0.00    -0.403 OA 
HETATM   30  C   UNL     1     -11.949  14.147  66.008  1.00  0.00    -0.413 C  
BRANCH  25  31
HETATM   31  C   UNL     1     -10.763  11.400  63.908  1.00  0.00    -0.397 C  
HETATM   32  H   UNL     1      -9.775   9.836  64.470  1.00  0.00     0.000 HD 
HETATM   33  O   UNL     1     -10.145  10.604  64.890  1.00  0.00    -0.296 OA 
ENDBRANCH  25  31
ENDBRANCH  22  24
ENDBRANCH  20  22
ENDBRANCH  18  20
ENDBRANCH  17  18
ENDBRANCH  15  17
ENDBRANCH  13  15
ENDBRANCH  11  13
ENDBRANCH   5  11
ENDBRANCH   2   4
TORSDOF 10
ENDMDL
MODEL      192
REMARK 921   NORMALIZED FREE ENERGY PREDICTED BY IDOCK:   -4.87 KCAL/MOL
REMARK 922        TOTAL FREE ENERGY PREDICTED BY IDOCK:   -9.70 KCAL/MOL
REMARK 923 INTER-LIGAND FREE ENERGY PREDICTED BY IDOCK:   -8.56 KCAL/MOL
REMARK 924 INTRA-LIGAND FREE ENERGY PREDICTED BY IDOCK:   -1.14 KCAL/MOL
REMARK 927      BINDING AFFINITY PREDICTED BY RF-SCORE:    0.00 PKD
ROOT
HETATM    1  O   UNL     1     -12.845  14.819  69.869  1.00  0.00    -0.585 OA 
HETATM    2  C   UNL     1     -11.908  15.868  69.923  1.00  0.00    -0.300 C  
HETATM    3  H   UNL     1     -13.270  14.740  70.715  1.00  0.00     0.000 HD 
ENDROOT
BRANCH   2   4
HETATM    4  N   UNL     1     -11.268  15.987  68.648  1.00  0.00    -0.348 N  
HETATM    5  C   UNL     1     -10.834  14.804  67.931  1.00  0.00    -0.269 C  
HETATM    6  O   UNL     1     -10.399  18.104  69.052  1.00  0.00    -0.337 OA 
HETATM    7  C   UNL     1      -9.488  15.324  67.377  1.00  0.00    -0.199 C  
HETATM    8  N   UNL     1      -9.441  16.670  67.570  1.00  0.00    -0.227 NA 
HETATM    9  O   UNL     1      -8.624  14.687  66.792  1.00  0.00    -0.224 OA 
HETATM   10  C   UNL     1     -10.394  17.041  68.452  1.00  0.00    -0.351 C  
BRANCH   5  11
HETATM   11  N   UNL     1     -11.726  14.500  66.839  1.00  0.00    -0.385 N  
HETATM   12  H   UNL     1     -12.069  15.254  66.245  1.00  0.00     0.000 HD 
BRANCH  11  13
HETATM   13  C   UNL     1     -12.117  13.216  66.591  1.00  0.00    -0.346 C  
HETATM   14  O   UNL     1     -12.576  12.841  65.521  1.00  0.00    -0.611 OA 
BRANCH  13  15
HETATM   15  N   UNL     1     -11.863  12.380  67.646  1.00  0.00    -0.347 N  
HETATM   16  H   UNL     1     -12.091  12.673  68.595  1.00  0.00     0.000 HD 
BRANCH  15  17
HETATM   17  C   UNL     1     -11.276  11.094  67.413  1.00  0.00    -0.294 C  
BRANCH  17  18
HETATM   18  N   UNL     1     -11.624  10.144  68.437  1.00  0.00    -0.514 N  
HETATM   19  H   UNL     1     -12.276   9.386  68.236  1.00  0.00     0.000 HD 
BRANCH  18  20
HETATM   20  C   UNL     1     -11.072  10.268  69.685  1.00  0.00    -0.274 C  
HETATM   21  O   UNL     1     -11.601  10.874  70.607  1.00  0.00    -0.328 OA 
BRANCH  20  22
HETATM   22  N   UNL     1      -9.862   9.624  69.792  1.00  0.00    -0.214 N  
HETATM   23  H   UNL     1      -8.977  10.116  69.672  1.00  0.00     0.000 HD 
BRANCH  22  24
HETATM   24  C   UNL     1      -9.916   8.217  70.082  1.00  0.00    -0.187 C  
HETATM   25  N   UNL     1     -10.594   7.838  71.297  1.00  0.00    -0.217 N  
HETATM   26  O   UNL     1     -10.911   7.556  67.894  1.00  0.00    -0.163 OA 
HETATM   27  C   UNL     1     -11.290   6.657  71.133  1.00  0.00    -0.306 C  
HETATM   28  N   UNL     1     -11.349   6.375  69.807  1.00  0.00    -0.416 NA 
HETATM   29  O   UNL     1     -11.812   5.993  72.011  1.00  0.00    -0.303 OA 
HETATM   30  C   UNL     1     -10.769   7.383  69.095  1.00  0.00    -0.166 C  
BRANCH  25  31
HETATM   31  C   UNL     1     -10.336   8.437  72.567  1.00  0.00    -0.301 C  
HETATM   32  H   UNL     1      -8.778   9.048  73.536  1.00  0.00     0.000 HD 
HETATM   33  O   UNL     1      -8.950   8.650  72.690  1.00  0.00    -0.351 OA 
ENDBRANCH  25  31
ENDBRANCH  22  24
ENDBRANCH  20  22
ENDBRANCH  18  20
ENDBRANCH  17  18
ENDBRANCH  15  17
ENDBRANCH  13  15
ENDBRANCH  11  13
ENDBRANCH   5  11
ENDBRANCH   2   4
TORSDOF 10
ENDMDL
MODEL      193
REMARK 921   NORMALIZED FREE ENERGY PREDICTED BY IDOCK:   -4.86 KCAL/MOL
REMARK 922        TOTAL FREE ENERGY PREDICTED BY IDOCK:   -9.69 KCAL/MOL
REMARK 923 INTER-LIGAND FREE ENERGY PREDICTED BY IDOCK:   -7.81 KCAL/MOL
REMARK 924 INTRA-LIGAND FREE ENERGY PREDICTED BY IDOCK:   -1.88 KCAL/MOL
REMARK 927      BINDING AFFINITY PREDICTED BY RF-SCORE:    0.00 PKD
ROOT
HETATM    1  O   UNL     1     -12.073  15.550  68.704  1.00  0.00    -0.556 OA 
HETATM    2  C   UNL     1     -11.255  16.695  68.736  1.00  0.00    -0.217 C  
HETATM    3  H   UNL     1     -12.471  15.431  69.558  1.00  0.00     0.000 HD 
ENDROOT
BRANCH   2   4
HETATM    4  N   UNL     1     -10.654  16.873  67.448  1.00  0.00    -0.320 N  
HETATM    5  C   UNL     1      -9.634  15.956  66.981  1.00  0.00    -0.223 C  
HETATM    6  O   UNL     1     -10.983  19.173  67.387  1.00  0.00    -0.475 OA 
HETATM    7  C   UNL     1      -8.680  16.964  66.300  1.00  0.00    -0.286 C  
HETATM    8  N   UNL     1      -9.321  18.161  66.210  1.00  0.00    -0.457 NA 
HETATM    9  O   UNL     1      -7.569  16.748  65.839  1.00  0.00    -0.184 OA 
HETATM   10  C   UNL     1     -10.403  18.165  67.019  1.00  0.00    -0.380 C  
BRANCH   5  11
HETATM   11  N   UNL     1     -10.164  15.045  65.997  1.00  0.00    -0.282 N  
HETATM   12  H   UNL     1     -10.456  15.401  65.088  1.00  0.00     0.000 HD 
BRANCH  11  13
HETATM   13  C   UNL     1     -10.279  13.712  66.266  1.00  0.00    -0.296 C  
HETATM   14  O   UNL     1     -10.639  12.881  65.443  1.00  0.00    -0.279 OA 
BRANCH  13  15
HETATM   15  N   UNL     1      -9.869  13.399  67.536  1.00  0.00    -0.223 N  
HETATM   16  H   UNL     1      -8.937  13.666  67.851  1.00  0.00     0.000 HD 
BRANCH  15  17
HETATM   17  C   UNL     1     -10.751  12.695  68.419  1.00  0.00    -0.242 C  
BRANCH  17  18
HETATM   18  N   UNL     1     -10.181  11.459  68.886  1.00  0.00    -0.307 N  
HETATM   19  H   UNL     1      -9.611  11.443  69.732  1.00  0.00     0.000 HD 
BRANCH  18  20
HETATM   20  C   UNL     1     -10.410  10.305  68.185  1.00  0.00    -0.177 C  
HETATM   21  O   UNL     1     -10.130  10.158  67.003  1.00  0.00    -0.203 OA 
BRANCH  20  22
HETATM   22  N   UNL     1     -10.978   9.322  68.961  1.00  0.00    -0.420 N  
HETATM   23  H   UNL     1     -11.768   8.766  68.634  1.00  0.00     0.000 HD 
BRANCH  22  24
HETATM   24  C   UNL     1     -10.395   9.123  70.260  1.00  0.00    -0.214 C  
HETATM   25  N   UNL     1     -11.312   8.860  71.342  1.00  0.00    -0.284 N  
HETATM   26  O   UNL     1      -8.828   7.319  69.549  1.00  0.00    -0.137 OA 
HETATM   27  C   UNL     1     -10.783   7.952  72.236  1.00  0.00    -0.283 C  
HETATM   28  N   UNL     1      -9.691   7.379  71.670  1.00  0.00    -0.155 NA 
HETATM   29  O   UNL     1     -11.233   7.663  73.331  1.00  0.00    -0.314 OA 
HETATM   30  C   UNL     1      -9.536   7.842  70.397  1.00  0.00    -0.164 C  
BRANCH  25  31
HETATM   31  C   UNL     1     -12.471   9.653  71.607  1.00  0.00    -0.407 C  
HETATM   32  H   UNL     1     -12.970  11.510  71.413  1.00  0.00     0.000 HD 
HETATM   33  O   UNL     1     -12.200  10.983  71.236  1.00  0.00    -0.330 OA 
ENDBRANCH  25  31
ENDBRANCH  22  24
ENDBRANCH  20  22
ENDBRANCH  18  20
ENDBRANCH  17  18
ENDBRANCH  15  17
ENDBRANCH  13  15
ENDBRANCH  11  13
ENDBRANCH   5  11
ENDBRANCH   2   4
TORSDOF 10
ENDMDL
MODEL      194
REMARK 921   NORMALIZED FREE ENERGY PREDICTED BY IDOCK:   -4.84 KCAL/MOL
REMARK 922        TOTAL FREE ENERGY PREDICTED BY IDOCK:   -9.66 KCAL/MOL
REMARK 923 INTER-LIGAND FREE ENERGY PREDICTED BY IDOCK:   -7.96 KCAL/MOL
REMARK 924 INTRA-LIGAND FREE ENERGY PREDICTED BY IDOCK:   -1.70 KCAL/MOL
REMARK 927      BINDING AFFINITY PREDICTED BY RF-SCORE:    0.00 PKD
ROOT
HETATM    1  O   UNL     1      -5.158  17.920  69.182  1.00  0.00    -0.173 OA 
HETATM    2  C   UNL     1      -6.481  17.994  69.657  1.00  0.00    -0.133 C  
HETATM    3  H   UNL     1      -4.664  17.328  69.736  1.00  0.00     0.000 HD 
ENDROOT
BRANCH   2   4
HETATM    4  N   UNL     1      -7.227  18.887  68.822  1.00  0.00    -0.309 N  
HETATM    5  C   UNL     1      -7.855  18.406  67.608  1.00  0.00    -0.234 C  
HETATM    6  O   UNL     1      -6.042  20.787  69.446  1.00  0.00    -0.313 OA 
HETATM    7  C   UNL     1      -7.563  19.605  66.678  1.00  0.00    -0.260 C  
HETATM    8  N   UNL     1      -7.112  20.635  67.445  1.00  0.00    -0.327 NA 
HETATM    9  O   UNL     1      -7.760  19.685  65.475  1.00  0.00    -0.411 OA 
HETATM   10  C   UNL     1      -6.757  20.179  68.666  1.00  0.00    -0.290 C  
BRANCH   5  11
HETATM   11  N   UNL     1      -9.278  18.257  67.781  1.00  0.00    -0.267 N  
HETATM   12  H   UNL     1      -9.885  19.069  67.672  1.00  0.00     0.000 HD 
BRANCH  11  13
HETATM   13  C   UNL     1      -9.825  17.045  68.089  1.00  0.00    -0.273 C  
HETATM   14  O   UNL     1      -9.580  16.432  69.119  1.00  0.00    -0.259 OA 
BRANCH  13  15
HETATM   15  N   UNL     1     -10.738  16.632  67.155  1.00  0.00    -0.256 N  
HETATM   16  H   UNL     1     -11.553  16.090  67.443  1.00  0.00     0.000 HD 
BRANCH  15  17
HETATM   17  C   UNL     1     -10.548  16.962  65.774  1.00  0.00    -0.230 C  
BRANCH  17  18
HETATM   18  N   UNL     1     -10.527  15.793  64.934  1.00  0.00    -0.396 N  
HETATM   19  H   UNL     1      -9.643  15.437  64.569  1.00  0.00     0.000 HD 
BRANCH  18  20
HETATM   20  C   UNL     1     -11.704  15.163  64.628  1.00  0.00    -0.348 C  
HETATM   21  O   UNL     1     -12.453  15.518  63.727  1.00  0.00    -0.592 OA 
BRANCH  20  22
HETATM   22  N   UNL     1     -11.946  14.078  65.437  1.00  0.00    -0.362 N  
HETATM   23  H   UNL     1     -12.832  13.958  65.928  1.00  0.00     0.000 HD 
BRANCH  22  24
HETATM   24  C   UNL     1     -10.879  13.121  65.551  1.00  0.00    -0.283 C  
HETATM   25  N   UNL     1     -10.787  12.409  66.802  1.00  0.00    -0.241 N  
HETATM   26  O   UNL     1     -11.466  11.855  63.487  1.00  0.00    -0.424 OA 
HETATM   27  C   UNL     1     -10.390  11.102  66.604  1.00  0.00    -0.241 C  
HETATM   28  N   UNL     1     -10.486  10.820  65.280  1.00  0.00    -0.248 NA 
HETATM   29  O   UNL     1     -10.055  10.305  67.464  1.00  0.00    -0.181 OA 
HETATM   30  C   UNL     1     -11.005  11.893  64.617  1.00  0.00    -0.316 C  
BRANCH  25  31
HETATM   31  C   UNL     1     -10.810  13.046  68.080  1.00  0.00    -0.242 C  
HETATM   32  H   UNL     1     -12.036  14.178  69.057  1.00  0.00     0.000 HD 
HETATM   33  O   UNL     1     -12.020  13.754  68.207  1.00  0.00    -0.357 OA 
ENDBRANCH  25  31
ENDBRANCH  22  24
ENDBRANCH  20  22
ENDBRANCH  18  20
ENDBRANCH  17  18
ENDBRANCH  15  17
ENDBRANCH  13  15
ENDBRANCH  11  13
ENDBRANCH   5  11
ENDBRANCH   2   4
TORSDOF 10
ENDMDL
MODEL      195
REMARK 921   NORMALIZED FREE ENERGY PREDICTED BY IDOCK:   -4.83 KCAL/MOL
REMARK 922        TOTAL FREE ENERGY PREDICTED BY IDOCK:   -9.65 KCAL/MOL
REMARK 923 INTER-LIGAND FREE ENERGY PREDICTED BY IDOCK:   -7.65 KCAL/MOL
REMARK 924 INTRA-LIGAND FREE ENERGY PREDICTED BY IDOCK:   -2.00 KCAL/MOL
REMARK 927      BINDING AFFINITY PREDICTED BY RF-SCORE:    0.00 PKD
ROOT
HETATM    1  O   UNL     1     -10.853  16.129  66.875  1.00  0.00    -0.282 OA 
HETATM    2  C   UNL     1     -10.838  14.741  66.645  1.00  0.00    -0.319 C  
HETATM    3  H   UNL     1     -11.487  16.532  66.293  1.00  0.00     0.000 HD 
ENDROOT
BRANCH   2   4
HETATM    4  N   UNL     1      -9.882  14.134  67.522  1.00  0.00    -0.232 N  
HETATM    5  C   UNL     1      -9.036  14.953  68.366  1.00  0.00    -0.183 C  
HETATM    6  O   UNL     1      -9.596  12.227  66.223  1.00  0.00    -0.235 OA 
HETATM    7  C   UNL     1      -7.711  14.167  68.237  1.00  0.00    -0.139 C  
HETATM    8  N   UNL     1      -7.983  12.974  67.643  1.00  0.00    -0.155 NA 
HETATM    9  O   UNL     1      -6.607  14.488  68.650  1.00  0.00    -0.080 OA 
HETATM   10  C   UNL     1      -9.209  13.010  67.075  1.00  0.00    -0.232 C  
BRANCH   5  11
HETATM   11  N   UNL     1      -9.486  14.929  69.735  1.00  0.00    -0.442 N  
HETATM   12  H   UNL     1      -8.972  14.380  70.424  1.00  0.00     0.000 HD 
BRANCH  11  13
HETATM   13  C   UNL     1     -10.591  15.630  70.123  1.00  0.00    -0.334 C  
HETATM   14  O   UNL     1     -10.832  16.774  69.761  1.00  0.00    -0.325 OA 
BRANCH  13  15
HETATM   15  N   UNL     1     -11.440  14.881  70.896  1.00  0.00    -0.417 N  
HETATM   16  H   UNL     1     -11.431  14.985  71.910  1.00  0.00     0.000 HD 
BRANCH  15  17
HETATM   17  C   UNL     1     -12.338  13.952  70.277  1.00  0.00    -0.345 C  
BRANCH  17  18
HETATM   18  N   UNL     1     -12.067  12.593  70.666  1.00  0.00    -0.507 N  
HETATM   19  H   UNL     1     -12.082  12.326  71.650  1.00  0.00     0.000 HD 
BRANCH  18  20
HETATM   20  C   UNL     1     -11.789  11.660  69.702  1.00  0.00    -0.352 C  
HETATM   21  O   UNL     1     -12.144  11.759  68.535  1.00  0.00    -0.454 OA 
BRANCH  20  22
HETATM   22  N   UNL     1     -11.054  10.604  70.188  1.00  0.00    -0.388 N  
HETATM   23  H   UNL     1     -10.059  10.689  70.392  1.00  0.00     0.000 HD 
BRANCH  22  24
HETATM   24  C   UNL     1     -11.770   9.374  70.392  1.00  0.00    -0.144 C  
HETATM   25  N   UNL     1     -10.973   8.175  70.479  1.00  0.00    -0.242 N  
HETATM   26  O   UNL     1     -13.006  10.145  72.414  1.00  0.00    -0.314 OA 
HETATM   27  C   UNL     1     -11.499   7.292  71.400  1.00  0.00    -0.266 C  
HETATM   28  N   UNL     1     -12.434   7.944  72.135  1.00  0.00    -0.292 NA 
HETATM   29  O   UNL     1     -11.160   6.133  71.572  1.00  0.00    -0.266 OA 
HETATM   30  C   UNL     1     -12.480   9.256  71.763  1.00  0.00    -0.381 C  
BRANCH  25  31
HETATM   31  C   UNL     1      -9.961   7.827  69.533  1.00  0.00    -0.187 C  
HETATM   32  H   UNL     1      -8.162   8.409  69.130  1.00  0.00     0.000 HD 
HETATM   33  O   UNL     1      -8.835   8.640  69.759  1.00  0.00    -0.133 OA 
ENDBRANCH  25  31
ENDBRANCH  22  24
ENDBRANCH  20  22
ENDBRANCH  18  20
ENDBRANCH  17  18
ENDBRANCH  15  17
ENDBRANCH  13  15
ENDBRANCH  11  13
ENDBRANCH   5  11
ENDBRANCH   2   4
TORSDOF 10
ENDMDL
MODEL      196
REMARK 921   NORMALIZED FREE ENERGY PREDICTED BY IDOCK:   -4.83 KCAL/MOL
REMARK 922        TOTAL FREE ENERGY PREDICTED BY IDOCK:   -9.64 KCAL/MOL
REMARK 923 INTER-LIGAND FREE ENERGY PREDICTED BY IDOCK:   -7.83 KCAL/MOL
REMARK 924 INTRA-LIGAND FREE ENERGY PREDICTED BY IDOCK:   -1.81 KCAL/MOL
REMARK 927      BINDING AFFINITY PREDICTED BY RF-SCORE:    0.00 PKD
ROOT
HETATM    1  O   UNL     1     -10.981  14.775  70.313  1.00  0.00    -0.421 OA 
HETATM    2  C   UNL     1     -11.904  15.013  69.277  1.00  0.00    -0.315 C  
HETATM    3  H   UNL     1     -11.416  14.298  71.010  1.00  0.00     0.000 HD 
ENDROOT
BRANCH   2   4
HETATM    4  N   UNL     1     -11.248  15.732  68.226  1.00  0.00    -0.344 N  
HETATM    5  C   UNL     1     -10.587  15.021  67.151  1.00  0.00    -0.295 C  
HETATM    6  O   UNL     1     -10.782  17.605  69.522  1.00  0.00     0.011 OA 
HETATM    7  C   UNL     1      -9.334  15.912  66.991  1.00  0.00    -0.215 C  
HETATM    8  N   UNL     1      -9.532  17.054  67.703  1.00  0.00    -0.234 NA 
HETATM    9  O   UNL     1      -8.351  15.701  66.296  1.00  0.00    -0.254 OA 
HETATM   10  C   UNL     1     -10.567  16.891  68.555  1.00  0.00    -0.367 C  
BRANCH   5  11
HETATM   11  N   UNL     1     -11.371  15.059  65.941  1.00  0.00    -0.314 N  
HETATM   12  H   UNL     1     -11.545  15.953  65.484  1.00  0.00     0.000 HD 
BRANCH  11  13
HETATM   13  C   UNL     1     -11.882  13.915  65.400  1.00  0.00    -0.355 C  
HETATM   14  O   UNL     1     -12.765  13.251  65.926  1.00  0.00    -0.388 OA 
BRANCH  13  15
HETATM   15  N   UNL     1     -11.353  13.640  64.167  1.00  0.00    -0.564 N  
HETATM   16  H   UNL     1     -10.610  14.226  63.788  1.00  0.00     0.000 HD 
BRANCH  15  17
HETATM   17  C   UNL     1     -11.844  12.527  63.410  1.00  0.00    -0.503 C  
BRANCH  17  18
HETATM   18  N   UNL     1     -11.392  11.267  63.940  1.00  0.00    -0.457 N  
HETATM   19  H   UNL     1     -12.023  10.684  64.491  1.00  0.00     0.000 HD 
BRANCH  18  20
HETATM   20  C   UNL     1     -10.107  10.857  63.697  1.00  0.00    -0.355 C  
HETATM   21  O   UNL     1      -9.360  11.398  62.893  1.00  0.00    -0.355 OA 
BRANCH  20  22
HETATM   22  N   UNL     1      -9.746   9.777  64.467  1.00  0.00    -0.417 N  
HETATM   23  H   UNL     1      -9.302   8.952  64.064  1.00  0.00     0.000 HD 
BRANCH  22  24
HETATM   24  C   UNL     1     -10.028   9.877  65.873  1.00  0.00    -0.277 C  
HETATM   25  N   UNL     1      -9.494   8.831  66.711  1.00  0.00    -0.175 N  
HETATM   26  O   UNL     1      -9.145  12.193  66.134  1.00  0.00    -0.193 OA 
HETATM   27  C   UNL     1      -9.086   9.329  67.932  1.00  0.00    -0.127 C  
HETATM   28  N   UNL     1      -9.052  10.683  67.854  1.00  0.00    -0.143 NA 
HETATM   29  O   UNL     1      -8.759   8.678  68.910  1.00  0.00    -0.129 OA 
HETATM   30  C   UNL     1      -9.361  11.079  66.586  1.00  0.00    -0.177 C  
BRANCH  25  31
HETATM   31  C   UNL     1      -9.646   7.438  66.432  1.00  0.00    -0.114 C  
HETATM   32  H   UNL     1     -10.987   6.084  66.759  1.00  0.00     0.000 HD 
HETATM   33  O   UNL     1     -10.885   7.010  66.944  1.00  0.00    -0.354 OA 
ENDBRANCH  25  31
ENDBRANCH  22  24
ENDBRANCH  20  22
ENDBRANCH  18  20
ENDBRANCH  17  18
ENDBRANCH  15  17
ENDBRANCH  13  15
ENDBRANCH  11  13
ENDBRANCH   5  11
ENDBRANCH   2   4
TORSDOF 10
ENDMDL
MODEL      197
REMARK 921   NORMALIZED FREE ENERGY PREDICTED BY IDOCK:   -4.82 KCAL/MOL
REMARK 922        TOTAL FREE ENERGY PREDICTED BY IDOCK:   -9.63 KCAL/MOL
REMARK 923 INTER-LIGAND FREE ENERGY PREDICTED BY IDOCK:   -8.05 KCAL/MOL
REMARK 924 INTRA-LIGAND FREE ENERGY PREDICTED BY IDOCK:   -1.58 KCAL/MOL
REMARK 927      BINDING AFFINITY PREDICTED BY RF-SCORE:    0.00 PKD
ROOT
HETATM    1  O   UNL     1     -10.701  15.612  70.446  1.00  0.00    -0.317 OA 
HETATM    2  C   UNL     1     -11.723  15.668  69.481  1.00  0.00    -0.370 C  
HETATM    3  H   UNL     1     -11.060  15.273  71.258  1.00  0.00     0.000 HD 
ENDROOT
BRANCH   2   4
HETATM    4  N   UNL     1     -11.181  16.180  68.258  1.00  0.00    -0.357 N  
HETATM    5  C   UNL     1     -10.698  15.276  67.234  1.00  0.00    -0.311 C  
HETATM    6  O   UNL     1     -10.468  18.192  69.177  1.00  0.00    -0.205 OA 
HETATM    7  C   UNL     1      -9.440  16.052  66.783  1.00  0.00    -0.231 C  
HETATM    8  N   UNL     1      -9.493  17.298  67.327  1.00  0.00    -0.246 NA 
HETATM    9  O   UNL     1      -8.566  15.679  66.015  1.00  0.00    -0.242 OA 
HETATM   10  C   UNL     1     -10.414  17.330  68.315  1.00  0.00    -0.385 C  
BRANCH   5  11
HETATM   11  N   UNL     1     -11.631  15.181  66.139  1.00  0.00    -0.165 N  
HETATM   12  H   UNL     1     -12.627  15.089  66.334  1.00  0.00     0.000 HD 
BRANCH  11  13
HETATM   13  C   UNL     1     -11.199  15.214  64.845  1.00  0.00    -0.417 C  
HETATM   14  O   UNL     1     -11.429  16.138  64.075  1.00  0.00    -0.746 OA 
BRANCH  13  15
HETATM   15  N   UNL     1     -10.412  14.138  64.530  1.00  0.00    -0.577 N  
HETATM   16  H   UNL     1      -9.397  14.224  64.552  1.00  0.00     0.000 HD 
BRANCH  15  17
HETATM   17  C   UNL     1     -11.019  12.891  64.168  1.00  0.00    -0.408 C  
BRANCH  17  18
HETATM   18  N   UNL     1     -10.539  11.800  64.975  1.00  0.00    -0.277 N  
HETATM   19  H   UNL     1      -9.891  11.116  64.584  1.00  0.00     0.000 HD 
BRANCH  18  20
HETATM   20  C   UNL     1     -10.960  11.687  66.274  1.00  0.00    -0.289 C  
HETATM   21  O   UNL     1     -11.999  12.175  66.699  1.00  0.00    -0.616 OA 
BRANCH  20  22
HETATM   22  N   UNL     1     -10.092  10.953  67.047  1.00  0.00    -0.198 N  
HETATM   23  H   UNL     1      -9.170  11.306  67.306  1.00  0.00     0.000 HD 
BRANCH  22  24
HETATM   24  C   UNL     1     -10.557   9.660  67.471  1.00  0.00    -0.277 C  
HETATM   25  N   UNL     1      -9.642   8.559  67.291  1.00  0.00    -0.161 N  
HETATM   26  O   UNL     1     -11.151  10.363  69.787  1.00  0.00    -0.254 OA 
HETATM   27  C   UNL     1      -9.737   7.657  68.331  1.00  0.00    -0.158 C  
HETATM   28  N   UNL     1     -10.452   8.229  69.332  1.00  0.00    -0.223 NA 
HETATM   29  O   UNL     1      -9.231   6.549  68.381  1.00  0.00    -0.124 OA 
HETATM   30  C   UNL     1     -10.766   9.514  68.998  1.00  0.00    -0.202 C  
BRANCH  25  31
HETATM   31  C   UNL     1      -8.958   8.290  66.067  1.00  0.00    -0.181 C  
HETATM   32  H   UNL     1      -7.619   9.175  64.988  1.00  0.00     0.000 HD 
HETATM   33  O   UNL     1      -8.074   9.353  65.803  1.00  0.00    -0.111 OA 
ENDBRANCH  25  31
ENDBRANCH  22  24
ENDBRANCH  20  22
ENDBRANCH  18  20
ENDBRANCH  17  18
ENDBRANCH  15  17
ENDBRANCH  13  15
ENDBRANCH  11  13
ENDBRANCH   5  11
ENDBRANCH   2   4
TORSDOF 10
ENDMDL
MODEL      198
REMARK 921   NORMALIZED FREE ENERGY PREDICTED BY IDOCK:   -4.81 KCAL/MOL
REMARK 922        TOTAL FREE ENERGY PREDICTED BY IDOCK:   -9.62 KCAL/MOL
REMARK 923 INTER-LIGAND FREE ENERGY PREDICTED BY IDOCK:   -8.64 KCAL/MOL
REMARK 924 INTRA-LIGAND FREE ENERGY PREDICTED BY IDOCK:   -0.98 KCAL/MOL
REMARK 927      BINDING AFFINITY PREDICTED BY RF-SCORE:    0.00 PKD
ROOT
HETATM    1  O   UNL     1     -10.662  15.763  70.424  1.00  0.00    -0.316 OA 
HETATM    2  C   UNL     1     -11.622  15.613  69.406  1.00  0.00    -0.370 C  
HETATM    3  H   UNL     1     -10.992  15.365  71.221  1.00  0.00     0.000 HD 
ENDROOT
BRANCH   2   4
HETATM    4  N   UNL     1     -11.125  16.214  68.205  1.00  0.00    -0.342 N  
HETATM    5  C   UNL     1     -10.558  15.393  67.154  1.00  0.00    -0.305 C  
HETATM    6  O   UNL     1     -10.602  18.250  69.196  1.00  0.00    -0.016 OA 
HETATM    7  C   UNL     1      -9.375  16.296  66.737  1.00  0.00    -0.237 C  
HETATM    8  N   UNL     1      -9.543  17.512  67.323  1.00  0.00    -0.267 NA 
HETATM    9  O   UNL     1      -8.468  16.031  65.962  1.00  0.00    -0.302 OA 
HETATM   10  C   UNL     1     -10.466  17.426  68.306  1.00  0.00    -0.385 C  
BRANCH   5  11
HETATM   11  N   UNL     1     -11.476  15.252  66.050  1.00  0.00    -0.169 N  
HETATM   12  H   UNL     1     -12.448  15.007  66.233  1.00  0.00     0.000 HD 
BRANCH  11  13
HETATM   13  C   UNL     1     -11.060  15.444  64.764  1.00  0.00    -0.403 C  
HETATM   14  O   UNL     1     -11.348  16.428  64.096  1.00  0.00    -0.941 OA 
BRANCH  13  15
HETATM   15  N   UNL     1     -10.220  14.451  64.334  1.00  0.00    -0.415 N  
HETATM   16  H   UNL     1      -9.342  14.689  63.874  1.00  0.00     0.000 HD 
BRANCH  15  17
HETATM   17  C   UNL     1     -10.577  13.077  64.530  1.00  0.00    -0.393 C  
BRANCH  17  18
HETATM   18  N   UNL     1      -9.669  12.401  65.420  1.00  0.00    -0.424 N  
HETATM   19  H   UNL     1      -8.933  12.922  65.897  1.00  0.00     0.000 HD 
BRANCH  18  20
HETATM   20  C   UNL     1      -9.802  11.052  65.620  1.00  0.00    -0.239 C  
HETATM   21  O   UNL     1     -10.169  10.268  64.755  1.00  0.00    -0.329 OA 
BRANCH  20  22
HETATM   22  N   UNL     1      -9.464  10.674  66.898  1.00  0.00    -0.163 N  
HETATM   23  H   UNL     1      -8.503  10.712  67.235  1.00  0.00     0.000 HD 
BRANCH  22  24
HETATM   24  C   UNL     1     -10.545  10.222  67.732  1.00  0.00    -0.250 C  
HETATM   25  N   UNL     1     -10.202   9.862  69.086  1.00  0.00    -0.193 N  
HETATM   26  O   UNL     1     -11.996  12.212  67.349  1.00  0.00    -0.563 OA 
HETATM   27  C   UNL     1     -11.202  10.223  69.967  1.00  0.00    -0.311 C  
HETATM   28  N   UNL     1     -12.060  11.054  69.324  1.00  0.00    -0.371 NA 
HETATM   29  O   UNL     1     -11.289   9.901  71.139  1.00  0.00    -0.357 OA 
HETATM   30  C   UNL     1     -11.605  11.301  68.062  1.00  0.00    -0.272 C  
BRANCH  25  31
HETATM   31  C   UNL     1      -9.123   8.989  69.424  1.00  0.00    -0.146 C  
HETATM   32  H   UNL     1      -7.370   9.173  70.218  1.00  0.00     0.000 HD 
HETATM   33  O   UNL     1      -8.088   9.753  69.993  1.00  0.00    -0.161 OA 
ENDBRANCH  25  31
ENDBRANCH  22  24
ENDBRANCH  20  22
ENDBRANCH  18  20
ENDBRANCH  17  18
ENDBRANCH  15  17
ENDBRANCH  13  15
ENDBRANCH  11  13
ENDBRANCH   5  11
ENDBRANCH   2   4
TORSDOF 10
ENDMDL
MODEL      199
REMARK 921   NORMALIZED FREE ENERGY PREDICTED BY IDOCK:   -4.81 KCAL/MOL
REMARK 922        TOTAL FREE ENERGY PREDICTED BY IDOCK:   -9.61 KCAL/MOL
REMARK 923 INTER-LIGAND FREE ENERGY PREDICTED BY IDOCK:   -7.31 KCAL/MOL
REMARK 924 INTRA-LIGAND FREE ENERGY PREDICTED BY IDOCK:   -2.30 KCAL/MOL
REMARK 927      BINDING AFFINITY PREDICTED BY RF-SCORE:    0.00 PKD
ROOT
HETATM    1  O   UNL     1     -11.782  10.989  67.520  1.00  0.00    -0.565 OA 
HETATM    2  C   UNL     1     -11.268   9.794  68.058  1.00  0.00     0.009 C  
HETATM    3  H   UNL     1     -12.086  10.824  66.636  1.00  0.00     0.000 HD 
ENDROOT
BRANCH   2   4
HETATM    4  N   UNL     1     -10.809  10.044  69.392  1.00  0.00    -0.228 N  
HETATM    5  C   UNL     1      -9.603   9.409  69.883  1.00  0.00    -0.212 C  
HETATM    6  O   UNL     1     -12.919  10.507  70.250  1.00  0.00    -0.266 OA 
HETATM    7  C   UNL     1     -10.057   9.082  71.324  1.00  0.00    -0.314 C  
HETATM    8  N   UNL     1     -11.224   9.741  71.560  1.00  0.00    -0.319 NA 
HETATM    9  O   UNL     1      -9.467   8.417  72.162  1.00  0.00    -0.234 OA 
HETATM   10  C   UNL     1     -11.754  10.171  70.394  1.00  0.00    -0.308 C  
BRANCH   5  11
HETATM   11  N   UNL     1      -8.502  10.340  69.919  1.00  0.00    -0.373 N  
HETATM   12  H   UNL     1      -8.076  10.581  70.813  1.00  0.00     0.000 HD 
BRANCH  11  13
HETATM   13  C   UNL     1      -8.022  10.903  68.772  1.00  0.00    -0.139 C  
HETATM   14  O   UNL     1      -7.716  10.261  67.777  1.00  0.00    -0.090 OA 
BRANCH  13  15
HETATM   15  N   UNL     1      -7.999  12.271  68.833  1.00  0.00    -0.339 N  
HETATM   16  H   UNL     1      -8.432  12.754  69.619  1.00  0.00     0.000 HD 
BRANCH  15  17
HETATM   17  C   UNL     1      -7.365  13.023  67.790  1.00  0.00    -0.139 C  
BRANCH  17  18
HETATM   18  N   UNL     1      -8.281  13.363  66.733  1.00  0.00    -0.406 N  
HETATM   19  H   UNL     1      -8.038  13.172  65.760  1.00  0.00     0.000 HD 
BRANCH  18  20
HETATM   20  C   UNL     1      -9.481  13.946  67.043  1.00  0.00    -0.254 C  
HETATM   21  O   UNL     1     -10.393  13.366  67.616  1.00  0.00    -0.233 OA 
BRANCH  20  22
HETATM   22  N   UNL     1      -9.544  15.263  66.649  1.00  0.00    -0.242 N  
HETATM   23  H   UNL     1      -9.767  15.528  65.690  1.00  0.00     0.000 HD 
BRANCH  22  24
HETATM   24  C   UNL     1      -9.277  16.242  67.667  1.00  0.00    -0.206 C  
HETATM   25  N   UNL     1      -8.685  17.481  67.225  1.00  0.00    -0.226 N  
HETATM   26  O   UNL     1     -11.595  16.278  68.582  1.00  0.00    -0.355 OA 
HETATM   27  C   UNL     1      -9.175  18.553  67.944  1.00  0.00    -0.290 C  
HETATM   28  N   UNL     1     -10.262  18.140  68.642  1.00  0.00    -0.384 NA 
HETATM   29  O   UNL     1      -8.747  19.694  67.929  1.00  0.00    -0.313 OA 
HETATM   30  C   UNL     1     -10.537  16.839  68.339  1.00  0.00    -0.354 C  
BRANCH  25  31
HETATM   31  C   UNL     1      -7.538  17.552  66.376  1.00  0.00    -0.294 C  
HETATM   32  H   UNL     1      -6.018  16.425  65.981  1.00  0.00     0.000 HD 
HETATM   33  O   UNL     1      -6.781  16.378  66.545  1.00  0.00    -0.238 OA 
ENDBRANCH  25  31
ENDBRANCH  22  24
ENDBRANCH  20  22
ENDBRANCH  18  20
ENDBRANCH  17  18
ENDBRANCH  15  17
ENDBRANCH  13  15
ENDBRANCH  11  13
ENDBRANCH   5  11
ENDBRANCH   2   4
TORSDOF 10
ENDMDL
MODEL      200
REMARK 921   NORMALIZED FREE ENERGY PREDICTED BY IDOCK:   -4.81 KCAL/MOL
REMARK 922        TOTAL FREE ENERGY PREDICTED BY IDOCK:   -9.61 KCAL/MOL
REMARK 923 INTER-LIGAND FREE ENERGY PREDICTED BY IDOCK:   -7.52 KCAL/MOL
REMARK 924 INTRA-LIGAND FREE ENERGY PREDICTED BY IDOCK:   -2.09 KCAL/MOL
REMARK 927      BINDING AFFINITY PREDICTED BY RF-SCORE:    0.00 PKD
ROOT
HETATM    1  O   UNL     1     -12.627  10.360  69.417  1.00  0.00    -0.687 OA 
HETATM    2  C   UNL     1     -11.664  11.340  69.718  1.00  0.00    -0.349 C  
HETATM    3  H   UNL     1     -12.183   9.549  69.195  1.00  0.00     0.000 HD 
ENDROOT
BRANCH   2   4
HETATM    4  N   UNL     1     -12.332  12.562  70.052  1.00  0.00    -0.148 N  
HETATM    5  C   UNL     1     -11.728  13.840  69.734  1.00  0.00    -0.302 C  
HETATM    6  O   UNL     1     -13.498  11.671  71.855  1.00  0.00    -0.361 OA 
HETATM    7  C   UNL     1     -12.099  14.622  71.014  1.00  0.00    -0.329 C  
HETATM    8  N   UNL     1     -13.009  13.888  71.710  1.00  0.00    -0.345 NA 
HETATM    9  O   UNL     1     -11.724  15.737  71.345  1.00  0.00    -0.365 OA 
HETATM   10  C   UNL     1     -13.029  12.620  71.246  1.00  0.00    -0.214 C  
BRANCH   5  11
HETATM   11  N   UNL     1     -12.363  14.447  68.591  1.00  0.00    -0.584 N  
HETATM   12  H   UNL     1     -13.322  14.785  68.669  1.00  0.00     0.000 HD 
BRANCH  11  13
HETATM   13  C   UNL     1     -11.699  14.576  67.405  1.00  0.00    -0.400 C  
HETATM   14  O   UNL     1     -10.958  15.512  67.140  1.00  0.00    -0.321 OA 
BRANCH  13  15
HETATM   15  N   UNL     1     -11.893  13.500  66.579  1.00  0.00    -0.377 N  
HETATM   16  H   UNL     1     -12.445  12.704  66.899  1.00  0.00     0.000 HD 
BRANCH  15  17
HETATM   17  C   UNL     1     -11.320  13.493  65.267  1.00  0.00    -0.290 C  
BRANCH  17  18
HETATM   18  N   UNL     1      -9.914  13.183  65.289  1.00  0.00    -0.480 N  
HETATM   19  H   UNL     1      -9.305  13.501  64.536  1.00  0.00     0.000 HD 
BRANCH  18  20
HETATM   20  C   UNL     1      -9.401  12.458  66.332  1.00  0.00    -0.219 C  
HETATM   21  O   UNL     1      -9.971  11.504  66.844  1.00  0.00    -0.201 OA 
BRANCH  20  22
HETATM   22  N   UNL     1      -8.167  12.913  66.734  1.00  0.00    -0.408 N  
HETATM   23  H   UNL     1      -7.360  12.903  66.110  1.00  0.00     0.000 HD 
BRANCH  22  24
HETATM   24  C   UNL     1      -8.080  13.405  68.082  1.00  0.00    -0.155 C  
HETATM   25  N   UNL     1      -7.072  12.802  68.920  1.00  0.00    -0.093 N  
HETATM   26  O   UNL     1      -7.840  15.804  67.450  1.00  0.00    -0.145 OA 
HETATM   27  C   UNL     1      -6.507  13.732  69.769  1.00  0.00    -0.079 C  
HETATM   28  N   UNL     1      -6.874  14.971  69.353  1.00  0.00    -0.151 NA 
HETATM   29  O   UNL     1      -5.764  13.504  70.707  1.00  0.00    -0.172 OA 
HETATM   30  C   UNL     1      -7.608  14.874  68.208  1.00  0.00    -0.113 C  
BRANCH  25  31
HETATM   31  C   UNL     1      -6.899  11.391  69.060  1.00  0.00    -0.102 C  
HETATM   32  H   UNL     1      -8.025   9.880  69.491  1.00  0.00     0.000 HD 
HETATM   33  O   UNL     1      -8.140  10.818  69.397  1.00  0.00    -0.131 OA 
ENDBRANCH  25  31
ENDBRANCH  22  24
ENDBRANCH  20  22
ENDBRANCH  18  20
ENDBRANCH  17  18
ENDBRANCH  15  17
ENDBRANCH  13  15
ENDBRANCH  11  13
ENDBRANCH   5  11
ENDBRANCH   2   4
TORSDOF 10
ENDMDL
MODEL      201
REMARK 921   NORMALIZED FREE ENERGY PREDICTED BY IDOCK:   -4.80 KCAL/MOL
REMARK 922        TOTAL FREE ENERGY PREDICTED BY IDOCK:   -9.61 KCAL/MOL
REMARK 923 INTER-LIGAND FREE ENERGY PREDICTED BY IDOCK:   -7.79 KCAL/MOL
REMARK 924 INTRA-LIGAND FREE ENERGY PREDICTED BY IDOCK:   -1.82 KCAL/MOL
REMARK 927      BINDING AFFINITY PREDICTED BY RF-SCORE:    0.00 PKD
ROOT
HETATM    1  O   UNL     1      -9.481  10.637  65.128  1.00  0.00    -0.194 OA 
HETATM    2  C   UNL     1     -10.208  10.072  66.192  1.00  0.00    -0.213 C  
HETATM    3  H   UNL     1      -9.274   9.956  64.500  1.00  0.00     0.000 HD 
ENDROOT
BRANCH   2   4
HETATM    4  N   UNL     1     -10.521  11.099  67.140  1.00  0.00    -0.219 N  
HETATM    5  C   UNL     1     -10.355  10.864  68.560  1.00  0.00    -0.187 C  
HETATM    6  O   UNL     1     -12.105  12.141  65.796  1.00  0.00    -0.572 OA 
HETATM    7  C   UNL     1     -11.619  11.581  69.085  1.00  0.00    -0.316 C  
HETATM    8  N   UNL     1     -12.150  12.307  68.064  1.00  0.00    -0.409 NA 
HETATM    9  O   UNL     1     -12.057  11.586  70.226  1.00  0.00    -0.329 OA 
HETATM   10  C   UNL     1     -11.616  11.907  66.889  1.00  0.00    -0.285 C  
BRANCH   5  11
HETATM   11  N   UNL     1      -9.175  11.522  69.064  1.00  0.00    -0.400 N  
HETATM   12  H   UNL     1      -9.135  11.801  70.044  1.00  0.00     0.000 HD 
BRANCH  11  13
HETATM   13  C   UNL     1      -8.112  11.778  68.247  1.00  0.00    -0.154 C  
HETATM   14  O   UNL     1      -7.504  10.913  67.633  1.00  0.00    -0.092 OA 
BRANCH  13  15
HETATM   15  N   UNL     1      -7.855  13.119  68.129  1.00  0.00    -0.134 N  
HETATM   16  H   UNL     1      -7.111  13.546  68.680  1.00  0.00     0.000 HD 
BRANCH  15  17
HETATM   17  C   UNL     1      -8.634  13.920  67.233  1.00  0.00    -0.211 C  
BRANCH  17  18
HETATM   18  N   UNL     1      -9.707  14.604  67.907  1.00  0.00    -0.213 N  
HETATM   19  H   UNL     1     -10.666  14.268  67.820  1.00  0.00     0.000 HD 
BRANCH  18  20
HETATM   20  C   UNL     1      -9.429  15.709  68.667  1.00  0.00    -0.204 C  
HETATM   21  O   UNL     1      -8.496  15.776  69.456  1.00  0.00    -0.246 OA 
BRANCH  20  22
HETATM   22  N   UNL     1     -10.307  16.742  68.435  1.00  0.00    -0.299 N  
HETATM   23  H   UNL     1     -11.254  16.739  68.813  1.00  0.00     0.000 HD 
BRANCH  22  24
HETATM   24  C   UNL     1      -9.813  17.825  67.628  1.00  0.00    -0.299 C  
HETATM   25  N   UNL     1     -10.488  18.048  66.373  1.00  0.00    -0.367 N  
HETATM   26  O   UNL     1      -9.991  19.556  69.412  1.00  0.00    -0.384 OA 
HETATM   27  C   UNL     1     -10.571  19.395  66.084  1.00  0.00    -0.477 C  
HETATM   28  N   UNL     1     -10.247  20.094  67.200  1.00  0.00    -0.431 NA 
HETATM   29  O   UNL     1     -10.921  19.892  65.027  1.00  0.00    -0.245 OA 
HETATM   30  C   UNL     1     -10.024  19.234  68.234  1.00  0.00    -0.410 C  
BRANCH  25  31
HETATM   31  C   UNL     1     -10.759  17.015  65.425  1.00  0.00    -0.116 C  
HETATM   32  H   UNL     1      -9.765  15.575  64.601  1.00  0.00     0.000 HD 
HETATM   33  O   UNL     1      -9.585  16.263  65.231  1.00  0.00    -0.383 OA 
ENDBRANCH  25  31
ENDBRANCH  22  24
ENDBRANCH  20  22
ENDBRANCH  18  20
ENDBRANCH  17  18
ENDBRANCH  15  17
ENDBRANCH  13  15
ENDBRANCH  11  13
ENDBRANCH   5  11
ENDBRANCH   2   4
TORSDOF 10
ENDMDL
MODEL      202
REMARK 921   NORMALIZED FREE ENERGY PREDICTED BY IDOCK:   -4.79 KCAL/MOL
REMARK 922        TOTAL FREE ENERGY PREDICTED BY IDOCK:   -9.58 KCAL/MOL
REMARK 923 INTER-LIGAND FREE ENERGY PREDICTED BY IDOCK:   -8.30 KCAL/MOL
REMARK 924 INTRA-LIGAND FREE ENERGY PREDICTED BY IDOCK:   -1.29 KCAL/MOL
REMARK 927      BINDING AFFINITY PREDICTED BY RF-SCORE:    0.00 PKD
ROOT
HETATM    1  O   UNL     1      -9.424  11.068  66.562  1.00  0.00    -0.180 OA 
HETATM    2  C   UNL     1      -9.680   9.733  66.198  1.00  0.00    -0.246 C  
HETATM    3  H   UNL     1      -8.907  11.480  65.881  1.00  0.00     0.000 HD 
ENDROOT
BRANCH   2   4
HETATM    4  N   UNL     1     -10.460   9.111  67.226  1.00  0.00    -0.267 N  
HETATM    5  C   UNL     1     -10.584   9.730  68.530  1.00  0.00    -0.221 C  
HETATM    6  O   UNL     1     -10.159   6.948  66.430  1.00  0.00    -0.108 OA 
HETATM    7  C   UNL     1     -10.497   8.469  69.420  1.00  0.00    -0.218 C  
HETATM    8  N   UNL     1     -10.610   7.376  68.617  1.00  0.00    -0.185 NA 
HETATM    9  O   UNL     1     -10.417   8.417  70.638  1.00  0.00    -0.194 OA 
HETATM   10  C   UNL     1     -10.424   7.731  67.327  1.00  0.00    -0.322 C  
BRANCH   5  11
HETATM   11  N   UNL     1     -11.875  10.352  68.691  1.00  0.00    -0.495 N  
HETATM   12  H   UNL     1     -12.522  10.379  67.903  1.00  0.00     0.000 HD 
BRANCH  11  13
HETATM   13  C   UNL     1     -12.243  10.905  69.883  1.00  0.00    -0.336 C  
HETATM   14  O   UNL     1     -13.011  10.370  70.672  1.00  0.00    -0.368 OA 
BRANCH  13  15
HETATM   15  N   UNL     1     -11.595  12.086  70.133  1.00  0.00    -0.531 N  
HETATM   16  H   UNL     1     -10.582  12.143  70.032  1.00  0.00     0.000 HD 
BRANCH  15  17
HETATM   17  C   UNL     1     -12.342  13.240  70.536  1.00  0.00    -0.316 C  
BRANCH  17  18
HETATM   18  N   UNL     1     -11.488  14.325  70.943  1.00  0.00    -0.516 N  
HETATM   19  H   UNL     1     -11.306  14.493  71.933  1.00  0.00     0.000 HD 
BRANCH  18  20
HETATM   20  C   UNL     1     -10.921  15.130  69.990  1.00  0.00    -0.271 C  
HETATM   21  O   UNL     1      -9.724  15.378  69.932  1.00  0.00    -0.267 OA 
BRANCH  20  22
HETATM   22  N   UNL     1     -11.845  15.620  69.098  1.00  0.00    -0.439 N  
HETATM   23  H   UNL     1     -12.745  15.991  69.402  1.00  0.00     0.000 HD 
BRANCH  22  24
HETATM   24  C   UNL     1     -11.471  15.578  67.710  1.00  0.00    -0.243 C  
HETATM   25  N   UNL     1     -10.535  16.583  67.268  1.00  0.00    -0.308 N  
HETATM   26  O   UNL     1     -10.752  13.191  67.724  1.00  0.00    -0.233 OA 
HETATM   27  C   UNL     1      -9.661  16.073  66.329  1.00  0.00    -0.306 C  
HETATM   28  N   UNL     1      -9.774  14.722  66.327  1.00  0.00    -0.287 NA 
HETATM   29  O   UNL     1      -8.879  16.709  65.644  1.00  0.00    -0.448 OA 
HETATM   30  C   UNL     1     -10.652  14.331  67.296  1.00  0.00    -0.278 C  
BRANCH  25  31
HETATM   31  C   UNL     1     -10.685  17.978  67.538  1.00  0.00    -0.336 C  
HETATM   32  H   UNL     1     -10.223  19.182  68.979  1.00  0.00     0.000 HD 
HETATM   33  O   UNL     1     -10.123  18.254  68.798  1.00  0.00    -0.378 OA 
ENDBRANCH  25  31
ENDBRANCH  22  24
ENDBRANCH  20  22
ENDBRANCH  18  20
ENDBRANCH  17  18
ENDBRANCH  15  17
ENDBRANCH  13  15
ENDBRANCH  11  13
ENDBRANCH   5  11
ENDBRANCH   2   4
TORSDOF 10
ENDMDL
MODEL      203
REMARK 921   NORMALIZED FREE ENERGY PREDICTED BY IDOCK:   -4.79 KCAL/MOL
REMARK 922        TOTAL FREE ENERGY PREDICTED BY IDOCK:   -9.58 KCAL/MOL
REMARK 923 INTER-LIGAND FREE ENERGY PREDICTED BY IDOCK:   -7.63 KCAL/MOL
REMARK 924 INTRA-LIGAND FREE ENERGY PREDICTED BY IDOCK:   -1.94 KCAL/MOL
REMARK 927      BINDING AFFINITY PREDICTED BY RF-SCORE:    0.00 PKD
ROOT
HETATM    1  O   UNL     1     -11.158  14.465  69.800  1.00  0.00    -0.343 OA 
HETATM    2  C   UNL     1     -11.905  14.831  68.665  1.00  0.00    -0.300 C  
HETATM    3  H   UNL     1     -11.657  13.836  70.308  1.00  0.00     0.000 HD 
ENDROOT
BRANCH   2   4
HETATM    4  N   UNL     1     -11.153  15.779  67.899  1.00  0.00    -0.333 N  
HETATM    5  C   UNL     1     -10.388  15.350  66.745  1.00  0.00    -0.279 C  
HETATM    6  O   UNL     1     -10.820  17.251  69.667  1.00  0.00    -0.082 OA 
HETATM    7  C   UNL     1      -9.128  16.225  66.936  1.00  0.00    -0.220 C  
HETATM    8  N   UNL     1      -9.398  17.153  67.894  1.00  0.00    -0.245 NA 
HETATM    9  O   UNL     1      -8.081  16.176  66.307  1.00  0.00    -0.292 OA 
HETATM   10  C   UNL     1     -10.510  16.801  68.575  1.00  0.00    -0.335 C  
BRANCH   5  11
HETATM   11  N   UNL     1     -11.051  15.711  65.517  1.00  0.00    -0.271 N  
HETATM   12  H   UNL     1     -11.125  16.694  65.255  1.00  0.00     0.000 HD 
BRANCH  11  13
HETATM   13  C   UNL     1     -11.581  14.756  64.699  1.00  0.00    -0.399 C  
HETATM   14  O   UNL     1     -12.475  14.972  63.892  1.00  0.00    -0.790 OA 
BRANCH  13  15
HETATM   15  N   UNL     1     -10.945  13.549  64.825  1.00  0.00    -0.352 N  
HETATM   16  H   UNL     1     -10.372  13.358  65.647  1.00  0.00     0.000 HD 
BRANCH  15  17
HETATM   17  C   UNL     1     -11.085  12.556  63.802  1.00  0.00    -0.448 C  
BRANCH  17  18
HETATM   18  N   UNL     1     -11.162  11.225  64.344  1.00  0.00    -0.214 N  
HETATM   19  H   UNL     1     -12.067  10.764  64.452  1.00  0.00     0.000 HD 
BRANCH  18  20
HETATM   20  C   UNL     1     -10.011  10.580  64.713  1.00  0.00    -0.345 C  
HETATM   21  O   UNL     1      -8.889  10.958  64.403  1.00  0.00    -0.157 OA 
BRANCH  20  22
HETATM   22  N   UNL     1     -10.255   9.467  65.482  1.00  0.00    -0.239 N  
HETATM   23  H   UNL     1     -10.883   8.725  65.173  1.00  0.00     0.000 HD 
BRANCH  22  24
HETATM   24  C   UNL     1      -9.573   9.407  66.746  1.00  0.00    -0.179 C  
HETATM   25  N   UNL     1     -10.195  10.107  67.844  1.00  0.00    -0.170 N  
HETATM   26  O   UNL     1      -9.434   6.920  66.831  1.00  0.00    -0.146 OA 
HETATM   27  C   UNL     1     -10.032   9.420  69.030  1.00  0.00    -0.177 C  
HETATM   28  N   UNL     1      -9.588   8.170  68.745  1.00  0.00    -0.148 NA 
HETATM   29  O   UNL     1     -10.286   9.831  70.149  1.00  0.00    -0.247 OA 
HETATM   30  C   UNL     1      -9.525   8.001  67.393  1.00  0.00    -0.151 C  
BRANCH  25  31
HETATM   31  C   UNL     1     -10.649  11.459  67.765  1.00  0.00    -0.195 C  
HETATM   32  H   UNL     1     -12.248  12.366  67.166  1.00  0.00     0.000 HD 
HETATM   33  O   UNL     1     -11.946  11.466  67.219  1.00  0.00    -0.580 OA 
ENDBRANCH  25  31
ENDBRANCH  22  24
ENDBRANCH  20  22
ENDBRANCH  18  20
ENDBRANCH  17  18
ENDBRANCH  15  17
ENDBRANCH  13  15
ENDBRANCH  11  13
ENDBRANCH   5  11
ENDBRANCH   2   4
TORSDOF 10
ENDMDL
MODEL      204
REMARK 921   NORMALIZED FREE ENERGY PREDICTED BY IDOCK:   -4.78 KCAL/MOL
REMARK 922        TOTAL FREE ENERGY PREDICTED BY IDOCK:   -9.58 KCAL/MOL
REMARK 923 INTER-LIGAND FREE ENERGY PREDICTED BY IDOCK:   -7.64 KCAL/MOL
REMARK 924 INTRA-LIGAND FREE ENERGY PREDICTED BY IDOCK:   -1.93 KCAL/MOL
REMARK 927      BINDING AFFINITY PREDICTED BY RF-SCORE:    0.00 PKD
ROOT
HETATM    1  O   UNL     1      -9.491  12.897  68.688  1.00  0.00    -0.382 OA 
HETATM    2  C   UNL     1      -9.624  13.104  67.303  1.00  0.00    -0.233 C  
HETATM    3  H   UNL     1      -9.062  13.652  69.073  1.00  0.00     0.000 HD 
ENDROOT
BRANCH   2   4
HETATM    4  N   UNL     1     -10.271  11.966  66.722  1.00  0.00    -0.204 N  
HETATM    5  C   UNL     1     -10.182  10.667  67.357  1.00  0.00    -0.204 C  
HETATM    6  O   UNL     1     -10.173  12.766  64.542  1.00  0.00    -0.334 OA 
HETATM    7  C   UNL     1     -10.016   9.781  66.102  1.00  0.00    -0.268 C  
HETATM    8  N   UNL     1     -10.286  10.542  65.007  1.00  0.00    -0.295 NA 
HETATM    9  O   UNL     1      -9.764   8.586  66.057  1.00  0.00    -0.222 OA 
HETATM   10  C   UNL     1     -10.275  11.851  65.343  1.00  0.00    -0.263 C  
BRANCH   5  11
HETATM   11  N   UNL     1     -11.411  10.331  68.032  1.00  0.00    -0.507 N  
HETATM   12  H   UNL     1     -12.239  10.103  67.484  1.00  0.00     0.000 HD 
BRANCH  11  13
HETATM   13  C   UNL     1     -11.480  10.314  69.395  1.00  0.00    -0.186 C  
HETATM   14  O   UNL     1     -10.514  10.127  70.122  1.00  0.00    -0.271 OA 
BRANCH  13  15
HETATM   15  N   UNL     1     -12.735  10.610  69.857  1.00  0.00    -0.475 N  
HETATM   16  H   UNL     1     -13.380  11.146  69.276  1.00  0.00     0.000 HD 
BRANCH  15  17
HETATM   17  C   UNL     1     -13.142  10.167  71.158  1.00  0.00    -0.392 C  
BRANCH  17  18
HETATM   18  N   UNL     1     -13.359   8.745  71.204  1.00  0.00    -0.539 N  
HETATM   19  H   UNL     1     -14.126   8.324  70.679  1.00  0.00     0.000 HD 
BRANCH  18  20
HETATM   20  C   UNL     1     -12.527   7.960  71.959  1.00  0.00    -0.304 C  
HETATM   21  O   UNL     1     -12.103   8.281  73.061  1.00  0.00    -0.249 OA 
BRANCH  20  22
HETATM   22  N   UNL     1     -12.231   6.766  71.346  1.00  0.00    -0.360 N  
HETATM   23  H   UNL     1     -12.946   6.062  71.163  1.00  0.00     0.000 HD 
BRANCH  22  24
HETATM   24  C   UNL     1     -10.856   6.566  70.977  1.00  0.00    -0.253 C  
HETATM   25  N   UNL     1     -10.169   5.478  71.629  1.00  0.00    -0.202 N  
HETATM   26  O   UNL     1     -11.281   6.421  68.525  1.00  0.00    -0.328 OA 
HETATM   27  C   UNL     1      -9.290   4.854  70.766  1.00  0.00    -0.152 C  
HETATM   28  N   UNL     1      -9.556   5.276  69.504  1.00  0.00    -0.140 NA 
HETATM   29  O   UNL     1      -8.446   4.026  71.061  1.00  0.00    -0.073 OA 
HETATM   30  C   UNL     1     -10.636   6.108  69.514  1.00  0.00    -0.287 C  
BRANCH  25  31
HETATM   31  C   UNL     1     -10.175   5.271  73.042  1.00  0.00    -0.183 C  
HETATM   32  H   UNL     1     -11.463   4.700  74.367  1.00  0.00     0.000 HD 
HETATM   33  O   UNL     1     -11.458   4.838  73.427  1.00  0.00    -0.338 OA 
ENDBRANCH  25  31
ENDBRANCH  22  24
ENDBRANCH  20  22
ENDBRANCH  18  20
ENDBRANCH  17  18
ENDBRANCH  15  17
ENDBRANCH  13  15
ENDBRANCH  11  13
ENDBRANCH   5  11
ENDBRANCH   2   4
TORSDOF 10
ENDMDL
MODEL      205
REMARK 921   NORMALIZED FREE ENERGY PREDICTED BY IDOCK:   -4.78 KCAL/MOL
REMARK 922        TOTAL FREE ENERGY PREDICTED BY IDOCK:   -9.56 KCAL/MOL
REMARK 923 INTER-LIGAND FREE ENERGY PREDICTED BY IDOCK:   -7.66 KCAL/MOL
REMARK 924 INTRA-LIGAND FREE ENERGY PREDICTED BY IDOCK:   -1.91 KCAL/MOL
REMARK 927      BINDING AFFINITY PREDICTED BY RF-SCORE:    0.00 PKD
ROOT
HETATM    1  O   UNL     1     -11.163   3.551  73.217  1.00  0.00    -0.178 OA 
HETATM    2  C   UNL     1     -11.133   4.936  73.466  1.00  0.00    -0.332 C  
HETATM    3  H   UNL     1     -11.497   3.106  73.987  1.00  0.00     0.000 HD 
ENDROOT
BRANCH   2   4
HETATM    4  N   UNL     1     -10.629   5.607  72.306  1.00  0.00    -0.213 N  
HETATM    5  C   UNL     1     -11.538   6.219  71.358  1.00  0.00    -0.278 C  
HETATM    6  O   UNL     1      -8.680   4.346  72.171  1.00  0.00    -0.110 OA 
HETATM    7  C   UNL     1     -10.828   5.836  70.040  1.00  0.00    -0.333 C  
HETATM    8  N   UNL     1      -9.592   5.357  70.349  1.00  0.00    -0.166 NA 
HETATM    9  O   UNL     1     -11.235   5.989  68.899  1.00  0.00    -0.344 OA 
HETATM   10  C   UNL     1      -9.527   5.067  71.667  1.00  0.00    -0.151 C  
BRANCH   5  11
HETATM   11  N   UNL     1     -11.555   7.654  71.504  1.00  0.00    -0.266 N  
HETATM   12  H   UNL     1     -10.674   8.165  71.547  1.00  0.00     0.000 HD 
BRANCH  11  13
HETATM   13  C   UNL     1     -12.734   8.337  71.585  1.00  0.00    -0.327 C  
HETATM   14  O   UNL     1     -13.834   7.802  71.535  1.00  0.00    -0.371 OA 
BRANCH  13  15
HETATM   15  N   UNL     1     -12.547   9.675  71.808  1.00  0.00    -0.387 N  
HETATM   16  H   UNL     1     -12.071   9.990  72.653  1.00  0.00     0.000 HD 
BRANCH  15  17
HETATM   17  C   UNL     1     -13.022  10.633  70.854  1.00  0.00    -0.340 C  
BRANCH  17  18
HETATM   18  N   UNL     1     -11.948  11.248  70.121  1.00  0.00    -0.340 N  
HETATM   19  H   UNL     1     -11.908  12.263  70.021  1.00  0.00     0.000 HD 
BRANCH  18  20
HETATM   20  C   UNL     1     -10.978  10.461  69.559  1.00  0.00    -0.262 C  
HETATM   21  O   UNL     1      -9.989  10.063  70.160  1.00  0.00    -0.252 OA 
BRANCH  20  22
HETATM   22  N   UNL     1     -11.244  10.155  68.245  1.00  0.00    -0.481 N  
HETATM   23  H   UNL     1     -11.955   9.472  67.984  1.00  0.00     0.000 HD 
BRANCH  22  24
HETATM   24  C   UNL     1     -10.465  10.855  67.260  1.00  0.00    -0.232 C  
HETATM   25  N   UNL     1     -10.042  10.088  66.114  1.00  0.00    -0.254 N  
HETATM   26  O   UNL     1     -12.098  12.708  66.929  1.00  0.00    -0.490 OA 
HETATM   27  C   UNL     1     -10.061  10.854  64.966  1.00  0.00    -0.300 C  
HETATM   28  N   UNL     1     -10.739  12.000  65.226  1.00  0.00    -0.278 NA 
HETATM   29  O   UNL     1      -9.597  10.549  63.881  1.00  0.00    -0.261 OA 
HETATM   30  C   UNL     1     -11.226  11.968  66.500  1.00  0.00    -0.334 C  
BRANCH  25  31
HETATM   31  C   UNL     1      -9.407   8.811  66.206  1.00  0.00    -0.222 C  
HETATM   32  H   UNL     1      -9.977   6.979  66.445  1.00  0.00     0.000 HD 
HETATM   33  O   UNL     1     -10.399   7.829  66.383  1.00  0.00    -0.154 OA 
ENDBRANCH  25  31
ENDBRANCH  22  24
ENDBRANCH  20  22
ENDBRANCH  18  20
ENDBRANCH  17  18
ENDBRANCH  15  17
ENDBRANCH  13  15
ENDBRANCH  11  13
ENDBRANCH   5  11
ENDBRANCH   2   4
TORSDOF 10
ENDMDL
MODEL      206
REMARK 921   NORMALIZED FREE ENERGY PREDICTED BY IDOCK:   -4.77 KCAL/MOL
REMARK 922        TOTAL FREE ENERGY PREDICTED BY IDOCK:   -9.56 KCAL/MOL
REMARK 923 INTER-LIGAND FREE ENERGY PREDICTED BY IDOCK:   -7.78 KCAL/MOL
REMARK 924 INTRA-LIGAND FREE ENERGY PREDICTED BY IDOCK:   -1.78 KCAL/MOL
REMARK 927      BINDING AFFINITY PREDICTED BY RF-SCORE:    0.00 PKD
ROOT
HETATM    1  O   UNL     1     -12.891  12.025  62.796  1.00  0.00    -0.522 OA 
HETATM    2  C   UNL     1     -12.930  11.851  64.192  1.00  0.00     0.023 C  
HETATM    3  H   UNL     1     -13.505  11.423  62.393  1.00  0.00     0.000 HD 
ENDROOT
BRANCH   2   4
HETATM    4  N   UNL     1     -12.005  12.759  64.801  1.00  0.00    -0.377 N  
HETATM    5  C   UNL     1     -12.422  14.097  65.169  1.00  0.00    -0.439 C  
HETATM    6  O   UNL     1     -10.119  11.809  63.830  1.00  0.00    -0.325 OA 
HETATM    7  C   UNL     1     -11.157  14.881  64.754  1.00  0.00    -0.383 C  
HETATM    8  N   UNL     1     -10.167  13.983  64.496  1.00  0.00    -0.279 NA 
HETATM    9  O   UNL     1     -11.004  16.093  64.724  1.00  0.00    -0.594 OA 
HETATM   10  C   UNL     1     -10.693  12.746  64.361  1.00  0.00    -0.376 C  
BRANCH   5  11
HETATM   11  N   UNL     1     -12.619  14.208  66.593  1.00  0.00    -0.510 N  
HETATM   12  H   UNL     1     -13.444  14.688  66.951  1.00  0.00     0.000 HD 
BRANCH  11  13
HETATM   13  C   UNL     1     -11.716  13.679  67.470  1.00  0.00    -0.371 C  
HETATM   14  O   UNL     1     -10.780  14.308  67.944  1.00  0.00    -0.237 OA 
BRANCH  13  15
HETATM   15  N   UNL     1     -12.023  12.390  67.821  1.00  0.00    -0.285 N  
HETATM   16  H   UNL     1     -12.316  11.723  67.107  1.00  0.00     0.000 HD 
BRANCH  15  17
HETATM   17  C   UNL     1     -11.932  11.981  69.191  1.00  0.00    -0.268 C  
BRANCH  17  18
HETATM   18  N   UNL     1     -11.972  10.550  69.334  1.00  0.00    -0.513 N  
HETATM   19  H   UNL     1     -12.639   9.997  68.796  1.00  0.00     0.000 HD 
BRANCH  18  20
HETATM   20  C   UNL     1     -11.105   9.935  70.200  1.00  0.00    -0.296 C  
HETATM   21  O   UNL     1     -11.265   9.900  71.413  1.00  0.00    -0.348 OA 
BRANCH  20  22
HETATM   22  N   UNL     1     -10.042   9.351  69.553  1.00  0.00    -0.194 N  
HETATM   23  H   UNL     1      -9.076   9.551  69.814  1.00  0.00     0.000 HD 
BRANCH  22  24
HETATM   24  C   UNL     1     -10.369   8.441  68.489  1.00  0.00    -0.200 C  
HETATM   25  N   UNL     1      -9.427   8.365  67.399  1.00  0.00    -0.143 N  
HETATM   26  O   UNL     1     -10.671   6.449  69.956  1.00  0.00    -0.213 OA 
HETATM   27  C   UNL     1      -9.324   7.076  66.917  1.00  0.00    -0.153 C  
HETATM   28  N   UNL     1      -9.922   6.239  67.801  1.00  0.00    -0.120 NA 
HETATM   29  O   UNL     1      -8.753   6.723  65.899  1.00  0.00    -0.152 OA 
HETATM   30  C   UNL     1     -10.353   6.945  68.886  1.00  0.00    -0.189 C  
BRANCH  25  31
HETATM   31  C   UNL     1      -8.907   9.510  66.720  1.00  0.00    -0.131 C  
HETATM   32  H   UNL     1      -9.468  11.337  66.427  1.00  0.00     0.000 HD 
HETATM   33  O   UNL     1      -9.813  10.575  66.878  1.00  0.00    -0.181 OA 
ENDBRANCH  25  31
ENDBRANCH  22  24
ENDBRANCH  20  22
ENDBRANCH  18  20
ENDBRANCH  17  18
ENDBRANCH  15  17
ENDBRANCH  13  15
ENDBRANCH  11  13
ENDBRANCH   5  11
ENDBRANCH   2   4
TORSDOF 10
ENDMDL
MODEL      207
REMARK 921   NORMALIZED FREE ENERGY PREDICTED BY IDOCK:   -4.76 KCAL/MOL
REMARK 922        TOTAL FREE ENERGY PREDICTED BY IDOCK:   -9.54 KCAL/MOL
REMARK 923 INTER-LIGAND FREE ENERGY PREDICTED BY IDOCK:   -7.17 KCAL/MOL
REMARK 924 INTRA-LIGAND FREE ENERGY PREDICTED BY IDOCK:   -2.37 KCAL/MOL
REMARK 927      BINDING AFFINITY PREDICTED BY RF-SCORE:    0.00 PKD
ROOT
HETATM    1  O   UNL     1     -11.174  11.023  62.848  1.00  0.00    -0.751 OA 
HETATM    2  C   UNL     1     -10.232  12.028  63.136  1.00  0.00    -0.234 C  
HETATM    3  H   UNL     1     -10.831  10.467  62.159  1.00  0.00     0.000 HD 
ENDROOT
BRANCH   2   4
HETATM    4  N   UNL     1     -10.749  12.867  64.175  1.00  0.00    -0.400 N  
HETATM    5  C   UNL     1     -10.417  12.609  65.562  1.00  0.00    -0.281 C  
HETATM    6  O   UNL     1     -12.660  13.486  63.006  1.00  0.00    -0.716 OA 
HETATM    7  C   UNL     1     -11.788  12.903  66.210  1.00  0.00    -0.416 C  
HETATM    8  N   UNL     1     -12.577  13.504  65.279  1.00  0.00    -0.577 NA 
HETATM    9  O   UNL     1     -12.122  12.718  67.371  1.00  0.00    -0.382 OA 
HETATM   10  C   UNL     1     -12.043  13.340  64.049  1.00  0.00    -0.447 C  
BRANCH   5  11
HETATM   11  N   UNL     1      -9.436  13.547  66.047  1.00  0.00    -0.488 N  
HETATM   12  H   UNL     1      -9.269  14.411  65.532  1.00  0.00     0.000 HD 
BRANCH  11  13
HETATM   13  C   UNL     1      -8.727  13.296  67.186  1.00  0.00    -0.212 C  
HETATM   14  O   UNL     1      -8.412  14.158  67.994  1.00  0.00    -0.151 OA 
BRANCH  13  15
HETATM   15  N   UNL     1      -8.481  11.960  67.363  1.00  0.00    -0.158 N  
HETATM   16  H   UNL     1      -8.467  11.333  66.558  1.00  0.00     0.000 HD 
BRANCH  15  17
HETATM   17  C   UNL     1      -8.244  11.444  68.678  1.00  0.00    -0.142 C  
BRANCH  17  18
HETATM   18  N   UNL     1      -9.318  10.602  69.134  1.00  0.00    -0.303 N  
HETATM   19  H   UNL     1      -9.714  10.730  70.066  1.00  0.00     0.000 HD 
BRANCH  18  20
HETATM   20  C   UNL     1      -9.807   9.626  68.305  1.00  0.00    -0.150 C  
HETATM   21  O   UNL     1     -10.866   9.714  67.699  1.00  0.00    -0.282 OA 
BRANCH  20  22
HETATM   22  N   UNL     1      -8.968   8.540  68.220  1.00  0.00    -0.139 N  
HETATM   23  H   UNL     1      -8.298   8.317  68.956  1.00  0.00     0.000 HD 
BRANCH  22  24
HETATM   24  C   UNL     1      -9.088   7.737  67.034  1.00  0.00    -0.138 C  
HETATM   25  N   UNL     1      -7.904   7.613  66.220  1.00  0.00    -0.089 N  
HETATM   26  O   UNL     1      -9.963   5.714  68.198  1.00  0.00    -0.130 OA 
HETATM   27  C   UNL     1      -7.804   6.350  65.673  1.00  0.00    -0.099 C  
HETATM   28  N   UNL     1      -8.694   5.540  66.298  1.00  0.00    -0.124 NA 
HETATM   29  O   UNL     1      -7.021   5.992  64.810  1.00  0.00    -0.052 OA 
HETATM   30  C   UNL     1      -9.325   6.229  67.292  1.00  0.00    -0.118 C  
BRANCH  25  31
HETATM   31  C   UNL     1      -7.113   8.726  65.799  1.00  0.00    -0.080 C  
HETATM   32  H   UNL     1      -7.448  10.479  65.054  1.00  0.00     0.000 HD 
HETATM   33  O   UNL     1      -7.974   9.738  65.335  1.00  0.00    -0.116 OA 
ENDBRANCH  25  31
ENDBRANCH  22  24
ENDBRANCH  20  22
ENDBRANCH  18  20
ENDBRANCH  17  18
ENDBRANCH  15  17
ENDBRANCH  13  15
ENDBRANCH  11  13
ENDBRANCH   5  11
ENDBRANCH   2   4
TORSDOF 10
ENDMDL
MODEL      208
REMARK 921   NORMALIZED FREE ENERGY PREDICTED BY IDOCK:   -4.74 KCAL/MOL
REMARK 922        TOTAL FREE ENERGY PREDICTED BY IDOCK:   -9.51 KCAL/MOL
REMARK 923 INTER-LIGAND FREE ENERGY PREDICTED BY IDOCK:   -7.64 KCAL/MOL
REMARK 924 INTRA-LIGAND FREE ENERGY PREDICTED BY IDOCK:   -1.87 KCAL/MOL
REMARK 927      BINDING AFFINITY PREDICTED BY RF-SCORE:    0.00 PKD
ROOT
HETATM    1  O   UNL     1     -13.032  12.028  71.522  1.00  0.00    -0.397 OA 
HETATM    2  C   UNL     1     -13.541  13.209  72.093  1.00  0.00    -0.544 C  
HETATM    3  H   UNL     1     -13.383  11.281  71.993  1.00  0.00     0.000 HD 
ENDROOT
BRANCH   2   4
HETATM    4  N   UNL     1     -13.010  14.335  71.384  1.00  0.00    -0.324 N  
HETATM    5  C   UNL     1     -11.949  14.158  70.414  1.00  0.00    -0.330 C  
HETATM    6  O   UNL     1     -13.506  15.878  73.051  1.00  0.00    -0.551 OA 
HETATM    7  C   UNL     1     -11.100  15.409  70.735  1.00  0.00    -0.336 C  
HETATM    8  N   UNL     1     -11.829  16.217  71.553  1.00  0.00    -0.446 NA 
HETATM    9  O   UNL     1      -9.998  15.699  70.295  1.00  0.00    -0.200 OA 
HETATM   10  C   UNL     1     -12.872  15.530  72.068  1.00  0.00    -0.420 C  
BRANCH   5  11
HETATM   11  N   UNL     1     -12.455  14.245  69.066  1.00  0.00    -0.538 N  
HETATM   12  H   UNL     1     -12.938  15.091  68.764  1.00  0.00     0.000 HD 
BRANCH  11  13
HETATM   13  C   UNL     1     -12.296  13.211  68.190  1.00  0.00     0.169 C  
HETATM   14  O   UNL     1     -12.372  12.032  68.509  1.00  0.00    -0.246 OA 
BRANCH  13  15
HETATM   15  N   UNL     1     -12.124  13.642  66.901  1.00  0.00    -0.399 N  
HETATM   16  H   UNL     1     -12.743  14.354  66.514  1.00  0.00     0.000 HD 
BRANCH  15  17
HETATM   17  C   UNL     1     -11.074  13.091  66.097  1.00  0.00    -0.287 C  
BRANCH  17  18
HETATM   18  N   UNL     1     -11.148  11.656  66.015  1.00  0.00    -0.295 N  
HETATM   19  H   UNL     1     -11.931  11.156  66.438  1.00  0.00     0.000 HD 
BRANCH  18  20
HETATM   20  C   UNL     1     -10.158  10.966  65.366  1.00  0.00    -0.277 C  
HETATM   21  O   UNL     1      -9.849  11.156  64.197  1.00  0.00    -0.245 OA 
BRANCH  20  22
HETATM   22  N   UNL     1      -9.541  10.043  66.177  1.00  0.00    -0.195 N  
HETATM   23  H   UNL     1      -8.697   9.549  65.886  1.00  0.00     0.000 HD 
BRANCH  22  24
HETATM   24  C   UNL     1     -10.152   9.815  67.458  1.00  0.00    -0.197 C  
HETATM   25  N   UNL     1     -10.071   8.471  67.977  1.00  0.00    -0.191 N  
HETATM   26  O   UNL     1      -8.925  11.634  68.640  1.00  0.00    -0.159 OA 
HETATM   27  C   UNL     1      -9.903   8.474  69.347  1.00  0.00    -0.185 C  
HETATM   28  N   UNL     1      -9.582   9.733  69.737  1.00  0.00    -0.218 NA 
HETATM   29  O   UNL     1      -9.976   7.511  70.091  1.00  0.00    -0.190 OA 
HETATM   30  C   UNL     1      -9.467  10.539  68.643  1.00  0.00    -0.172 C  
BRANCH  25  31
HETATM   31  C   UNL     1     -10.419   7.309  67.222  1.00  0.00    -0.310 C  
HETATM   32  H   UNL     1      -9.604   6.254  65.822  1.00  0.00     0.000 HD 
HETATM   33  O   UNL     1      -9.373   7.027  66.324  1.00  0.00    -0.163 OA 
ENDBRANCH  25  31
ENDBRANCH  22  24
ENDBRANCH  20  22
ENDBRANCH  18  20
ENDBRANCH  17  18
ENDBRANCH  15  17
ENDBRANCH  13  15
ENDBRANCH  11  13
ENDBRANCH   5  11
ENDBRANCH   2   4
TORSDOF 10
ENDMDL
MODEL      209
REMARK 921   NORMALIZED FREE ENERGY PREDICTED BY IDOCK:   -4.73 KCAL/MOL
REMARK 922        TOTAL FREE ENERGY PREDICTED BY IDOCK:   -9.50 KCAL/MOL
REMARK 923 INTER-LIGAND FREE ENERGY PREDICTED BY IDOCK:   -7.94 KCAL/MOL
REMARK 924 INTRA-LIGAND FREE ENERGY PREDICTED BY IDOCK:   -1.55 KCAL/MOL
REMARK 927      BINDING AFFINITY PREDICTED BY RF-SCORE:    0.00 PKD
ROOT
HETATM    1  O   UNL     1     -10.588   6.811  74.323  1.00  0.00    -0.426 OA 
HETATM    2  C   UNL     1     -10.877   5.893  73.296  1.00  0.00    -0.261 C  
HETATM    3  H   UNL     1     -10.687   6.377  75.161  1.00  0.00     0.000 HD 
ENDROOT
BRANCH   2   4
HETATM    4  N   UNL     1     -10.728   6.548  72.030  1.00  0.00    -0.217 N  
HETATM    5  C   UNL     1     -11.759   6.433  71.019  1.00  0.00    -0.296 C  
HETATM    6  O   UNL     1      -8.404   6.513  72.054  1.00  0.00    -0.108 OA 
HETATM    7  C   UNL     1     -10.868   6.295  69.763  1.00  0.00    -0.336 C  
HETATM    8  N   UNL     1      -9.590   6.599  70.115  1.00  0.00    -0.161 NA 
HETATM    9  O   UNL     1     -11.219   6.037  68.622  1.00  0.00    -0.307 OA 
HETATM   10  C   UNL     1      -9.468   6.588  71.461  1.00  0.00    -0.157 C  
BRANCH   5  11
HETATM   11  N   UNL     1     -12.541   7.642  70.932  1.00  0.00    -0.537 N  
HETATM   12  H   UNL     1     -12.225   8.402  70.331  1.00  0.00     0.000 HD 
BRANCH  11  13
HETATM   13  C   UNL     1     -13.698   7.781  71.642  1.00  0.00    -0.364 C  
HETATM   14  O   UNL     1     -14.387   6.839  72.009  1.00  0.00    -0.274 OA 
BRANCH  13  15
HETATM   15  N   UNL     1     -13.957   9.087  71.967  1.00  0.00    -0.420 N  
HETATM   16  H   UNL     1     -14.902   9.372  72.221  1.00  0.00     0.000 HD 
BRANCH  15  17
HETATM   17  C   UNL     1     -12.897  10.052  71.948  1.00  0.00    -0.426 C  
BRANCH  17  18
HETATM   18  N   UNL     1     -12.940  10.882  70.773  1.00  0.00    -0.282 N  
HETATM   19  H   UNL     1     -13.339  10.526  69.905  1.00  0.00     0.000 HD 
BRANCH  18  20
HETATM   20  C   UNL     1     -12.440  12.157  70.832  1.00  0.00    -0.279 C  
HETATM   21  O   UNL     1     -12.842  13.011  71.610  1.00  0.00    -0.338 OA 
BRANCH  20  22
HETATM   22  N   UNL     1     -11.427  12.367  69.927  1.00  0.00    -0.513 N  
HETATM   23  H   UNL     1     -10.518  12.733  70.210  1.00  0.00     0.000 HD 
BRANCH  22  24
HETATM   24  C   UNL     1     -11.721  12.040  68.558  1.00  0.00    -0.332 C  
HETATM   25  N   UNL     1     -11.038  12.816  67.552  1.00  0.00    -0.252 N  
HETATM   26  O   UNL     1     -11.190   9.614  68.769  1.00  0.00    -0.105 OA 
HETATM   27  C   UNL     1     -10.707  12.038  66.461  1.00  0.00    -0.258 C  
HETATM   28  N   UNL     1     -10.874  10.735  66.796  1.00  0.00    -0.230 NA 
HETATM   29  O   UNL     1     -10.288  12.434  65.387  1.00  0.00    -0.266 OA 
HETATM   30  C   UNL     1     -11.238  10.639  68.107  1.00  0.00    -0.302 C  
BRANCH  25  31
HETATM   31  C   UNL     1     -10.982  14.243  67.556  1.00  0.00    -0.289 C  
HETATM   32  H   UNL     1      -9.658  15.591  67.968  1.00  0.00     0.000 HD 
HETATM   33  O   UNL     1      -9.696  14.641  67.965  1.00  0.00    -0.208 OA 
ENDBRANCH  25  31
ENDBRANCH  22  24
ENDBRANCH  20  22
ENDBRANCH  18  20
ENDBRANCH  17  18
ENDBRANCH  15  17
ENDBRANCH  13  15
ENDBRANCH  11  13
ENDBRANCH   5  11
ENDBRANCH   2   4
TORSDOF 10
ENDMDL
MODEL      210
REMARK 921   NORMALIZED FREE ENERGY PREDICTED BY IDOCK:   -4.73 KCAL/MOL
REMARK 922        TOTAL FREE ENERGY PREDICTED BY IDOCK:   -9.49 KCAL/MOL
REMARK 923 INTER-LIGAND FREE ENERGY PREDICTED BY IDOCK:   -8.53 KCAL/MOL
REMARK 924 INTRA-LIGAND FREE ENERGY PREDICTED BY IDOCK:   -0.96 KCAL/MOL
REMARK 927      BINDING AFFINITY PREDICTED BY RF-SCORE:    0.00 PKD
ROOT
HETATM    1  O   UNL     1     -12.569   6.695  70.567  1.00  0.00    -0.442 OA 
HETATM    2  C   UNL     1     -12.968   7.709  71.457  1.00  0.00    -0.341 C  
HETATM    3  H   UNL     1     -13.317   6.144  70.371  1.00  0.00     0.000 HD 
ENDROOT
BRANCH   2   4
HETATM    4  N   UNL     1     -11.839   8.541  71.752  1.00  0.00    -0.308 N  
HETATM    5  C   UNL     1     -11.272   9.399  70.732  1.00  0.00    -0.302 C  
HETATM    6  O   UNL     1     -11.002   7.160  73.425  1.00  0.00    -0.332 OA 
HETATM    7  C   UNL     1      -9.771   9.210  71.047  1.00  0.00    -0.289 C  
HETATM    8  N   UNL     1      -9.666   8.574  72.245  1.00  0.00    -0.305 NA 
HETATM    9  O   UNL     1      -8.814   9.612  70.402  1.00  0.00    -0.235 OA 
HETATM   10  C   UNL     1     -10.857   8.035  72.586  1.00  0.00    -0.368 C  
BRANCH   5  11
HETATM   11  N   UNL     1     -11.645  10.775  70.942  1.00  0.00    -0.343 N  
HETATM   12  H   UNL     1     -11.755  11.127  71.893  1.00  0.00     0.000 HD 
BRANCH  11  13
HETATM   13  C   UNL     1     -11.853  11.615  69.886  1.00  0.00    -0.358 C  
HETATM   14  O   UNL     1     -12.290  11.249  68.803  1.00  0.00    -0.518 OA 
BRANCH  13  15
HETATM   15  N   UNL     1     -11.596  12.923  70.201  1.00  0.00    -0.535 N  
HETATM   16  H   UNL     1     -11.639  13.232  71.172  1.00  0.00     0.000 HD 
BRANCH  15  17
HETATM   17  C   UNL     1     -11.267  13.856  69.165  1.00  0.00    -0.269 C  
BRANCH  17  18
HETATM   18  N   UNL     1     -10.241  14.781  69.572  1.00  0.00    -0.394 N  
HETATM   19  H   UNL     1      -9.527  14.495  70.242  1.00  0.00     0.000 HD 
BRANCH  18  20
HETATM   20  C   UNL     1     -10.232  16.048  69.051  1.00  0.00    -0.236 C  
HETATM   21  O   UNL     1     -10.652  17.032  69.645  1.00  0.00    -0.281 OA 
BRANCH  20  22
HETATM   22  N   UNL     1      -9.685  16.095  67.790  1.00  0.00    -0.228 N  
HETATM   23  H   UNL     1     -10.065  15.548  67.017  1.00  0.00     0.000 HD 
BRANCH  22  24
HETATM   24  C   UNL     1      -8.549  16.959  67.623  1.00  0.00    -0.208 C  
HETATM   25  N   UNL     1      -7.290  16.315  67.338  1.00  0.00    -0.147 N  
HETATM   26  O   UNL     1      -9.590  18.392  65.869  1.00  0.00    -0.499 OA 
HETATM   27  C   UNL     1      -6.535  17.063  66.456  1.00  0.00    -0.204 C  
HETATM   28  N   UNL     1      -7.329  18.022  65.918  1.00  0.00    -0.494 NA 
HETATM   29  O   UNL     1      -5.367  16.878  66.161  1.00  0.00    -0.325 OA 
HETATM   30  C   UNL     1      -8.606  17.873  66.374  1.00  0.00    -0.227 C  
BRANCH  25  31
HETATM   31  C   UNL     1      -6.774  15.217  68.091  1.00  0.00    -0.132 C  
HETATM   32  H   UNL     1      -6.488  13.328  67.794  1.00  0.00     0.000 HD 
HETATM   33  O   UNL     1      -6.831  14.059  67.293  1.00  0.00    -0.214 OA 
ENDBRANCH  25  31
ENDBRANCH  22  24
ENDBRANCH  20  22
ENDBRANCH  18  20
ENDBRANCH  17  18
ENDBRANCH  15  17
ENDBRANCH  13  15
ENDBRANCH  11  13
ENDBRANCH   5  11
ENDBRANCH   2   4
TORSDOF 10
ENDMDL
MODEL      211
REMARK 921   NORMALIZED FREE ENERGY PREDICTED BY IDOCK:   -4.73 KCAL/MOL
REMARK 922        TOTAL FREE ENERGY PREDICTED BY IDOCK:   -9.49 KCAL/MOL
REMARK 923 INTER-LIGAND FREE ENERGY PREDICTED BY IDOCK:   -7.80 KCAL/MOL
REMARK 924 INTRA-LIGAND FREE ENERGY PREDICTED BY IDOCK:   -1.69 KCAL/MOL
REMARK 927      BINDING AFFINITY PREDICTED BY RF-SCORE:    0.00 PKD
ROOT
HETATM    1  O   UNL     1      -9.546  13.068  68.110  1.00  0.00    -0.218 OA 
HETATM    2  C   UNL     1      -9.440  13.529  66.785  1.00  0.00    -0.269 C  
HETATM    3  H   UNL     1      -8.751  13.289  68.579  1.00  0.00     0.000 HD 
ENDROOT
BRANCH   2   4
HETATM    4  N   UNL     1     -10.641  13.195  66.078  1.00  0.00    -0.277 N  
HETATM    5  C   UNL     1     -10.589  12.818  64.680  1.00  0.00    -0.349 C  
HETATM    6  O   UNL     1     -12.029  14.508  67.401  1.00  0.00    -0.394 OA 
HETATM    7  C   UNL     1     -11.853  13.549  64.173  1.00  0.00    -0.437 C  
HETATM    8  N   UNL     1     -12.561  13.971  65.256  1.00  0.00    -0.591 NA 
HETATM    9  O   UNL     1     -12.228  13.681  63.018  1.00  0.00    -0.559 OA 
HETATM   10  C   UNL     1     -11.787  13.915  66.362  1.00  0.00    -0.411 C  
BRANCH   5  11
HETATM   11  N   UNL     1     -10.750  11.395  64.517  1.00  0.00    -0.326 N  
HETATM   12  H   UNL     1     -11.631  11.026  64.159  1.00  0.00     0.000 HD 
BRANCH  11  13
HETATM   13  C   UNL     1      -9.740  10.533  64.835  1.00  0.00    -0.300 C  
HETATM   14  O   UNL     1      -8.580  10.684  64.475  1.00  0.00    -0.172 OA 
BRANCH  13  15
HETATM   15  N   UNL     1     -10.155   9.528  65.667  1.00  0.00    -0.341 N  
HETATM   16  H   UNL     1     -10.784   8.804  65.320  1.00  0.00     0.000 HD 
BRANCH  15  17
HETATM   17  C   UNL     1      -9.704   9.494  67.027  1.00  0.00    -0.176 C  
BRANCH  17  18
HETATM   18  N   UNL     1      -9.432   8.154  67.476  1.00  0.00    -0.149 N  
HETATM   19  H   UNL     1      -8.488   7.771  67.410  1.00  0.00     0.000 HD 
BRANCH  18  20
HETATM   20  C   UNL     1     -10.450   7.396  67.993  1.00  0.00    -0.199 C  
HETATM   21  O   UNL     1     -10.883   6.383  67.460  1.00  0.00    -0.276 OA 
BRANCH  20  22
HETATM   22  N   UNL     1     -10.923   7.894  69.184  1.00  0.00    -0.428 N  
HETATM   23  H   UNL     1     -11.393   8.797  69.242  1.00  0.00     0.000 HD 
BRANCH  22  24
HETATM   24  C   UNL     1     -10.718   7.067  70.343  1.00  0.00    -0.234 C  
HETATM   25  N   UNL     1      -9.874   7.612  71.377  1.00  0.00    -0.173 N  
HETATM   26  O   UNL     1     -13.139   6.722  70.825  1.00  0.00    -0.084 OA 
HETATM   27  C   UNL     1     -10.330   7.258  72.631  1.00  0.00    -0.225 C  
HETATM   28  N   UNL     1     -11.582   6.752  72.505  1.00  0.00    -0.236 NA 
HETATM   29  O   UNL     1      -9.743   7.413  73.688  1.00  0.00    -0.256 OA 
HETATM   30  C   UNL     1     -11.983   6.833  71.204  1.00  0.00    -0.370 C  
BRANCH  25  31
HETATM   31  C   UNL     1      -8.585   8.178  71.131  1.00  0.00    -0.133 C  
HETATM   32  H   UNL     1      -7.900   9.820  70.374  1.00  0.00     0.000 HD 
HETATM   33  O   UNL     1      -8.756   9.443  70.538  1.00  0.00    -0.215 OA 
ENDBRANCH  25  31
ENDBRANCH  22  24
ENDBRANCH  20  22
ENDBRANCH  18  20
ENDBRANCH  17  18
ENDBRANCH  15  17
ENDBRANCH  13  15
ENDBRANCH  11  13
ENDBRANCH   5  11
ENDBRANCH   2   4
TORSDOF 10
ENDMDL
MODEL      212
REMARK 921   NORMALIZED FREE ENERGY PREDICTED BY IDOCK:   -4.72 KCAL/MOL
REMARK 922        TOTAL FREE ENERGY PREDICTED BY IDOCK:   -9.48 KCAL/MOL
REMARK 923 INTER-LIGAND FREE ENERGY PREDICTED BY IDOCK:   -7.97 KCAL/MOL
REMARK 924 INTRA-LIGAND FREE ENERGY PREDICTED BY IDOCK:   -1.52 KCAL/MOL
REMARK 927      BINDING AFFINITY PREDICTED BY RF-SCORE:    0.00 PKD
ROOT
HETATM    1  O   UNL     1     -10.829  16.062  70.405  1.00  0.00    -0.323 OA 
HETATM    2  C   UNL     1     -11.795  15.893  69.396  1.00  0.00    -0.316 C  
HETATM    3  H   UNL     1     -11.192  15.768  71.232  1.00  0.00     0.000 HD 
ENDROOT
BRANCH   2   4
HETATM    4  N   UNL     1     -11.248  16.337  68.149  1.00  0.00    -0.333 N  
HETATM    5  C   UNL     1     -10.732  15.380  67.191  1.00  0.00    -0.314 C  
HETATM    6  O   UNL     1     -10.593  18.421  68.944  1.00  0.00    -0.097 OA 
HETATM    7  C   UNL     1      -9.485  16.155  66.706  1.00  0.00    -0.238 C  
HETATM    8  N   UNL     1      -9.573  17.432  67.167  1.00  0.00    -0.258 NA 
HETATM    9  O   UNL     1      -8.593  15.753  65.974  1.00  0.00    -0.277 OA 
HETATM   10  C   UNL     1     -10.508  17.506  68.140  1.00  0.00    -0.386 C  
BRANCH   5  11
HETATM   11  N   UNL     1     -11.648  15.195  66.093  1.00  0.00    -0.165 N  
HETATM   12  H   UNL     1     -12.621  14.957  66.285  1.00  0.00     0.000 HD 
BRANCH  11  13
HETATM   13  C   UNL     1     -11.231  15.333  64.801  1.00  0.00    -0.396 C  
HETATM   14  O   UNL     1     -11.385  16.353  64.143  1.00  0.00    -0.941 OA 
BRANCH  13  15
HETATM   15  N   UNL     1     -10.551  14.232  64.351  1.00  0.00    -0.564 N  
HETATM   16  H   UNL     1      -9.539  14.270  64.235  1.00  0.00     0.000 HD 
BRANCH  15  17
HETATM   17  C   UNL     1     -11.264  13.028  64.044  1.00  0.00    -0.405 C  
BRANCH  17  18
HETATM   18  N   UNL     1     -10.778  11.901  64.797  1.00  0.00    -0.294 N  
HETATM   19  H   UNL     1     -10.109  11.253  64.380  1.00  0.00     0.000 HD 
BRANCH  18  20
HETATM   20  C   UNL     1     -11.220  11.706  66.079  1.00  0.00    -0.240 C  
HETATM   21  O   UNL     1     -12.166  12.305  66.572  1.00  0.00    -0.588 OA 
BRANCH  20  22
HETATM   22  N   UNL     1     -10.490  10.752  66.748  1.00  0.00    -0.243 N  
HETATM   23  H   UNL     1     -10.608   9.756  66.565  1.00  0.00     0.000 HD 
BRANCH  22  24
HETATM   24  C   UNL     1      -9.550  11.240  67.722  1.00  0.00    -0.174 C  
HETATM   25  N   UNL     1      -9.445  10.484  68.946  1.00  0.00    -0.185 N  
HETATM   26  O   UNL     1      -7.600  11.292  66.171  1.00  0.00    -0.088 OA 
HETATM   27  C   UNL     1      -8.143  10.451  69.402  1.00  0.00    -0.155 C  
HETATM   28  N   UNL     1      -7.330  10.896  68.411  1.00  0.00    -0.089 NA 
HETATM   29  O   UNL     1      -7.763  10.049  70.488  1.00  0.00    -0.264 OA 
HETATM   30  C   UNL     1      -8.066  11.152  67.292  1.00  0.00    -0.137 C  
BRANCH  25  31
HETATM   31  C   UNL     1     -10.571  10.086  69.729  1.00  0.00    -0.267 C  
HETATM   32  H   UNL     1     -11.448   8.421  70.175  1.00  0.00     0.000 HD 
HETATM   33  O   UNL     1     -10.699   8.687  69.654  1.00  0.00    -0.229 OA 
ENDBRANCH  25  31
ENDBRANCH  22  24
ENDBRANCH  20  22
ENDBRANCH  18  20
ENDBRANCH  17  18
ENDBRANCH  15  17
ENDBRANCH  13  15
ENDBRANCH  11  13
ENDBRANCH   5  11
ENDBRANCH   2   4
TORSDOF 10
ENDMDL
MODEL      213
REMARK 921   NORMALIZED FREE ENERGY PREDICTED BY IDOCK:   -4.72 KCAL/MOL
REMARK 922        TOTAL FREE ENERGY PREDICTED BY IDOCK:   -9.48 KCAL/MOL
REMARK 923 INTER-LIGAND FREE ENERGY PREDICTED BY IDOCK:   -7.79 KCAL/MOL
REMARK 924 INTRA-LIGAND FREE ENERGY PREDICTED BY IDOCK:   -1.69 KCAL/MOL
REMARK 927      BINDING AFFINITY PREDICTED BY RF-SCORE:    0.00 PKD
ROOT
HETATM    1  O   UNL     1      -7.152   8.055  69.142  1.00  0.00    -0.065 OA 
HETATM    2  C   UNL     1      -7.672   9.303  68.750  1.00  0.00    -0.083 C  
HETATM    3  H   UNL     1      -6.223   8.149  69.315  1.00  0.00     0.000 HD 
ENDROOT
BRANCH   2   4
HETATM    4  N   UNL     1      -9.074   9.162  68.489  1.00  0.00    -0.133 N  
HETATM    5  C   UNL     1      -9.740  10.049  67.557  1.00  0.00    -0.159 C  
HETATM    6  O   UNL     1      -9.576   8.241  70.564  1.00  0.00    -0.165 OA 
HETATM    7  C   UNL     1     -11.067  10.267  68.318  1.00  0.00    -0.254 C  
HETATM    8  N   UNL     1     -11.125   9.365  69.335  1.00  0.00    -0.140 NA 
HETATM    9  O   UNL     1     -11.967  11.047  68.044  1.00  0.00    -0.623 OA 
HETATM   10  C   UNL     1      -9.903   8.829  69.545  1.00  0.00    -0.180 C  
BRANCH   5  11
HETATM   11  N   UNL     1     -10.000   9.387  66.303  1.00  0.00    -0.280 N  
HETATM   12  H   UNL     1     -10.393   8.446  66.303  1.00  0.00     0.000 HD 
BRANCH  11  13
HETATM   13  C   UNL     1      -9.728  10.002  65.115  1.00  0.00    -0.311 C  
HETATM   14  O   UNL     1      -8.811   9.675  64.375  1.00  0.00    -0.203 OA 
BRANCH  13  15
HETATM   15  N   UNL     1     -10.645  10.973  64.808  1.00  0.00    -0.308 N  
HETATM   16  H   UNL     1     -11.615  10.870  65.105  1.00  0.00     0.000 HD 
BRANCH  15  17
HETATM   17  C   UNL     1     -10.240  12.132  64.070  1.00  0.00    -0.370 C  
BRANCH  17  18
HETATM   18  N   UNL     1     -10.637  13.355  64.716  1.00  0.00    -0.383 N  
HETATM   19  H   UNL     1     -10.049  14.186  64.651  1.00  0.00     0.000 HD 
BRANCH  18  20
HETATM   20  C   UNL     1     -11.812  13.393  65.420  1.00  0.00    -0.353 C  
HETATM   21  O   UNL     1     -12.660  12.511  65.380  1.00  0.00    -0.656 OA 
BRANCH  20  22
HETATM   22  N   UNL     1     -11.930  14.529  66.186  1.00  0.00    -0.350 N  
HETATM   23  H   UNL     1     -12.701  15.185  66.063  1.00  0.00     0.000 HD 
BRANCH  22  24
HETATM   24  C   UNL     1     -10.904  14.738  67.171  1.00  0.00    -0.311 C  
HETATM   25  N   UNL     1     -10.269  16.033  67.171  1.00  0.00    -0.272 N  
HETATM   26  O   UNL     1     -12.307  14.088  69.126  1.00  0.00    -0.313 OA 
HETATM   27  C   UNL     1      -9.976  16.446  68.455  1.00  0.00    -0.238 C  
HETATM   28  N   UNL     1     -10.631  15.637  69.325  1.00  0.00    -0.221 NA 
HETATM   29  O   UNL     1      -9.290  17.402  68.772  1.00  0.00    -0.277 OA 
HETATM   30  C   UNL     1     -11.403  14.748  68.637  1.00  0.00    -0.285 C  
BRANCH  25  31
HETATM   31  C   UNL     1      -9.747  16.658  65.997  1.00  0.00    -0.278 C  
HETATM   32  H   UNL     1     -10.464  17.670  64.514  1.00  0.00     0.000 HD 
HETATM   33  O   UNL     1     -10.811  17.254  65.294  1.00  0.00    -0.576 OA 
ENDBRANCH  25  31
ENDBRANCH  22  24
ENDBRANCH  20  22
ENDBRANCH  18  20
ENDBRANCH  17  18
ENDBRANCH  15  17
ENDBRANCH  13  15
ENDBRANCH  11  13
ENDBRANCH   5  11
ENDBRANCH   2   4
TORSDOF 10
ENDMDL
MODEL      214
REMARK 921   NORMALIZED FREE ENERGY PREDICTED BY IDOCK:   -4.71 KCAL/MOL
REMARK 922        TOTAL FREE ENERGY PREDICTED BY IDOCK:   -9.46 KCAL/MOL
REMARK 923 INTER-LIGAND FREE ENERGY PREDICTED BY IDOCK:   -8.30 KCAL/MOL
REMARK 924 INTRA-LIGAND FREE ENERGY PREDICTED BY IDOCK:   -1.16 KCAL/MOL
REMARK 927      BINDING AFFINITY PREDICTED BY RF-SCORE:    0.00 PKD
ROOT
HETATM    1  O   UNL     1     -12.438   7.031  70.670  1.00  0.00    -0.588 OA 
HETATM    2  C   UNL     1     -12.657   8.253  71.332  1.00  0.00    -0.275 C  
HETATM    3  H   UNL     1     -13.266   6.575  70.580  1.00  0.00     0.000 HD 
ENDROOT
BRANCH   2   4
HETATM    4  N   UNL     1     -11.408   8.939  71.469  1.00  0.00    -0.298 N  
HETATM    5  C   UNL     1     -10.757   9.518  70.312  1.00  0.00    -0.265 C  
HETATM    6  O   UNL     1     -10.725   7.746  73.344  1.00  0.00    -0.348 OA 
HETATM    7  C   UNL     1      -9.290   9.158  70.639  1.00  0.00    -0.258 C  
HETATM    8  N   UNL     1      -9.237   8.722  71.927  1.00  0.00    -0.314 NA 
HETATM    9  O   UNL     1      -8.308   9.296  69.924  1.00  0.00    -0.125 OA 
HETATM   10  C   UNL     1     -10.482   8.436  72.367  1.00  0.00    -0.332 C  
BRANCH   5  11
HETATM   11  N   UNL     1     -10.913  10.952  70.288  1.00  0.00    -0.456 N  
HETATM   12  H   UNL     1     -10.687  11.496  71.120  1.00  0.00     0.000 HD 
BRANCH  11  13
HETATM   13  C   UNL     1     -11.359  11.590  69.168  1.00  0.00    -0.286 C  
HETATM   14  O   UNL     1     -12.240  11.151  68.441  1.00  0.00    -0.610 OA 
BRANCH  13  15
HETATM   15  N   UNL     1     -10.768  12.814  68.994  1.00  0.00    -0.415 N  
HETATM   16  H   UNL     1     -11.246  13.660  69.305  1.00  0.00     0.000 HD 
BRANCH  15  17
HETATM   17  C   UNL     1      -9.479  12.904  68.375  1.00  0.00    -0.162 C  
BRANCH  17  18
HETATM   18  N   UNL     1      -8.726  14.034  68.850  1.00  0.00    -0.367 N  
HETATM   19  H   UNL     1      -8.432  14.084  69.826  1.00  0.00     0.000 HD 
BRANCH  18  20
HETATM   20  C   UNL     1      -8.406  15.044  67.981  1.00  0.00    -0.148 C  
HETATM   21  O   UNL     1      -8.437  14.930  66.763  1.00  0.00    -0.235 OA 
BRANCH  20  22
HETATM   22  N   UNL     1      -8.057  16.205  68.629  1.00  0.00    -0.191 N  
HETATM   23  H   UNL     1      -7.231  16.263  69.225  1.00  0.00     0.000 HD 
BRANCH  22  24
HETATM   24  C   UNL     1      -8.922  17.334  68.419  1.00  0.00    -0.269 C  
HETATM   25  N   UNL     1      -8.734  18.067  67.191  1.00  0.00    -0.239 N  
HETATM   26  O   UNL     1     -11.047  16.075  68.753  1.00  0.00    -0.296 OA 
HETATM   27  C   UNL     1      -9.939  18.511  66.685  1.00  0.00    -0.372 C  
HETATM   28  N   UNL     1     -10.941  17.880  67.346  1.00  0.00    -0.196 NA 
HETATM   29  O   UNL     1     -10.096  19.299  65.768  1.00  0.00    -0.459 OA 
HETATM   30  C   UNL     1     -10.417  16.978  68.225  1.00  0.00    -0.363 C  
BRANCH  25  31
HETATM   31  C   UNL     1      -7.462  18.523  66.729  1.00  0.00    -0.222 C  
HETATM   32  H   UNL     1      -5.741  18.909  67.522  1.00  0.00     0.000 HD 
HETATM   33  O   UNL     1      -6.587  18.605  67.829  1.00  0.00    -0.207 OA 
ENDBRANCH  25  31
ENDBRANCH  22  24
ENDBRANCH  20  22
ENDBRANCH  18  20
ENDBRANCH  17  18
ENDBRANCH  15  17
ENDBRANCH  13  15
ENDBRANCH  11  13
ENDBRANCH   5  11
ENDBRANCH   2   4
TORSDOF 10
ENDMDL
MODEL      215
REMARK 921   NORMALIZED FREE ENERGY PREDICTED BY IDOCK:   -4.70 KCAL/MOL
REMARK 922        TOTAL FREE ENERGY PREDICTED BY IDOCK:   -9.45 KCAL/MOL
REMARK 923 INTER-LIGAND FREE ENERGY PREDICTED BY IDOCK:   -7.55 KCAL/MOL
REMARK 924 INTRA-LIGAND FREE ENERGY PREDICTED BY IDOCK:   -1.90 KCAL/MOL
REMARK 927      BINDING AFFINITY PREDICTED BY RF-SCORE:    0.00 PKD
ROOT
HETATM    1  O   UNL     1      -9.995  12.436  64.261  1.00  0.00    -0.482 OA 
HETATM    2  C   UNL     1      -9.727  11.309  63.462  1.00  0.00    -0.336 C  
HETATM    3  H   UNL     1     -10.083  13.198  63.701  1.00  0.00     0.000 HD 
ENDROOT
BRANCH   2   4
HETATM    4  N   UNL     1      -9.593  10.161  64.307  1.00  0.00    -0.304 N  
HETATM    5  C   UNL     1      -9.385  10.318  65.733  1.00  0.00    -0.186 C  
HETATM    6  O   UNL     1      -8.747   8.779  62.641  1.00  0.00    -0.190 OA 
HETATM    7  C   UNL     1      -8.356   9.189  65.965  1.00  0.00    -0.121 C  
HETATM    8  N   UNL     1      -8.311   8.419  64.844  1.00  0.00    -0.162 NA 
HETATM    9  O   UNL     1      -7.727   8.947  66.985  1.00  0.00    -0.096 OA 
HETATM   10  C   UNL     1      -8.903   9.067  63.817  1.00  0.00     0.011 C  
BRANCH   5  11
HETATM   11  N   UNL     1     -10.592  10.036  66.470  1.00  0.00    -0.143 N  
HETATM   12  H   UNL     1     -11.358   9.543  66.012  1.00  0.00     0.000 HD 
BRANCH  11  13
HETATM   13  C   UNL     1     -10.724  10.421  67.773  1.00  0.00    -0.279 C  
HETATM   14  O   UNL     1     -10.830   9.636  68.705  1.00  0.00    -0.219 OA 
BRANCH  13  15
HETATM   15  N   UNL     1     -10.643  11.780  67.926  1.00  0.00    -0.195 N  
HETATM   16  H   UNL     1      -9.818  12.282  67.599  1.00  0.00     0.000 HD 
BRANCH  15  17
HETATM   17  C   UNL     1     -11.718  12.494  68.549  1.00  0.00    -0.324 C  
BRANCH  17  18
HETATM   18  N   UNL     1     -12.121  13.645  67.783  1.00  0.00    -0.361 N  
HETATM   19  H   UNL     1     -12.626  14.410  68.231  1.00  0.00     0.000 HD 
BRANCH  18  20
HETATM   20  C   UNL     1     -11.820  13.704  66.448  1.00  0.00    -0.398 C  
HETATM   21  O   UNL     1     -12.376  13.026  65.594  1.00  0.00    -0.448 OA 
BRANCH  20  22
HETATM   22  N   UNL     1     -10.832  14.619  66.171  1.00  0.00    -0.314 N  
HETATM   23  H   UNL     1      -9.878  14.333  65.952  1.00  0.00     0.000 HD 
BRANCH  22  24
HETATM   24  C   UNL     1     -11.221  16.003  66.208  1.00  0.00     0.159 C  
HETATM   25  N   UNL     1     -10.307  16.908  66.861  1.00  0.00    -0.311 N  
HETATM   26  O   UNL     1     -11.578  16.221  63.751  1.00  0.00    -0.952 OA 
HETATM   27  C   UNL     1     -10.270  18.129  66.219  1.00  0.00    -0.395 C  
HETATM   28  N   UNL     1     -10.885  18.000  65.017  1.00  0.00    -0.583 NA 
HETATM   29  O   UNL     1      -9.737  19.148  66.624  1.00  0.00    -0.311 OA 
HETATM   30  C   UNL     1     -11.261  16.703  64.828  1.00  0.00    -0.066 C  
BRANCH  25  31
HETATM   31  C   UNL     1      -9.753  16.675  68.157  1.00  0.00    -0.244 C  
HETATM   32  H   UNL     1     -10.309  16.957  69.988  1.00  0.00     0.000 HD 
HETATM   33  O   UNL     1     -10.677  17.111  69.125  1.00  0.00    -0.301 OA 
ENDBRANCH  25  31
ENDBRANCH  22  24
ENDBRANCH  20  22
ENDBRANCH  18  20
ENDBRANCH  17  18
ENDBRANCH  15  17
ENDBRANCH  13  15
ENDBRANCH  11  13
ENDBRANCH   5  11
ENDBRANCH   2   4
TORSDOF 10
ENDMDL
MODEL      216
REMARK 921   NORMALIZED FREE ENERGY PREDICTED BY IDOCK:   -4.70 KCAL/MOL
REMARK 922        TOTAL FREE ENERGY PREDICTED BY IDOCK:   -9.45 KCAL/MOL
REMARK 923 INTER-LIGAND FREE ENERGY PREDICTED BY IDOCK:   -7.67 KCAL/MOL
REMARK 924 INTRA-LIGAND FREE ENERGY PREDICTED BY IDOCK:   -1.78 KCAL/MOL
REMARK 927      BINDING AFFINITY PREDICTED BY RF-SCORE:    0.00 PKD
ROOT
HETATM    1  O   UNL     1      -8.828  19.912  68.825  1.00  0.00    -0.207 OA 
HETATM    2  C   UNL     1      -8.116  20.146  67.634  1.00  0.00    -0.298 C  
HETATM    3  H   UNL     1      -8.870  20.719  69.324  1.00  0.00     0.000 HD 
ENDROOT
BRANCH   2   4
HETATM    4  N   UNL     1      -8.052  18.928  66.883  1.00  0.00    -0.258 N  
HETATM    5  C   UNL     1      -8.017  17.648  67.561  1.00  0.00    -0.203 C  
HETATM    6  O   UNL     1      -6.980  19.875  65.050  1.00  0.00    -0.339 OA 
HETATM    7  C   UNL     1      -6.992  16.915  66.666  1.00  0.00    -0.246 C  
HETATM    8  N   UNL     1      -6.796  17.663  65.546  1.00  0.00    -0.254 NA 
HETATM    9  O   UNL     1      -6.481  15.822  66.854  1.00  0.00    -0.278 OA 
HETATM   10  C   UNL     1      -7.280  18.910  65.734  1.00  0.00    -0.211 C  
BRANCH   5  11
HETATM   11  N   UNL     1      -9.294  16.983  67.485  1.00  0.00    -0.231 N  
HETATM   12  H   UNL     1      -9.497  16.211  68.120  1.00  0.00     0.000 HD 
BRANCH  11  13
HETATM   13  C   UNL     1     -10.234  17.371  66.575  1.00  0.00    -0.329 C  
HETATM   14  O   UNL     1     -10.831  18.438  66.628  1.00  0.00    -0.271 OA 
BRANCH  13  15
HETATM   15  N   UNL     1     -10.376  16.469  65.554  1.00  0.00    -0.323 N  
HETATM   16  H   UNL     1      -9.581  16.250  64.953  1.00  0.00     0.000 HD 
BRANCH  15  17
HETATM   17  C   UNL     1     -11.641  15.835  65.330  1.00  0.00     0.150 C  
BRANCH  17  18
HETATM   18  N   UNL     1     -11.687  15.146  64.067  1.00  0.00    -0.829 N  
HETATM   19  H   UNL     1     -11.716  15.673  63.194  1.00  0.00     0.000 HD 
BRANCH  18  20
HETATM   20  C   UNL     1     -11.693  13.776  64.047  1.00  0.00    -0.328 C  
HETATM   21  O   UNL     1     -12.700  13.101  63.880  1.00  0.00    -0.667 OA 
BRANCH  20  22
HETATM   22  N   UNL     1     -10.438  13.242  64.223  1.00  0.00    -0.522 N  
HETATM   23  H   UNL     1      -9.651  13.510  63.634  1.00  0.00     0.000 HD 
BRANCH  22  24
HETATM   24  C   UNL     1     -10.300  12.284  65.286  1.00  0.00    -0.281 C  
HETATM   25  N   UNL     1      -9.513  11.111  64.995  1.00  0.00    -0.225 N  
HETATM   26  O   UNL     1      -9.452  13.912  66.972  1.00  0.00    -0.236 OA 
HETATM   27  C   UNL     1      -8.781  10.715  66.096  1.00  0.00    -0.170 C  
HETATM   28  N   UNL     1      -8.813  11.713  67.014  1.00  0.00    -0.171 NA 
HETATM   29  O   UNL     1      -8.163   9.671  66.221  1.00  0.00    -0.114 OA 
HETATM   30  C   UNL     1      -9.492  12.782  66.509  1.00  0.00    -0.253 C  
BRANCH  25  31
HETATM   31  C   UNL     1      -9.697  10.303  63.831  1.00  0.00    -0.261 C  
HETATM   32  H   UNL     1      -9.431  10.511  61.927  1.00  0.00     0.000 HD 
HETATM   33  O   UNL     1      -9.308  11.048  62.702  1.00  0.00    -0.311 OA 
ENDBRANCH  25  31
ENDBRANCH  22  24
ENDBRANCH  20  22
ENDBRANCH  18  20
ENDBRANCH  17  18
ENDBRANCH  15  17
ENDBRANCH  13  15
ENDBRANCH  11  13
ENDBRANCH   5  11
ENDBRANCH   2   4
TORSDOF 10
ENDMDL
MODEL      217
REMARK 921   NORMALIZED FREE ENERGY PREDICTED BY IDOCK:   -4.70 KCAL/MOL
REMARK 922        TOTAL FREE ENERGY PREDICTED BY IDOCK:   -9.44 KCAL/MOL
REMARK 923 INTER-LIGAND FREE ENERGY PREDICTED BY IDOCK:   -7.68 KCAL/MOL
REMARK 924 INTRA-LIGAND FREE ENERGY PREDICTED BY IDOCK:   -1.76 KCAL/MOL
REMARK 927      BINDING AFFINITY PREDICTED BY RF-SCORE:    0.00 PKD
ROOT
HETATM    1  O   UNL     1      -7.801   7.886  65.510  1.00  0.00    -0.098 OA 
HETATM    2  C   UNL     1      -9.043   8.545  65.572  1.00  0.00    -0.091 C  
HETATM    3  H   UNL     1      -7.832   7.116  66.066  1.00  0.00     0.000 HD 
ENDROOT
BRANCH   2   4
HETATM    4  N   UNL     1      -8.996   9.706  64.734  1.00  0.00    -0.212 N  
HETATM    5  C   UNL     1      -9.781  10.879  65.060  1.00  0.00    -0.267 C  
HETATM    6  O   UNL     1      -8.469   8.537  62.795  1.00  0.00    -0.182 OA 
HETATM    7  C   UNL     1     -10.243  11.278  63.640  1.00  0.00    -0.392 C  
HETATM    8  N   UNL     1      -9.524  10.551  62.741  1.00  0.00    -0.316 NA 
HETATM    9  O   UNL     1     -11.051  12.141  63.330  1.00  0.00    -0.431 OA 
HETATM   10  C   UNL     1      -8.915   9.520  63.365  1.00  0.00    -0.176 C  
BRANCH   5  11
HETATM   11  N   UNL     1      -8.955  11.922  65.615  1.00  0.00    -0.413 N  
HETATM   12  H   UNL     1      -8.452  12.551  64.990  1.00  0.00     0.000 HD 
BRANCH  11  13
HETATM   13  C   UNL     1      -8.837  12.079  66.966  1.00  0.00    -0.197 C  
HETATM   14  O   UNL     1      -8.303  13.046  67.493  1.00  0.00    -0.161 OA 
BRANCH  13  15
HETATM   15  N   UNL     1      -9.453  11.075  67.664  1.00  0.00    -0.163 N  
HETATM   16  H   UNL     1      -9.141  10.110  67.552  1.00  0.00     0.000 HD 
BRANCH  15  17
HETATM   17  C   UNL     1     -10.536  11.380  68.550  1.00  0.00    -0.198 C  
BRANCH  17  18
HETATM   18  N   UNL     1     -10.533  12.760  68.958  1.00  0.00    -0.434 N  
HETATM   19  H   UNL     1      -9.664  13.295  68.957  1.00  0.00     0.000 HD 
BRANCH  18  20
HETATM   20  C   UNL     1     -11.706  13.351  69.347  1.00  0.00    -0.325 C  
HETATM   21  O   UNL     1     -12.409  12.934  70.258  1.00  0.00    -0.299 OA 
BRANCH  20  22
HETATM   22  N   UNL     1     -12.001  14.472  68.608  1.00  0.00    -0.498 N  
HETATM   23  H   UNL     1     -12.961  14.723  68.369  1.00  0.00     0.000 HD 
BRANCH  22  24
HETATM   24  C   UNL     1     -10.881  15.271  68.192  1.00  0.00    -0.273 C  
HETATM   25  N   UNL     1     -10.968  15.865  66.881  1.00  0.00    -0.236 N  
HETATM   26  O   UNL     1     -10.892  16.762  70.189  1.00  0.00    -0.257 OA 
HETATM   27  C   UNL     1     -10.397  17.121  66.863  1.00  0.00    -0.308 C  
HETATM   28  N   UNL     1     -10.189  17.517  68.144  1.00  0.00    -0.338 NA 
HETATM   29  O   UNL     1     -10.158  17.797  65.877  1.00  0.00    -0.526 OA 
HETATM   30  C   UNL     1     -10.678  16.575  69.001  1.00  0.00    -0.332 C  
BRANCH  25  31
HETATM   31  C   UNL     1     -11.321  15.136  65.704  1.00  0.00    -0.255 C  
HETATM   32  H   UNL     1     -11.474  13.275  65.204  1.00  0.00     0.000 HD 
HETATM   33  O   UNL     1     -11.240  13.760  65.986  1.00  0.00    -0.301 OA 
ENDBRANCH  25  31
ENDBRANCH  22  24
ENDBRANCH  20  22
ENDBRANCH  18  20
ENDBRANCH  17  18
ENDBRANCH  15  17
ENDBRANCH  13  15
ENDBRANCH  11  13
ENDBRANCH   5  11
ENDBRANCH   2   4
TORSDOF 10
ENDMDL
MODEL      218
REMARK 921   NORMALIZED FREE ENERGY PREDICTED BY IDOCK:   -4.69 KCAL/MOL
REMARK 922        TOTAL FREE ENERGY PREDICTED BY IDOCK:   -9.43 KCAL/MOL
REMARK 923 INTER-LIGAND FREE ENERGY PREDICTED BY IDOCK:   -7.24 KCAL/MOL
REMARK 924 INTRA-LIGAND FREE ENERGY PREDICTED BY IDOCK:   -2.19 KCAL/MOL
REMARK 927      BINDING AFFINITY PREDICTED BY RF-SCORE:    0.00 PKD
ROOT
HETATM    1  O   UNL     1     -11.065  11.179  62.876  1.00  0.00    -0.812 OA 
HETATM    2  C   UNL     1     -10.155  12.184  63.253  1.00  0.00    -0.259 C  
HETATM    3  H   UNL     1     -10.690  10.674  62.165  1.00  0.00     0.000 HD 
ENDROOT
BRANCH   2   4
HETATM    4  N   UNL     1     -10.722  12.948  64.324  1.00  0.00    -0.383 N  
HETATM    5  C   UNL     1     -10.474  12.575  65.702  1.00  0.00    -0.273 C  
HETATM    6  O   UNL     1     -12.555  13.687  63.100  1.00  0.00    -0.792 OA 
HETATM    7  C   UNL     1     -11.878  12.840  66.293  1.00  0.00    -0.423 C  
HETATM    8  N   UNL     1     -12.605  13.524  65.369  1.00  0.00    -0.536 NA 
HETATM    9  O   UNL     1     -12.281  12.569  67.415  1.00  0.00    -0.430 OA 
HETATM   10  C   UNL     1     -12.002  13.450  64.162  1.00  0.00    -0.450 C  
BRANCH   5  11
HETATM   11  N   UNL     1      -9.513  13.458  66.316  1.00  0.00    -0.420 N  
HETATM   12  H   UNL     1      -9.288  14.346  65.869  1.00  0.00     0.000 HD 
BRANCH  11  13
HETATM   13  C   UNL     1      -8.899  13.120  67.487  1.00  0.00    -0.199 C  
HETATM   14  O   UNL     1      -8.664  13.917  68.385  1.00  0.00    -0.178 OA 
BRANCH  13  15
HETATM   15  N   UNL     1      -8.649  11.776  67.577  1.00  0.00    -0.150 N  
HETATM   16  H   UNL     1      -9.415  11.125  67.748  1.00  0.00     0.000 HD 
BRANCH  15  17
HETATM   17  C   UNL     1      -7.311  11.286  67.430  1.00  0.00    -0.115 C  
BRANCH  17  18
HETATM   18  N   UNL     1      -6.780  10.777  68.667  1.00  0.00    -0.056 N  
HETATM   19  H   UNL     1      -5.852  11.059  68.984  1.00  0.00     0.000 HD 
BRANCH  18  20
HETATM   20  C   UNL     1      -7.531   9.910  69.416  1.00  0.00    -0.108 C  
HETATM   21  O   UNL     1      -8.074  10.214  70.470  1.00  0.00    -0.117 OA 
BRANCH  20  22
HETATM   22  N   UNL     1      -7.618   8.661  68.846  1.00  0.00    -0.090 N  
HETATM   23  H   UNL     1      -6.900   8.305  68.216  1.00  0.00     0.000 HD 
BRANCH  22  24
HETATM   24  C   UNL     1      -8.779   7.887  69.190  1.00  0.00    -0.138 C  
HETATM   25  N   UNL     1      -9.646   7.513  68.099  1.00  0.00    -0.146 N  
HETATM   26  O   UNL     1      -7.531   6.100  70.399  1.00  0.00    -0.085 OA 
HETATM   27  C   UNL     1     -10.170   6.250  68.288  1.00  0.00    -0.169 C  
HETATM   28  N   UNL     1      -9.485   5.647  69.292  1.00  0.00    -0.127 NA 
HETATM   29  O   UNL     1     -11.062   5.728  67.641  1.00  0.00    -0.171 OA 
HETATM   30  C   UNL     1      -8.477   6.463  69.717  1.00  0.00    -0.127 C  
BRANCH  25  31
HETATM   31  C   UNL     1     -10.129   8.434  67.121  1.00  0.00    -0.265 C  
HETATM   32  H   UNL     1     -10.853  10.227  67.123  1.00  0.00     0.000 HD 
HETATM   33  O   UNL     1     -10.532   9.614  67.774  1.00  0.00    -0.223 OA 
ENDBRANCH  25  31
ENDBRANCH  22  24
ENDBRANCH  20  22
ENDBRANCH  18  20
ENDBRANCH  17  18
ENDBRANCH  15  17
ENDBRANCH  13  15
ENDBRANCH  11  13
ENDBRANCH   5  11
ENDBRANCH   2   4
TORSDOF 10
ENDMDL
MODEL      219
REMARK 921   NORMALIZED FREE ENERGY PREDICTED BY IDOCK:   -4.69 KCAL/MOL
REMARK 922        TOTAL FREE ENERGY PREDICTED BY IDOCK:   -9.43 KCAL/MOL
REMARK 923 INTER-LIGAND FREE ENERGY PREDICTED BY IDOCK:   -8.39 KCAL/MOL
REMARK 924 INTRA-LIGAND FREE ENERGY PREDICTED BY IDOCK:   -1.04 KCAL/MOL
REMARK 927      BINDING AFFINITY PREDICTED BY RF-SCORE:    0.00 PKD
ROOT
HETATM    1  O   UNL     1      -8.535  11.784  68.427  1.00  0.00    -0.155 OA 
HETATM    2  C   UNL     1      -9.349  12.789  67.872  1.00  0.00    -0.208 C  
HETATM    3  H   UNL     1      -7.631  11.956  68.194  1.00  0.00     0.000 HD 
ENDROOT
BRANCH   2   4
HETATM    4  N   UNL     1     -10.714  12.530  68.223  1.00  0.00    -0.220 N  
HETATM    5  C   UNL     1     -11.297  13.139  69.401  1.00  0.00    -0.213 C  
HETATM    6  O   UNL     1     -10.789  10.435  67.218  1.00  0.00    -0.276 OA 
HETATM    7  C   UNL     1     -12.133  11.945  69.916  1.00  0.00    -0.272 C  
HETATM    8  N   UNL     1     -12.162  10.997  68.942  1.00  0.00    -0.502 NA 
HETATM    9  O   UNL     1     -12.741  11.858  70.973  1.00  0.00    -0.342 OA 
HETATM   10  C   UNL     1     -11.208  11.254  68.020  1.00  0.00    -0.287 C  
BRANCH   5  11
HETATM   11  N   UNL     1     -12.171  14.229  69.046  1.00  0.00    -0.533 N  
HETATM   12  H   UNL     1     -12.807  14.127  68.255  1.00  0.00     0.000 HD 
BRANCH  11  13
HETATM   13  C   UNL     1     -12.159  15.397  69.753  1.00  0.00    -0.347 C  
HETATM   14  O   UNL     1     -12.669  15.527  70.858  1.00  0.00    -0.424 OA 
BRANCH  13  15
HETATM   15  N   UNL     1     -11.444  16.381  69.123  1.00  0.00    -0.249 N  
HETATM   16  H   UNL     1     -11.320  17.288  69.573  1.00  0.00     0.000 HD 
BRANCH  15  17
HETATM   17  C   UNL     1     -10.871  16.135  67.833  1.00  0.00    -0.332 C  
BRANCH  17  18
HETATM   18  N   UNL     1     -10.889  17.307  66.998  1.00  0.00    -0.132 N  
HETATM   19  H   UNL     1     -11.732  17.878  66.931  1.00  0.00     0.000 HD 
BRANCH  18  20
HETATM   20  C   UNL     1      -9.765  17.649  66.294  1.00  0.00    -0.263 C  
HETATM   21  O   UNL     1      -8.924  16.843  65.919  1.00  0.00    -0.509 OA 
BRANCH  20  22
HETATM   22  N   UNL     1      -9.692  18.999  66.044  1.00  0.00    -0.272 N  
HETATM   23  H   UNL     1     -10.343  19.467  65.413  1.00  0.00     0.000 HD 
BRANCH  22  24
HETATM   24  C   UNL     1      -8.644  19.714  66.721  1.00  0.00    -0.320 C  
HETATM   25  N   UNL     1      -8.481  19.432  68.126  1.00  0.00    -0.322 N  
HETATM   26  O   UNL     1      -6.835  19.047  65.143  1.00  0.00    -0.483 OA 
HETATM   27  C   UNL     1      -7.148  19.449  68.487  1.00  0.00    -0.315 C  
HETATM   28  N   UNL     1      -6.398  19.443  67.356  1.00  0.00    -0.191 NA 
HETATM   29  O   UNL     1      -6.702  19.423  69.620  1.00  0.00    -0.300 OA 
HETATM   30  C   UNL     1      -7.210  19.351  66.265  1.00  0.00    -0.254 C  
BRANCH  25  31
HETATM   31  C   UNL     1      -9.557  19.436  69.065  1.00  0.00    -0.370 C  
HETATM   32  H   UNL     1     -11.353  20.150  69.132  1.00  0.00     0.000 HD 
HETATM   33  O   UNL     1     -10.636  20.147  68.508  1.00  0.00    -0.303 OA 
ENDBRANCH  25  31
ENDBRANCH  22  24
ENDBRANCH  20  22
ENDBRANCH  18  20
ENDBRANCH  17  18
ENDBRANCH  15  17
ENDBRANCH  13  15
ENDBRANCH  11  13
ENDBRANCH   5  11
ENDBRANCH   2   4
TORSDOF 10
ENDMDL
MODEL      220
REMARK 921   NORMALIZED FREE ENERGY PREDICTED BY IDOCK:   -4.68 KCAL/MOL
REMARK 922        TOTAL FREE ENERGY PREDICTED BY IDOCK:   -9.42 KCAL/MOL
REMARK 923 INTER-LIGAND FREE ENERGY PREDICTED BY IDOCK:   -8.07 KCAL/MOL
REMARK 924 INTRA-LIGAND FREE ENERGY PREDICTED BY IDOCK:   -1.35 KCAL/MOL
REMARK 927      BINDING AFFINITY PREDICTED BY RF-SCORE:    0.00 PKD
ROOT
HETATM    1  O   UNL     1      -9.608  13.276  68.904  1.00  0.00    -0.408 OA 
HETATM    2  C   UNL     1     -10.462  13.972  68.027  1.00  0.00    -0.241 C  
HETATM    3  H   UNL     1      -9.171  13.901  69.470  1.00  0.00     0.000 HD 
ENDROOT
BRANCH   2   4
HETATM    4  N   UNL     1     -11.121  13.030  67.173  1.00  0.00    -0.265 N  
HETATM    5  C   UNL     1     -10.702  11.643  67.150  1.00  0.00    -0.247 C  
HETATM    6  O   UNL     1     -11.763  14.605  65.590  1.00  0.00    -0.347 OA 
HETATM    7  C   UNL     1     -10.819  11.368  65.633  1.00  0.00    -0.218 C  
HETATM    8  N   UNL     1     -11.485  12.410  65.064  1.00  0.00    -0.322 NA 
HETATM    9  O   UNL     1     -10.460  10.372  65.023  1.00  0.00    -0.262 OA 
HETATM   10  C   UNL     1     -11.521  13.455  65.919  1.00  0.00    -0.321 C  
BRANCH   5  11
HETATM   11  N   UNL     1     -11.631  10.806  67.869  1.00  0.00    -0.358 N  
HETATM   12  H   UNL     1     -12.431  10.407  67.380  1.00  0.00     0.000 HD 
BRANCH  11  13
HETATM   13  C   UNL     1     -11.452  10.541  69.196  1.00  0.00    -0.247 C  
HETATM   14  O   UNL     1     -10.358  10.353  69.710  1.00  0.00    -0.240 OA 
BRANCH  13  15
HETATM   15  N   UNL     1     -12.627  10.588  69.900  1.00  0.00    -0.535 N  
HETATM   16  H   UNL     1     -13.503  10.784  69.417  1.00  0.00     0.000 HD 
BRANCH  15  17
HETATM   17  C   UNL     1     -12.622  10.365  71.315  1.00  0.00    -0.419 C  
BRANCH  17  18
HETATM   18  N   UNL     1     -13.633   9.424  71.720  1.00  0.00    -0.394 N  
HETATM   19  H   UNL     1     -14.483   9.748  72.181  1.00  0.00     0.000 HD 
BRANCH  18  20
HETATM   20  C   UNL     1     -13.444   8.088  71.481  1.00  0.00    -0.289 C  
HETATM   21  O   UNL     1     -14.297   7.233  71.679  1.00  0.00    -0.437 OA 
BRANCH  20  22
HETATM   22  N   UNL     1     -12.192   7.814  70.982  1.00  0.00    -0.455 N  
HETATM   23  H   UNL     1     -11.719   8.448  70.337  1.00  0.00     0.000 HD 
BRANCH  22  24
HETATM   24  C   UNL     1     -11.588   6.586  71.421  1.00  0.00    -0.318 C  
HETATM   25  N   UNL     1     -10.591   6.014  70.549  1.00  0.00    -0.246 N  
HETATM   26  O   UNL     1     -10.884   7.444  73.652  1.00  0.00    -0.346 OA 
HETATM   27  C   UNL     1      -9.572   5.429  71.273  1.00  0.00    -0.157 C  
HETATM   28  N   UNL     1      -9.683   5.823  72.566  1.00  0.00    -0.158 NA 
HETATM   29  O   UNL     1      -8.684   4.718  70.835  1.00  0.00    -0.107 OA 
HETATM   30  C   UNL     1     -10.712   6.710  72.691  1.00  0.00    -0.235 C  
BRANCH  25  31
HETATM   31  C   UNL     1     -10.784   5.817  69.147  1.00  0.00    -0.300 C  
HETATM   32  H   UNL     1     -10.987   6.945  67.590  1.00  0.00     0.000 HD 
HETATM   33  O   UNL     1     -10.858   7.076  68.523  1.00  0.00    -0.198 OA 
ENDBRANCH  25  31
ENDBRANCH  22  24
ENDBRANCH  20  22
ENDBRANCH  18  20
ENDBRANCH  17  18
ENDBRANCH  15  17
ENDBRANCH  13  15
ENDBRANCH  11  13
ENDBRANCH   5  11
ENDBRANCH   2   4
TORSDOF 10
ENDMDL
MODEL      221
REMARK 921   NORMALIZED FREE ENERGY PREDICTED BY IDOCK:   -4.68 KCAL/MOL
REMARK 922        TOTAL FREE ENERGY PREDICTED BY IDOCK:   -9.42 KCAL/MOL
REMARK 923 INTER-LIGAND FREE ENERGY PREDICTED BY IDOCK:   -7.50 KCAL/MOL
REMARK 924 INTRA-LIGAND FREE ENERGY PREDICTED BY IDOCK:   -1.91 KCAL/MOL
REMARK 927      BINDING AFFINITY PREDICTED BY RF-SCORE:    0.00 PKD
ROOT
HETATM    1  O   UNL     1     -12.307  14.005  67.887  1.00  0.00    -0.515 OA 
HETATM    2  C   UNL     1     -12.128  13.076  66.845  1.00  0.00    -0.285 C  
HETATM    3  H   UNL     1     -12.727  13.571  68.619  1.00  0.00     0.000 HD 
ENDROOT
BRANCH   2   4
HETATM    4  N   UNL     1     -11.494  13.732  65.740  1.00  0.00    -0.312 N  
HETATM    5  C   UNL     1     -10.829  15.006  65.926  1.00  0.00    -0.337 C  
HETATM    6  O   UNL     1     -12.876  12.791  64.125  1.00  0.00    -0.683 OA 
HETATM    7  C   UNL     1     -11.261  15.710  64.619  1.00  0.00    -0.369 C  
HETATM    8  N   UNL     1     -11.816  14.777  63.799  1.00  0.00    -0.138 NA 
HETATM    9  O   UNL     1     -11.086  16.878  64.305  1.00  0.00    -1.135 OA 
HETATM   10  C   UNL     1     -12.105  13.660  64.501  1.00  0.00    -0.419 C  
BRANCH   5  11
HETATM   11  N   UNL     1      -9.396  14.848  65.943  1.00  0.00    -0.487 N  
HETATM   12  H   UNL     1      -8.859  15.031  65.096  1.00  0.00     0.000 HD 
BRANCH  11  13
HETATM   13  C   UNL     1      -8.747  14.457  67.079  1.00  0.00    -0.223 C  
HETATM   14  O   UNL     1      -8.816  15.058  68.142  1.00  0.00    -0.161 OA 
BRANCH  13  15
HETATM   15  N   UNL     1      -8.078  13.273  66.915  1.00  0.00    -0.408 N  
HETATM   16  H   UNL     1      -8.539  12.484  66.462  1.00  0.00     0.000 HD 
BRANCH  15  17
HETATM   17  C   UNL     1      -6.730  13.143  67.383  1.00  0.00    -0.096 C  
BRANCH  17  18
HETATM   18  N   UNL     1      -6.327  11.767  67.506  1.00  0.00    -0.082 N  
HETATM   19  H   UNL     1      -5.664  11.487  68.230  1.00  0.00     0.000 HD 
BRANCH  18  20
HETATM   20  C   UNL     1      -6.841  10.835  66.644  1.00  0.00    -0.125 C  
HETATM   21  O   UNL     1      -6.908  10.991  65.432  1.00  0.00     0.089 OA 
BRANCH  20  22
HETATM   22  N   UNL     1      -7.265   9.697  67.290  1.00  0.00    -0.086 N  
HETATM   23  H   UNL     1      -6.779   8.806  67.187  1.00  0.00     0.000 HD 
BRANCH  22  24
HETATM   24  C   UNL     1      -8.430   9.835  68.120  1.00  0.00    -0.114 C  
HETATM   25  N   UNL     1      -9.383   8.754  68.072  1.00  0.00    -0.142 N  
HETATM   26  O   UNL     1      -7.175  10.238  70.236  1.00  0.00    -0.179 OA 
HETATM   27  C   UNL     1      -9.943   8.527  69.313  1.00  0.00    -0.195 C  
HETATM   28  N   UNL     1      -9.217   9.198  70.241  1.00  0.00    -0.199 NA 
HETATM   29  O   UNL     1     -10.897   7.809  69.560  1.00  0.00    -0.230 OA 
HETATM   30  C   UNL     1      -8.151   9.803  69.642  1.00  0.00    -0.154 C  
BRANCH  25  31
HETATM   31  C   UNL     1      -9.894   8.202  66.858  1.00  0.00    -0.247 C  
HETATM   32  H   UNL     1     -10.563   8.892  65.180  1.00  0.00     0.000 HD 
HETATM   33  O   UNL     1     -10.223   9.259  65.988  1.00  0.00    -0.269 OA 
ENDBRANCH  25  31
ENDBRANCH  22  24
ENDBRANCH  20  22
ENDBRANCH  18  20
ENDBRANCH  17  18
ENDBRANCH  15  17
ENDBRANCH  13  15
ENDBRANCH  11  13
ENDBRANCH   5  11
ENDBRANCH   2   4
TORSDOF 10
ENDMDL
MODEL      222
REMARK 921   NORMALIZED FREE ENERGY PREDICTED BY IDOCK:   -4.68 KCAL/MOL
REMARK 922        TOTAL FREE ENERGY PREDICTED BY IDOCK:   -9.41 KCAL/MOL
REMARK 923 INTER-LIGAND FREE ENERGY PREDICTED BY IDOCK:   -7.45 KCAL/MOL
REMARK 924 INTRA-LIGAND FREE ENERGY PREDICTED BY IDOCK:   -1.97 KCAL/MOL
REMARK 927      BINDING AFFINITY PREDICTED BY RF-SCORE:    0.00 PKD
ROOT
HETATM    1  O   UNL     1      -8.745   8.747  72.987  1.00  0.00    -0.368 OA 
HETATM    2  C   UNL     1      -7.990   7.734  72.367  1.00  0.00    -0.115 C  
HETATM    3  H   UNL     1      -8.154   9.397  73.347  1.00  0.00     0.000 HD 
ENDROOT
BRANCH   2   4
HETATM    4  N   UNL     1      -8.881   6.753  71.824  1.00  0.00    -0.129 N  
HETATM    5  C   UNL     1      -9.355   6.868  70.460  1.00  0.00    -0.159 C  
HETATM    6  O   UNL     1      -9.816   6.172  73.871  1.00  0.00    -0.168 OA 
HETATM    7  C   UNL     1     -10.823   6.426  70.663  1.00  0.00    -0.276 C  
HETATM    8  N   UNL     1     -10.937   5.896  71.911  1.00  0.00    -0.257 NA 
HETATM    9  O   UNL     1     -11.733   6.458  69.849  1.00  0.00    -0.426 OA 
HETATM   10  C   UNL     1      -9.858   6.230  72.653  1.00  0.00    -0.166 C  
BRANCH   5  11
HETATM   11  N   UNL     1      -8.681   5.933  69.594  1.00  0.00    -0.126 N  
HETATM   12  H   UNL     1      -8.136   5.173  70.000  1.00  0.00     0.000 HD 
BRANCH  11  13
HETATM   13  C   UNL     1      -8.762   6.051  68.236  1.00  0.00    -0.113 C  
HETATM   14  O   UNL     1      -8.512   5.139  67.459  1.00  0.00    -0.106 OA 
BRANCH  13  15
HETATM   15  N   UNL     1      -9.231   7.277  67.846  1.00  0.00    -0.131 N  
HETATM   16  H   UNL     1      -9.138   8.080  68.467  1.00  0.00     0.000 HD 
BRANCH  15  17
HETATM   17  C   UNL     1      -9.855   7.429  66.565  1.00  0.00    -0.139 C  
BRANCH  17  18
HETATM   18  N   UNL     1     -10.091   8.811  66.236  1.00  0.00    -0.397 N  
HETATM   19  H   UNL     1     -11.044   9.164  66.151  1.00  0.00     0.000 HD 
BRANCH  18  20
HETATM   20  C   UNL     1      -9.024   9.648  66.039  1.00  0.00    -0.162 C  
HETATM   21  O   UNL     1      -7.856   9.284  66.076  1.00  0.00    -0.100 OA 
BRANCH  20  22
HETATM   22  N   UNL     1      -9.411  10.942  65.782  1.00  0.00    -0.201 N  
HETATM   23  H   UNL     1      -8.805  11.736  65.987  1.00  0.00     0.000 HD 
BRANCH  22  24
HETATM   24  C   UNL     1     -10.718  11.111  65.209  1.00  0.00    -0.203 C  
HETATM   25  N   UNL     1     -11.553  12.126  65.804  1.00  0.00    -0.373 N  
HETATM   26  O   UNL     1      -9.918  11.434  62.871  1.00  0.00    -0.315 OA 
HETATM   27  C   UNL     1     -12.314  12.770  64.850  1.00  0.00    -0.490 C  
HETATM   28  N   UNL     1     -11.831  12.443  63.625  1.00  0.00    -0.483 NA 
HETATM   29  O   UNL     1     -13.234  13.543  65.053  1.00  0.00    -0.721 OA 
HETATM   30  C   UNL     1     -10.726  11.656  63.760  1.00  0.00    -0.419 C  
BRANCH  25  31
HETATM   31  C   UNL     1     -11.781  12.239  67.210  1.00  0.00    -0.324 C  
HETATM   32  H   UNL     1     -12.017  11.020  68.692  1.00  0.00     0.000 HD 
HETATM   33  O   UNL     1     -11.865  10.945  67.757  1.00  0.00    -0.579 OA 
ENDBRANCH  25  31
ENDBRANCH  22  24
ENDBRANCH  20  22
ENDBRANCH  18  20
ENDBRANCH  17  18
ENDBRANCH  15  17
ENDBRANCH  13  15
ENDBRANCH  11  13
ENDBRANCH   5  11
ENDBRANCH   2   4
TORSDOF 10
ENDMDL
MODEL      223
REMARK 921   NORMALIZED FREE ENERGY PREDICTED BY IDOCK:   -4.66 KCAL/MOL
REMARK 922        TOTAL FREE ENERGY PREDICTED BY IDOCK:   -9.38 KCAL/MOL
REMARK 923 INTER-LIGAND FREE ENERGY PREDICTED BY IDOCK:   -8.47 KCAL/MOL
REMARK 924 INTRA-LIGAND FREE ENERGY PREDICTED BY IDOCK:   -0.91 KCAL/MOL
REMARK 927      BINDING AFFINITY PREDICTED BY RF-SCORE:    0.00 PKD
ROOT
HETATM    1  O   UNL     1      -7.219  18.959  65.262  1.00  0.00    -0.471 OA 
HETATM    2  C   UNL     1      -7.020  18.209  66.436  1.00  0.00    -0.235 C  
HETATM    3  H   UNL     1      -6.579  18.693  64.613  1.00  0.00     0.000 HD 
ENDROOT
BRANCH   2   4
HETATM    4  N   UNL     1      -7.986  18.611  67.415  1.00  0.00    -0.235 N  
HETATM    5  C   UNL     1      -9.272  17.948  67.493  1.00  0.00    -0.249 C  
HETATM    6  O   UNL     1      -7.229  20.805  67.559  1.00  0.00    -0.331 OA 
HETATM    7  C   UNL     1     -10.173  19.173  67.767  1.00  0.00    -0.403 C  
HETATM    8  N   UNL     1      -9.371  20.231  68.066  1.00  0.00    -0.236 NA 
HETATM    9  O   UNL     1     -11.394  19.213  67.796  1.00  0.00    -0.059 OA 
HETATM   10  C   UNL     1      -8.098  19.960  67.705  1.00  0.00    -0.294 C  
BRANCH   5  11
HETATM   11  N   UNL     1      -9.324  17.044  68.615  1.00  0.00    -0.264 N  
HETATM   12  H   UNL     1      -8.605  17.094  69.336  1.00  0.00     0.000 HD 
BRANCH  11  13
HETATM   13  C   UNL     1     -10.324  16.122  68.727  1.00  0.00    -0.248 C  
HETATM   14  O   UNL     1     -11.345  16.302  69.377  1.00  0.00    -0.324 OA 
BRANCH  13  15
HETATM   15  N   UNL     1     -10.093  15.007  67.964  1.00  0.00    -0.222 N  
HETATM   16  H   UNL     1     -10.794  14.268  67.916  1.00  0.00     0.000 HD 
BRANCH  15  17
HETATM   17  C   UNL     1      -8.866  14.881  67.236  1.00  0.00    -0.201 C  
BRANCH  17  18
HETATM   18  N   UNL     1      -9.039  14.167  65.998  1.00  0.00    -0.486 N  
HETATM   19  H   UNL     1      -8.473  13.343  65.795  1.00  0.00     0.000 HD 
BRANCH  18  20
HETATM   20  C   UNL     1      -9.972  14.603  65.095  1.00  0.00    -0.240 C  
HETATM   21  O   UNL     1     -10.350  15.764  65.012  1.00  0.00    -0.468 OA 
BRANCH  20  22
HETATM   22  N   UNL     1     -10.428  13.593  64.280  1.00  0.00    -0.603 N  
HETATM   23  H   UNL     1     -10.214  13.567  63.284  1.00  0.00     0.000 HD 
BRANCH  22  24
HETATM   24  C   UNL     1     -11.224  12.578  64.915  1.00  0.00    -0.305 C  
HETATM   25  N   UNL     1     -10.504  11.541  65.612  1.00  0.00    -0.259 N  
HETATM   26  O   UNL     1     -12.629  14.159  66.233  1.00  0.00    -0.449 OA 
HETATM   27  C   UNL     1     -11.171  11.152  66.756  1.00  0.00    -0.143 C  
HETATM   28  N   UNL     1     -12.145  12.061  67.014  1.00  0.00    -0.545 NA 
HETATM   29  O   UNL     1     -10.913  10.188  67.456  1.00  0.00    -0.298 OA 
HETATM   30  C   UNL     1     -12.083  13.074  66.104  1.00  0.00    -0.409 C  
BRANCH  25  31
HETATM   31  C   UNL     1      -9.415  10.813  65.041  1.00  0.00    -0.241 C  
HETATM   32  H   UNL     1      -8.873  10.268  63.267  1.00  0.00     0.000 HD 
HETATM   33  O   UNL     1      -9.597  10.752  63.647  1.00  0.00    -0.248 OA 
ENDBRANCH  25  31
ENDBRANCH  22  24
ENDBRANCH  20  22
ENDBRANCH  18  20
ENDBRANCH  17  18
ENDBRANCH  15  17
ENDBRANCH  13  15
ENDBRANCH  11  13
ENDBRANCH   5  11
ENDBRANCH   2   4
TORSDOF 10
ENDMDL
MODEL      224
REMARK 921   NORMALIZED FREE ENERGY PREDICTED BY IDOCK:   -4.66 KCAL/MOL
REMARK 922        TOTAL FREE ENERGY PREDICTED BY IDOCK:   -9.37 KCAL/MOL
REMARK 923 INTER-LIGAND FREE ENERGY PREDICTED BY IDOCK:   -8.42 KCAL/MOL
REMARK 924 INTRA-LIGAND FREE ENERGY PREDICTED BY IDOCK:   -0.95 KCAL/MOL
REMARK 927      BINDING AFFINITY PREDICTED BY RF-SCORE:    0.00 PKD
ROOT
HETATM    1  O   UNL     1     -10.147  17.016  65.822  1.00  0.00    -0.516 OA 
HETATM    2  C   UNL     1      -9.406  15.901  66.252  1.00  0.00    -0.322 C  
HETATM    3  H   UNL     1      -9.573  17.772  65.783  1.00  0.00     0.000 HD 
ENDROOT
BRANCH   2   4
HETATM    4  N   UNL     1     -10.271  14.761  66.312  1.00  0.00    -0.286 N  
HETATM    5  C   UNL     1     -10.517  13.963  65.127  1.00  0.00    -0.393 C  
HETATM    6  O   UNL     1     -11.553  15.570  68.074  1.00  0.00    -0.342 OA 
HETATM    7  C   UNL     1     -12.026  13.688  65.316  1.00  0.00    -0.376 C  
HETATM    8  N   UNL     1     -12.372  14.066  66.577  1.00  0.00    -0.449 NA 
HETATM    9  O   UNL     1     -12.794  13.157  64.527  1.00  0.00    -0.680 OA 
HETATM   10  C   UNL     1     -11.400  14.840  67.108  1.00  0.00    -0.356 C  
BRANCH   5  11
HETATM   11  N   UNL     1      -9.786  12.722  65.174  1.00  0.00    -0.487 N  
HETATM   12  H   UNL     1      -9.356  12.359  64.324  1.00  0.00     0.000 HD 
BRANCH  11  13
HETATM   13  C   UNL     1      -9.661  12.025  66.341  1.00  0.00    -0.228 C  
HETATM   14  O   UNL     1      -8.986  12.403  67.289  1.00  0.00    -0.175 OA 
BRANCH  13  15
HETATM   15  N   UNL     1     -10.439  10.897  66.361  1.00  0.00    -0.255 N  
HETATM   16  H   UNL     1     -10.420  10.250  65.573  1.00  0.00     0.000 HD 
BRANCH  15  17
HETATM   17  C   UNL     1     -11.279  10.628  67.491  1.00  0.00    -0.253 C  
BRANCH  17  18
HETATM   18  N   UNL     1     -10.964   9.370  68.115  1.00  0.00    -0.484 N  
HETATM   19  H   UNL     1     -11.252   9.186  69.076  1.00  0.00     0.000 HD 
BRANCH  18  20
HETATM   20  C   UNL     1     -10.274   8.421  67.407  1.00  0.00    -0.260 C  
HETATM   21  O   UNL     1      -9.059   8.428  67.262  1.00  0.00    -0.134 OA 
BRANCH  20  22
HETATM   22  N   UNL     1     -11.098   7.451  66.886  1.00  0.00    -0.524 N  
HETATM   23  H   UNL     1     -11.727   7.640  66.106  1.00  0.00     0.000 HD 
BRANCH  22  24
HETATM   24  C   UNL     1     -11.023   6.155  67.505  1.00  0.00    -0.307 C  
HETATM   25  N   UNL     1      -9.825   5.393  67.250  1.00  0.00    -0.144 N  
HETATM   26  O   UNL     1     -11.461   6.966  69.820  1.00  0.00    -0.259 OA 
HETATM   27  C   UNL     1      -9.446   4.672  68.365  1.00  0.00    -0.145 C  
HETATM   28  N   UNL     1     -10.152   5.127  69.430  1.00  0.00    -0.225 NA 
HETATM   29  O   UNL     1      -8.589   3.806  68.414  1.00  0.00    -0.089 OA 
HETATM   30  C   UNL     1     -10.934   6.178  69.050  1.00  0.00    -0.367 C  
BRANCH  25  31
HETATM   31  C   UNL     1      -9.286   5.178  65.945  1.00  0.00    -0.158 C  
HETATM   32  H   UNL     1      -9.800   4.195  64.362  1.00  0.00     0.000 HD 
HETATM   33  O   UNL     1     -10.159   4.337  65.230  1.00  0.00    -0.207 OA 
ENDBRANCH  25  31
ENDBRANCH  22  24
ENDBRANCH  20  22
ENDBRANCH  18  20
ENDBRANCH  17  18
ENDBRANCH  15  17
ENDBRANCH  13  15
ENDBRANCH  11  13
ENDBRANCH   5  11
ENDBRANCH   2   4
TORSDOF 10
ENDMDL
MODEL      225
REMARK 921   NORMALIZED FREE ENERGY PREDICTED BY IDOCK:   -4.65 KCAL/MOL
REMARK 922        TOTAL FREE ENERGY PREDICTED BY IDOCK:   -9.36 KCAL/MOL
REMARK 923 INTER-LIGAND FREE ENERGY PREDICTED BY IDOCK:   -8.45 KCAL/MOL
REMARK 924 INTRA-LIGAND FREE ENERGY PREDICTED BY IDOCK:   -0.91 KCAL/MOL
REMARK 927      BINDING AFFINITY PREDICTED BY RF-SCORE:    0.00 PKD
ROOT
HETATM    1  O   UNL     1     -13.019  12.988  64.488  1.00  0.00    -0.707 OA 
HETATM    2  C   UNL     1     -12.538  14.102  65.202  1.00  0.00    -0.408 C  
HETATM    3  H   UNL     1     -13.653  13.284  63.846  1.00  0.00     0.000 HD 
ENDROOT
BRANCH   2   4
HETATM    4  N   UNL     1     -11.582  13.656  66.171  1.00  0.00    -0.334 N  
HETATM    5  C   UNL     1     -11.339  14.429  67.372  1.00  0.00    -0.337 C  
HETATM    6  O   UNL     1     -10.273  12.491  64.644  1.00  0.00    -0.302 OA 
HETATM    7  C   UNL     1      -9.804  14.273  67.468  1.00  0.00    -0.231 C  
HETATM    8  N   UNL     1      -9.420  13.309  66.587  1.00  0.00    -0.259 NA 
HETATM    9  O   UNL     1      -9.041  14.838  68.237  1.00  0.00    -0.171 OA 
HETATM   10  C   UNL     1     -10.420  13.060  65.714  1.00  0.00    -0.280 C  
BRANCH   5  11
HETATM   11  N   UNL     1     -11.963  13.820  68.519  1.00  0.00    -0.370 N  
HETATM   12  H   UNL     1     -12.498  14.398  69.167  1.00  0.00     0.000 HD 
BRANCH  11  13
HETATM   13  C   UNL     1     -11.850  12.479  68.751  1.00  0.00    -0.303 C  
HETATM   14  O   UNL     1     -11.978  11.627  67.883  1.00  0.00    -0.599 OA 
BRANCH  13  15
HETATM   15  N   UNL     1     -11.495  12.201  70.045  1.00  0.00    -0.526 N  
HETATM   16  H   UNL     1     -10.715  12.696  70.477  1.00  0.00     0.000 HD 
BRANCH  15  17
HETATM   17  C   UNL     1     -12.221  11.216  70.789  1.00  0.00    -0.385 C  
BRANCH  17  18
HETATM   18  N   UNL     1     -11.823   9.875  70.448  1.00  0.00    -0.376 N  
HETATM   19  H   UNL     1     -12.495   9.228  70.035  1.00  0.00     0.000 HD 
BRANCH  18  20
HETATM   20  C   UNL     1     -10.534   9.475  70.683  1.00  0.00    -0.308 C  
HETATM   21  O   UNL     1      -9.610   9.660  69.903  1.00  0.00    -0.201 OA 
BRANCH  20  22
HETATM   22  N   UNL     1     -10.390   8.854  71.902  1.00  0.00    -0.342 N  
HETATM   23  H   UNL     1     -10.545   9.348  72.780  1.00  0.00     0.000 HD 
BRANCH  22  24
HETATM   24  C   UNL     1     -10.008   7.468  71.866  1.00  0.00    -0.171 C  
HETATM   25  N   UNL     1      -9.476   6.918  73.088  1.00  0.00    -0.144 N  
HETATM   26  O   UNL     1     -12.202   6.634  71.028  1.00  0.00    -0.367 OA 
HETATM   27  C   UNL     1      -9.880   5.610  73.265  1.00  0.00    -0.168 C  
HETATM   28  N   UNL     1     -10.877   5.347  72.383  1.00  0.00    -0.234 NA 
HETATM   29  O   UNL     1      -9.461   4.826  74.098  1.00  0.00    -0.119 OA 
HETATM   30  C   UNL     1     -11.182   6.476  71.681  1.00  0.00    -0.270 C  
BRANCH  25  31
HETATM   31  C   UNL     1      -8.438   7.538  73.849  1.00  0.00    -0.206 C  
HETATM   32  H   UNL     1      -7.155   8.957  73.570  1.00  0.00     0.000 HD 
HETATM   33  O   UNL     1      -7.846   8.545  73.065  1.00  0.00    -0.336 OA 
ENDBRANCH  25  31
ENDBRANCH  22  24
ENDBRANCH  20  22
ENDBRANCH  18  20
ENDBRANCH  17  18
ENDBRANCH  15  17
ENDBRANCH  13  15
ENDBRANCH  11  13
ENDBRANCH   5  11
ENDBRANCH   2   4
TORSDOF 10
ENDMDL
MODEL      226
REMARK 921   NORMALIZED FREE ENERGY PREDICTED BY IDOCK:   -4.63 KCAL/MOL
REMARK 922        TOTAL FREE ENERGY PREDICTED BY IDOCK:   -9.33 KCAL/MOL
REMARK 923 INTER-LIGAND FREE ENERGY PREDICTED BY IDOCK:   -7.80 KCAL/MOL
REMARK 924 INTRA-LIGAND FREE ENERGY PREDICTED BY IDOCK:   -1.53 KCAL/MOL
REMARK 927      BINDING AFFINITY PREDICTED BY RF-SCORE:    0.00 PKD
ROOT
HETATM    1  O   UNL     1      -9.171  13.813  66.258  1.00  0.00    -0.454 OA 
HETATM    2  C   UNL     1      -8.835  12.446  66.287  1.00  0.00     0.027 C  
HETATM    3  H   UNL     1      -8.640  14.275  66.896  1.00  0.00     0.000 HD 
ENDROOT
BRANCH   2   4
HETATM    4  N   UNL     1      -9.636  11.749  65.326  1.00  0.00    -0.208 N  
HETATM    5  C   UNL     1      -9.233  10.445  64.842  1.00  0.00    -0.221 C  
HETATM    6  O   UNL     1     -10.542  13.672  64.384  1.00  0.00    -0.423 OA 
HETATM    7  C   UNL     1      -9.615  10.598  63.352  1.00  0.00    -0.332 C  
HETATM    8  N   UNL     1     -10.366  11.725  63.221  1.00  0.00    -0.417 NA 
HETATM    9  O   UNL     1      -9.371   9.829  62.434  1.00  0.00    -0.287 OA 
HETATM   10  C   UNL     1     -10.249  12.488  64.329  1.00  0.00    -0.333 C  
BRANCH   5  11
HETATM   11  N   UNL     1     -10.024   9.399  65.442  1.00  0.00    -0.407 N  
HETATM   12  H   UNL     1     -10.828   9.025  64.939  1.00  0.00     0.000 HD 
BRANCH  11  13
HETATM   13  C   UNL     1      -9.710   8.902  66.674  1.00  0.00    -0.237 C  
HETATM   14  O   UNL     1      -8.573   8.868  67.124  1.00  0.00    -0.110 OA 
BRANCH  13  15
HETATM   15  N   UNL     1     -10.820   8.522  67.381  1.00  0.00    -0.472 N  
HETATM   16  H   UNL     1     -11.704   8.364  66.898  1.00  0.00     0.000 HD 
BRANCH  15  17
HETATM   17  C   UNL     1     -10.739   8.348  68.801  1.00  0.00    -0.051 C  
BRANCH  17  18
HETATM   18  N   UNL     1     -10.403   9.572  69.480  1.00  0.00    -0.205 N  
HETATM   19  H   UNL     1      -9.446   9.927  69.459  1.00  0.00     0.000 HD 
BRANCH  18  20
HETATM   20  C   UNL     1     -11.379  10.257  70.155  1.00  0.00    -0.316 C  
HETATM   21  O   UNL     1     -12.397   9.739  70.593  1.00  0.00    -0.253 OA 
BRANCH  20  22
HETATM   22  N   UNL     1     -11.081  11.592  70.298  1.00  0.00    -0.315 N  
HETATM   23  H   UNL     1     -10.324  11.914  70.901  1.00  0.00     0.000 HD 
BRANCH  22  24
HETATM   24  C   UNL     1     -11.897  12.508  69.548  1.00  0.00    -0.310 C  
HETATM   25  N   UNL     1     -11.512  13.897  69.596  1.00  0.00    -0.263 N  
HETATM   26  O   UNL     1     -11.713  11.283  67.386  1.00  0.00    -0.580 OA 
HETATM   27  C   UNL     1     -11.724  14.516  68.380  1.00  0.00    -0.333 C  
HETATM   28  N   UNL     1     -11.960  13.559  67.447  1.00  0.00    -0.371 NA 
HETATM   29  O   UNL     1     -11.665  15.712  68.153  1.00  0.00    -0.331 OA 
HETATM   30  C   UNL     1     -11.836  12.324  68.012  1.00  0.00    -0.305 C  
BRANCH  25  31
HETATM   31  C   UNL     1     -11.236  14.601  70.807  1.00  0.00    -0.039 C  
HETATM   32  H   UNL     1     -11.942  14.619  72.607  1.00  0.00     0.000 HD 
HETATM   33  O   UNL     1     -12.125  14.151  71.801  1.00  0.00    -0.254 OA 
ENDBRANCH  25  31
ENDBRANCH  22  24
ENDBRANCH  20  22
ENDBRANCH  18  20
ENDBRANCH  17  18
ENDBRANCH  15  17
ENDBRANCH  13  15
ENDBRANCH  11  13
ENDBRANCH   5  11
ENDBRANCH   2   4
TORSDOF 10
ENDMDL
MODEL      227
REMARK 921   NORMALIZED FREE ENERGY PREDICTED BY IDOCK:   -4.62 KCAL/MOL
REMARK 922        TOTAL FREE ENERGY PREDICTED BY IDOCK:   -9.32 KCAL/MOL
REMARK 923 INTER-LIGAND FREE ENERGY PREDICTED BY IDOCK:   -8.07 KCAL/MOL
REMARK 924 INTRA-LIGAND FREE ENERGY PREDICTED BY IDOCK:   -1.24 KCAL/MOL
REMARK 927      BINDING AFFINITY PREDICTED BY RF-SCORE:    0.00 PKD
ROOT
HETATM    1  O   UNL     1      -7.424  19.159  68.960  1.00  0.00    -0.345 OA 
HETATM    2  C   UNL     1      -8.297  19.336  67.871  1.00  0.00    -0.303 C  
HETATM    3  H   UNL     1      -6.862  19.922  69.033  1.00  0.00     0.000 HD 
ENDROOT
BRANCH   2   4
HETATM    4  N   UNL     1      -9.143  18.186  67.761  1.00  0.00    -0.260 N  
HETATM    5  C   UNL     1      -8.582  16.852  67.826  1.00  0.00    -0.208 C  
HETATM    6  O   UNL     1     -10.770  19.250  66.486  1.00  0.00    -0.424 OA 
HETATM    7  C   UNL     1      -9.433  16.165  66.734  1.00  0.00    -0.238 C  
HETATM    8  N   UNL     1     -10.457  16.999  66.408  1.00  0.00    -0.289 NA 
HETATM    9  O   UNL     1      -9.293  15.042  66.272  1.00  0.00    -0.282 OA 
HETATM   10  C   UNL     1     -10.207  18.241  66.878  1.00  0.00    -0.375 C  
BRANCH   5  11
HETATM   11  N   UNL     1      -8.841  16.238  69.104  1.00  0.00    -0.244 N  
HETATM   12  H   UNL     1      -8.077  16.118  69.769  1.00  0.00     0.000 HD 
BRANCH  11  13
HETATM   13  C   UNL     1     -10.096  15.816  69.438  1.00  0.00    -0.268 C  
HETATM   14  O   UNL     1     -11.035  16.573  69.641  1.00  0.00    -0.325 OA 
BRANCH  13  15
HETATM   15  N   UNL     1     -10.203  14.450  69.440  1.00  0.00    -0.424 N  
HETATM   16  H   UNL     1      -9.405  13.875  69.170  1.00  0.00     0.000 HD 
BRANCH  15  17
HETATM   17  C   UNL     1     -11.438  13.831  69.821  1.00  0.00    -0.199 C  
BRANCH  17  18
HETATM   18  N   UNL     1     -11.890  12.875  68.844  1.00  0.00    -0.314 N  
HETATM   19  H   UNL     1     -12.472  13.174  68.062  1.00  0.00     0.000 HD 
BRANCH  18  20
HETATM   20  C   UNL     1     -11.531  11.559  68.974  1.00  0.00    -0.291 C  
HETATM   21  O   UNL     1     -11.199  11.044  70.034  1.00  0.00    -0.273 OA 
BRANCH  20  22
HETATM   22  N   UNL     1     -11.597  10.875  67.783  1.00  0.00    -0.273 N  
HETATM   23  H   UNL     1     -12.234  10.090  67.646  1.00  0.00     0.000 HD 
BRANCH  22  24
HETATM   24  C   UNL     1     -10.717  11.330  66.741  1.00  0.00    -0.275 C  
HETATM   25  N   UNL     1     -10.098  10.308  65.933  1.00  0.00    -0.256 N  
HETATM   26  O   UNL     1     -12.371  12.862  65.678  1.00  0.00    -0.459 OA 
HETATM   27  C   UNL     1      -9.987  10.710  64.617  1.00  0.00    -0.337 C  
HETATM   28  N   UNL     1     -10.749  11.819  64.442  1.00  0.00    -0.305 NA 
HETATM   29  O   UNL     1      -9.357  10.150  63.737  1.00  0.00    -0.262 OA 
HETATM   30  C   UNL     1     -11.413  12.109  65.598  1.00  0.00    -0.355 C  
BRANCH  25  31
HETATM   31  C   UNL     1      -9.424   9.171  66.475  1.00  0.00    -0.208 C  
HETATM   32  H   UNL     1      -9.939   7.517  67.335  1.00  0.00     0.000 HD 
HETATM   33  O   UNL     1     -10.387   8.274  66.974  1.00  0.00    -0.280 OA 
ENDBRANCH  25  31
ENDBRANCH  22  24
ENDBRANCH  20  22
ENDBRANCH  18  20
ENDBRANCH  17  18
ENDBRANCH  15  17
ENDBRANCH  13  15
ENDBRANCH  11  13
ENDBRANCH   5  11
ENDBRANCH   2   4
TORSDOF 10
ENDMDL
MODEL      228
REMARK 921   NORMALIZED FREE ENERGY PREDICTED BY IDOCK:   -4.61 KCAL/MOL
REMARK 922        TOTAL FREE ENERGY PREDICTED BY IDOCK:   -9.30 KCAL/MOL
REMARK 923 INTER-LIGAND FREE ENERGY PREDICTED BY IDOCK:   -8.12 KCAL/MOL
REMARK 924 INTRA-LIGAND FREE ENERGY PREDICTED BY IDOCK:   -1.19 KCAL/MOL
REMARK 927      BINDING AFFINITY PREDICTED BY RF-SCORE:    0.00 PKD
ROOT
HETATM    1  O   UNL     1     -12.219   7.991  73.120  1.00  0.00    -0.659 OA 
HETATM    2  C   UNL     1     -10.977   7.349  72.959  1.00  0.00    -0.374 C  
HETATM    3  H   UNL     1     -12.492   7.913  74.026  1.00  0.00     0.000 HD 
ENDROOT
BRANCH   2   4
HETATM    4  N   UNL     1     -10.566   7.466  71.592  1.00  0.00    -0.206 N  
HETATM    5  C   UNL     1     -11.546   7.434  70.525  1.00  0.00    -0.229 C  
HETATM    6  O   UNL     1      -8.448   6.574  71.939  1.00  0.00    -0.119 OA 
HETATM    7  C   UNL     1     -10.769   6.585  69.493  1.00  0.00    -0.270 C  
HETATM    8  N   UNL     1      -9.479   6.483  69.914  1.00  0.00    -0.155 NA 
HETATM    9  O   UNL     1     -11.180   6.131  68.436  1.00  0.00    -0.330 OA 
HETATM   10  C   UNL     1      -9.387   6.851  71.211  1.00  0.00    -0.164 C  
BRANCH   5  11
HETATM   11  N   UNL     1     -11.781   8.753  69.993  1.00  0.00    -0.431 N  
HETATM   12  H   UNL     1     -12.708   9.170  70.076  1.00  0.00     0.000 HD 
BRANCH  11  13
HETATM   13  C   UNL     1     -10.781   9.450  69.380  1.00  0.00    -0.217 C  
HETATM   14  O   UNL     1      -9.833   9.943  69.975  1.00  0.00    -0.241 OA 
BRANCH  13  15
HETATM   15  N   UNL     1     -10.917   9.467  68.016  1.00  0.00    -0.486 N  
HETATM   16  H   UNL     1     -11.207   8.624  67.522  1.00  0.00     0.000 HD 
BRANCH  15  17
HETATM   17  C   UNL     1     -10.651  10.671  67.286  1.00  0.00    -0.263 C  
BRANCH  17  18
HETATM   18  N   UNL     1     -11.780  11.564  67.281  1.00  0.00    -0.204 N  
HETATM   19  H   UNL     1     -12.694  11.241  67.599  1.00  0.00     0.000 HD 
BRANCH  18  20
HETATM   20  C   UNL     1     -11.617  12.852  66.844  1.00  0.00    -0.368 C  
HETATM   21  O   UNL     1     -12.207  13.325  65.882  1.00  0.00    -0.418 OA 
BRANCH  20  22
HETATM   22  N   UNL     1     -10.726  13.561  67.615  1.00  0.00    -0.246 N  
HETATM   23  H   UNL     1      -9.780  13.223  67.793  1.00  0.00     0.000 HD 
BRANCH  22  24
HETATM   24  C   UNL     1     -11.203  14.804  68.156  1.00  0.00    -0.294 C  
HETATM   25  N   UNL     1     -11.596  14.791  69.543  1.00  0.00    -0.286 N  
HETATM   26  O   UNL     1      -9.210  16.142  67.484  1.00  0.00    -0.206 OA 
HETATM   27  C   UNL     1     -11.261  15.975  70.168  1.00  0.00    -0.373 C  
HETATM   28  N   UNL     1     -10.418  16.664  69.359  1.00  0.00    -0.324 NA 
HETATM   29  O   UNL     1     -11.613  16.337  71.278  1.00  0.00    -0.437 OA 
HETATM   30  C   UNL     1     -10.137  15.923  68.249  1.00  0.00    -0.224 C  
BRANCH  25  31
HETATM   31  C   UNL     1     -12.473  13.815  70.109  1.00  0.00    -0.267 C  
HETATM   32  H   UNL     1     -12.375  11.936  70.554  1.00  0.00     0.000 HD 
HETATM   33  O   UNL     1     -11.792  12.586  70.178  1.00  0.00    -0.324 OA 
ENDBRANCH  25  31
ENDBRANCH  22  24
ENDBRANCH  20  22
ENDBRANCH  18  20
ENDBRANCH  17  18
ENDBRANCH  15  17
ENDBRANCH  13  15
ENDBRANCH  11  13
ENDBRANCH   5  11
ENDBRANCH   2   4
TORSDOF 10
ENDMDL
MODEL      229
REMARK 921   NORMALIZED FREE ENERGY PREDICTED BY IDOCK:   -4.61 KCAL/MOL
REMARK 922        TOTAL FREE ENERGY PREDICTED BY IDOCK:   -9.30 KCAL/MOL
REMARK 923 INTER-LIGAND FREE ENERGY PREDICTED BY IDOCK:   -8.14 KCAL/MOL
REMARK 924 INTRA-LIGAND FREE ENERGY PREDICTED BY IDOCK:   -1.15 KCAL/MOL
REMARK 927      BINDING AFFINITY PREDICTED BY RF-SCORE:    0.00 PKD
ROOT
HETATM    1  O   UNL     1      -7.775   9.122  67.470  1.00  0.00    -0.092 OA 
HETATM    2  C   UNL     1      -8.859   9.940  67.838  1.00  0.00    -0.129 C  
HETATM    3  H   UNL     1      -7.191   9.617  66.908  1.00  0.00     0.000 HD 
ENDROOT
BRANCH   2   4
HETATM    4  N   UNL     1      -9.740   9.192  68.685  1.00  0.00    -0.152 N  
HETATM    5  C   UNL     1      -9.405   8.967  70.076  1.00  0.00    -0.174 C  
HETATM    6  O   UNL     1     -10.652   7.925  66.963  1.00  0.00    -0.337 OA 
HETATM    7  C   UNL     1      -9.878   7.502  70.217  1.00  0.00    -0.183 C  
HETATM    8  N   UNL     1     -10.606   7.184  69.113  1.00  0.00    -0.214 NA 
HETATM    9  O   UNL     1      -9.715   6.751  71.168  1.00  0.00    -0.174 OA 
HETATM   10  C   UNL     1     -10.395   8.101  68.143  1.00  0.00    -0.201 C  
BRANCH   5  11
HETATM   11  N   UNL     1     -10.182   9.816  70.944  1.00  0.00    -0.338 N  
HETATM   12  H   UNL     1      -9.783  10.134  71.827  1.00  0.00     0.000 HD 
BRANCH  11  13
HETATM   13  C   UNL     1     -11.446  10.200  70.601  1.00  0.00    -0.349 C  
HETATM   14  O   UNL     1     -12.441   9.514  70.794  1.00  0.00    -0.237 OA 
BRANCH  13  15
HETATM   15  N   UNL     1     -11.485  11.471  70.091  1.00  0.00    -0.496 N  
HETATM   16  H   UNL     1     -11.039  12.237  70.595  1.00  0.00     0.000 HD 
BRANCH  15  17
HETATM   17  C   UNL     1     -12.152  11.723  68.848  1.00  0.00    -0.178 C  
BRANCH  17  18
HETATM   18  N   UNL     1     -11.956  13.073  68.390  1.00  0.00    -0.322 N  
HETATM   19  H   UNL     1     -11.836  13.832  69.061  1.00  0.00     0.000 HD 
BRANCH  18  20
HETATM   20  C   UNL     1     -11.932  13.331  67.044  1.00  0.00    -0.365 C  
HETATM   21  O   UNL     1     -12.164  12.491  66.185  1.00  0.00    -0.609 OA 
BRANCH  20  22
HETATM   22  N   UNL     1     -11.631  14.643  66.765  1.00  0.00    -0.371 N  
HETATM   23  H   UNL     1     -12.274  15.403  66.988  1.00  0.00     0.000 HD 
BRANCH  22  24
HETATM   24  C   UNL     1     -10.358  14.883  66.142  1.00  0.00    -0.301 C  
HETATM   25  N   UNL     1     -10.013  16.262  65.898  1.00  0.00    -0.332 N  
HETATM   26  O   UNL     1      -9.026  13.588  67.804  1.00  0.00    -0.180 OA 
HETATM   27  C   UNL     1      -8.664  16.481  66.089  1.00  0.00    -0.300 C  
HETATM   28  N   UNL     1      -8.139  15.400  66.719  1.00  0.00    -0.222 NA 
HETATM   29  O   UNL     1      -8.041  17.487  65.794  1.00  0.00    -0.551 OA 
HETATM   30  C   UNL     1      -9.130  14.509  67.008  1.00  0.00    -0.239 C  
BRANCH  25  31
HETATM   31  C   UNL     1     -10.886  17.195  65.258  1.00  0.00    -0.036 C  
HETATM   32  H   UNL     1     -12.116  17.165  63.767  1.00  0.00     0.000 HD 
HETATM   33  O   UNL     1     -11.536  16.544  64.193  1.00  0.00    -1.059 OA 
ENDBRANCH  25  31
ENDBRANCH  22  24
ENDBRANCH  20  22
ENDBRANCH  18  20
ENDBRANCH  17  18
ENDBRANCH  15  17
ENDBRANCH  13  15
ENDBRANCH  11  13
ENDBRANCH   5  11
ENDBRANCH   2   4
TORSDOF 10
ENDMDL
MODEL      230
REMARK 921   NORMALIZED FREE ENERGY PREDICTED BY IDOCK:   -4.61 KCAL/MOL
REMARK 922        TOTAL FREE ENERGY PREDICTED BY IDOCK:   -9.29 KCAL/MOL
REMARK 923 INTER-LIGAND FREE ENERGY PREDICTED BY IDOCK:   -8.09 KCAL/MOL
REMARK 924 INTRA-LIGAND FREE ENERGY PREDICTED BY IDOCK:   -1.21 KCAL/MOL
REMARK 927      BINDING AFFINITY PREDICTED BY RF-SCORE:    0.00 PKD
ROOT
HETATM    1  O   UNL     1      -7.125   5.920  71.303  1.00  0.00    -0.069 OA 
HETATM    2  C   UNL     1      -7.823   6.424  70.189  1.00  0.00    -0.107 C  
HETATM    3  H   UNL     1      -6.253   5.661  71.029  1.00  0.00     0.000 HD 
ENDROOT
BRANCH   2   4
HETATM    4  N   UNL     1      -9.138   6.814  70.602  1.00  0.00    -0.155 N  
HETATM    5  C   UNL     1      -9.321   7.681  71.749  1.00  0.00    -0.145 C  
HETATM    6  O   UNL     1     -10.187   4.918  69.761  1.00  0.00    -0.252 OA 
HETATM    7  C   UNL     1     -10.563   7.010  72.378  1.00  0.00    -0.223 C  
HETATM    8  N   UNL     1     -11.066   6.121  71.480  1.00  0.00    -0.276 NA 
HETATM    9  O   UNL     1     -11.081   7.257  73.457  1.00  0.00    -0.280 OA 
HETATM   10  C   UNL     1     -10.154   5.879  70.512  1.00  0.00    -0.197 C  
BRANCH   5  11
HETATM   11  N   UNL     1      -9.648   9.024  71.340  1.00  0.00    -0.290 N  
HETATM   12  H   UNL     1      -9.016   9.789  71.575  1.00  0.00     0.000 HD 
BRANCH  11  13
HETATM   13  C   UNL     1     -10.791   9.286  70.642  1.00  0.00    -0.278 C  
HETATM   14  O   UNL     1     -10.912   9.096  69.440  1.00  0.00    -0.197 OA 
BRANCH  13  15
HETATM   15  N   UNL     1     -11.812   9.710  71.452  1.00  0.00    -0.379 N  
HETATM   16  H   UNL     1     -12.130   9.121  72.222  1.00  0.00     0.000 HD 
BRANCH  15  17
HETATM   17  C   UNL     1     -12.431  10.980  71.218  1.00  0.00    -0.370 C  
BRANCH  17  18
HETATM   18  N   UNL     1     -11.755  11.733  70.194  1.00  0.00    -0.475 N  
HETATM   19  H   UNL     1     -11.159  11.260  69.515  1.00  0.00     0.000 HD 
BRANCH  18  20
HETATM   20  C   UNL     1     -11.921  13.092  70.138  1.00  0.00    -0.310 C  
HETATM   21  O   UNL     1     -12.704  13.713  70.844  1.00  0.00    -0.335 OA 
BRANCH  20  22
HETATM   22  N   UNL     1     -11.098  13.685  69.208  1.00  0.00    -0.378 N  
HETATM   23  H   UNL     1     -10.100  13.813  69.375  1.00  0.00     0.000 HD 
BRANCH  22  24
HETATM   24  C   UNL     1     -11.726  14.113  67.988  1.00  0.00    -0.359 C  
HETATM   25  N   UNL     1     -11.012  15.095  67.210  1.00  0.00    -0.321 N  
HETATM   26  O   UNL     1     -12.023  11.822  67.052  1.00  0.00    -0.610 OA 
HETATM   27  C   UNL     1     -11.166  14.868  65.857  1.00  0.00    -0.328 C  
HETATM   28  N   UNL     1     -11.703  13.634  65.687  1.00  0.00    -0.330 NA 
HETATM   29  O   UNL     1     -10.837  15.616  64.952  1.00  0.00    -0.426 OA 
HETATM   30  C   UNL     1     -11.837  13.020  66.897  1.00  0.00    -0.380 C  
BRANCH  25  31
HETATM   31  C   UNL     1     -10.474  16.300  67.757  1.00  0.00    -0.295 C  
HETATM   32  H   UNL     1     -10.782  17.382  69.329  1.00  0.00     0.000 HD 
HETATM   33  O   UNL     1     -11.139  16.580  68.965  1.00  0.00    -0.319 OA 
ENDBRANCH  25  31
ENDBRANCH  22  24
ENDBRANCH  20  22
ENDBRANCH  18  20
ENDBRANCH  17  18
ENDBRANCH  15  17
ENDBRANCH  13  15
ENDBRANCH  11  13
ENDBRANCH   5  11
ENDBRANCH   2   4
TORSDOF 10
ENDMDL
MODEL      231
REMARK 921   NORMALIZED FREE ENERGY PREDICTED BY IDOCK:   -4.60 KCAL/MOL
REMARK 922        TOTAL FREE ENERGY PREDICTED BY IDOCK:   -9.29 KCAL/MOL
REMARK 923 INTER-LIGAND FREE ENERGY PREDICTED BY IDOCK:   -7.86 KCAL/MOL
REMARK 924 INTRA-LIGAND FREE ENERGY PREDICTED BY IDOCK:   -1.43 KCAL/MOL
REMARK 927      BINDING AFFINITY PREDICTED BY RF-SCORE:    0.00 PKD
ROOT
HETATM    1  O   UNL     1     -11.593   9.948  69.079  1.00  0.00    -0.473 OA 
HETATM    2  C   UNL     1     -11.198  10.911  70.026  1.00  0.00    -0.263 C  
HETATM    3  H   UNL     1     -10.821   9.498  68.756  1.00  0.00     0.000 HD 
ENDROOT
BRANCH   2   4
HETATM    4  N   UNL     1     -12.362  11.589  70.513  1.00  0.00    -0.354 N  
HETATM    5  C   UNL     1     -12.296  12.988  70.883  1.00  0.00    -0.288 C  
HETATM    6  O   UNL     1     -13.361   9.679  71.385  1.00  0.00    -0.371 OA 
HETATM    7  C   UNL     1     -13.185  12.959  72.147  1.00  0.00    -0.448 C  
HETATM    8  N   UNL     1     -13.818  11.756  72.192  1.00  0.00     0.058 NA 
HETATM    9  O   UNL     1     -13.374  13.861  72.949  1.00  0.00    -0.604 OA 
HETATM   10  C   UNL     1     -13.225  10.891  71.340  1.00  0.00    -0.258 C  
BRANCH   5  11
HETATM   11  N   UNL     1     -12.905  13.822  69.877  1.00  0.00    -0.146 N  
HETATM   12  H   UNL     1     -13.635  13.437  69.279  1.00  0.00     0.000 HD 
BRANCH  11  13
HETATM   13  C   UNL     1     -12.518  15.121  69.715  1.00  0.00    -0.186 C  
HETATM   14  O   UNL     1     -12.496  15.942  70.621  1.00  0.00    -0.394 OA 
BRANCH  13  15
HETATM   15  N   UNL     1     -12.080  15.380  68.442  1.00  0.00    -0.524 N  
HETATM   16  H   UNL     1     -12.446  14.841  67.658  1.00  0.00     0.000 HD 
BRANCH  15  17
HETATM   17  C   UNL     1     -11.108  16.407  68.216  1.00  0.00    -0.337 C  
BRANCH  17  18
HETATM   18  N   UNL     1      -9.838  15.872  67.799  1.00  0.00    -0.221 N  
HETATM   19  H   UNL     1      -9.020  16.479  67.734  1.00  0.00     0.000 HD 
BRANCH  18  20
HETATM   20  C   UNL     1      -9.737  14.541  67.491  1.00  0.00    -0.211 C  
HETATM   21  O   UNL     1      -9.845  13.641  68.313  1.00  0.00    -0.224 OA 
BRANCH  20  22
HETATM   22  N   UNL     1      -9.512  14.327  66.151  1.00  0.00    -0.460 N  
HETATM   23  H   UNL     1      -8.948  14.965  65.591  1.00  0.00     0.000 HD 
BRANCH  22  24
HETATM   24  C   UNL     1     -10.118  13.152  65.587  1.00  0.00    -0.271 C  
HETATM   25  N   UNL     1      -9.629  11.883  66.069  1.00  0.00    -0.233 N  
HETATM   26  O   UNL     1     -12.464  13.813  66.109  1.00  0.00    -0.446 OA 
HETATM   27  C   UNL     1     -10.650  10.959  66.164  1.00  0.00    -0.206 C  
HETATM   28  N   UNL     1     -11.833  11.612  66.046  1.00  0.00    -0.304 NA 
HETATM   29  O   UNL     1     -10.530   9.763  66.369  1.00  0.00    -0.204 OA 
HETATM   30  C   UNL     1     -11.611  12.954  65.947  1.00  0.00    -0.377 C  
BRANCH  25  31
HETATM   31  C   UNL     1      -8.243  11.547  66.148  1.00  0.00     0.018 C  
HETATM   32  H   UNL     1      -7.034  10.368  65.207  1.00  0.00     0.000 HD 
HETATM   33  O   UNL     1      -7.956  10.592  65.155  1.00  0.00    -0.130 OA 
ENDBRANCH  25  31
ENDBRANCH  22  24
ENDBRANCH  20  22
ENDBRANCH  18  20
ENDBRANCH  17  18
ENDBRANCH  15  17
ENDBRANCH  13  15
ENDBRANCH  11  13
ENDBRANCH   5  11
ENDBRANCH   2   4
TORSDOF 10
ENDMDL
MODEL      232
REMARK 921   NORMALIZED FREE ENERGY PREDICTED BY IDOCK:   -4.59 KCAL/MOL
REMARK 922        TOTAL FREE ENERGY PREDICTED BY IDOCK:   -9.27 KCAL/MOL
REMARK 923 INTER-LIGAND FREE ENERGY PREDICTED BY IDOCK:   -7.32 KCAL/MOL
REMARK 924 INTRA-LIGAND FREE ENERGY PREDICTED BY IDOCK:   -1.95 KCAL/MOL
REMARK 927      BINDING AFFINITY PREDICTED BY RF-SCORE:    0.00 PKD
ROOT
HETATM    1  O   UNL     1      -9.164  13.824  67.008  1.00  0.00    -0.232 OA 
HETATM    2  C   UNL     1      -9.602  14.743  66.036  1.00  0.00    -0.301 C  
HETATM    3  H   UNL     1      -8.246  13.982  67.191  1.00  0.00     0.000 HD 
ENDROOT
BRANCH   2   4
HETATM    4  N   UNL     1     -10.987  14.505  65.759  1.00  0.00    -0.309 N  
HETATM    5  C   UNL     1     -11.542  13.173  65.886  1.00  0.00    -0.354 C  
HETATM    6  O   UNL     1     -11.200  16.265  64.256  1.00  0.00    -0.770 OA 
HETATM    7  C   UNL     1     -12.472  13.167  64.651  1.00  0.00    -0.373 C  
HETATM    8  N   UNL     1     -12.556  14.440  64.178  1.00  0.00    -0.745 NA 
HETATM    9  O   UNL     1     -13.102  12.226  64.193  1.00  0.00    -0.749 OA 
HETATM   10  C   UNL     1     -11.571  15.195  64.712  1.00  0.00    -0.364 C  
BRANCH   5  11
HETATM   11  N   UNL     1     -12.328  13.047  67.088  1.00  0.00    -0.110 N  
HETATM   12  H   UNL     1     -13.317  13.292  67.070  1.00  0.00     0.000 HD 
BRANCH  11  13
HETATM   13  C   UNL     1     -11.765  12.606  68.251  1.00  0.00    -0.342 C  
HETATM   14  O   UNL     1     -11.116  13.319  69.005  1.00  0.00    -0.255 OA 
BRANCH  13  15
HETATM   15  N   UNL     1     -12.075  11.299  68.518  1.00  0.00    -0.238 N  
HETATM   16  H   UNL     1     -12.672  10.775  67.877  1.00  0.00     0.000 HD 
BRANCH  15  17
HETATM   17  C   UNL     1     -11.563  10.669  69.698  1.00  0.00    -0.296 C  
BRANCH  17  18
HETATM   18  N   UNL     1     -11.302   9.268  69.496  1.00  0.00    -0.439 N  
HETATM   19  H   UNL     1     -11.669   8.576  70.150  1.00  0.00     0.000 HD 
BRANCH  18  20
HETATM   20  C   UNL     1     -10.555   8.870  68.418  1.00  0.00    -0.143 C  
HETATM   21  O   UNL     1     -10.816   9.169  67.261  1.00  0.00    -0.233 OA 
BRANCH  20  22
HETATM   22  N   UNL     1      -9.469   8.108  68.782  1.00  0.00    -0.147 N  
HETATM   23  H   UNL     1      -9.498   7.089  68.770  1.00  0.00     0.000 HD 
BRANCH  22  24
HETATM   24  C   UNL     1      -8.292   8.831  69.180  1.00  0.00    -0.125 C  
HETATM   25  N   UNL     1      -7.606   8.343  70.351  1.00  0.00    -0.069 N  
HETATM   26  O   UNL     1      -7.153   8.677  66.969  1.00  0.00    -0.073 OA 
HETATM   27  C   UNL     1      -6.238   8.472  70.218  1.00  0.00    -0.034 C  
HETATM   28  N   UNL     1      -5.957   8.753  68.921  1.00  0.00    -0.043 NA 
HETATM   29  O   UNL     1      -5.404   8.316  71.094  1.00  0.00    -0.029 OA 
HETATM   30  C   UNL     1      -7.107   8.739  68.188  1.00  0.00    -0.078 C  
BRANCH  25  31
HETATM   31  C   UNL     1      -8.259   8.050  71.587  1.00  0.00    -0.119 C  
HETATM   32  H   UNL     1      -9.642   8.863  72.666  1.00  0.00     0.000 HD 
HETATM   33  O   UNL     1      -9.207   9.057  71.844  1.00  0.00    -0.353 OA 
ENDBRANCH  25  31
ENDBRANCH  22  24
ENDBRANCH  20  22
ENDBRANCH  18  20
ENDBRANCH  17  18
ENDBRANCH  15  17
ENDBRANCH  13  15
ENDBRANCH  11  13
ENDBRANCH   5  11
ENDBRANCH   2   4
TORSDOF 10
ENDMDL
MODEL      233
REMARK 921   NORMALIZED FREE ENERGY PREDICTED BY IDOCK:   -4.59 KCAL/MOL
REMARK 922        TOTAL FREE ENERGY PREDICTED BY IDOCK:   -9.27 KCAL/MOL
REMARK 923 INTER-LIGAND FREE ENERGY PREDICTED BY IDOCK:   -7.07 KCAL/MOL
REMARK 924 INTRA-LIGAND FREE ENERGY PREDICTED BY IDOCK:   -2.20 KCAL/MOL
REMARK 927      BINDING AFFINITY PREDICTED BY RF-SCORE:    0.00 PKD
ROOT
HETATM    1  O   UNL     1      -9.564  14.435  66.732  1.00  0.00    -0.247 OA 
HETATM    2  C   UNL     1      -9.516  13.076  66.371  1.00  0.00    -0.224 C  
HETATM    3  H   UNL     1      -8.763  14.661  67.189  1.00  0.00     0.000 HD 
ENDROOT
BRANCH   2   4
HETATM    4  N   UNL     1     -10.725  12.734  65.682  1.00  0.00    -0.269 N  
HETATM    5  C   UNL     1     -10.784  12.782  64.235  1.00  0.00    -0.394 C  
HETATM    6  O   UNL     1     -12.133  13.338  67.430  1.00  0.00    -0.351 OA 
HETATM    7  C   UNL     1     -12.201  13.375  64.059  1.00  0.00    -0.405 C  
HETATM    8  N   UNL     1     -12.830  13.336  65.264  1.00  0.00    -0.658 NA 
HETATM    9  O   UNL     1     -12.730  13.753  63.024  1.00  0.00    -0.671 OA 
HETATM   10  C   UNL     1     -11.928  13.118  66.247  1.00  0.00    -0.415 C  
BRANCH   5  11
HETATM   11  N   UNL     1     -10.736  11.458  63.667  1.00  0.00    -0.412 N  
HETATM   12  H   UNL     1     -11.571  10.872  63.684  1.00  0.00     0.000 HD 
BRANCH  11  13
HETATM   13  C   UNL     1      -9.588  10.976  63.107  1.00  0.00    -0.361 C  
HETATM   14  O   UNL     1      -8.784  11.672  62.502  1.00  0.00    -0.259 OA 
BRANCH  13  15
HETATM   15  N   UNL     1      -9.400   9.644  63.367  1.00  0.00    -0.473 N  
HETATM   16  H   UNL     1     -10.134   8.972  63.145  1.00  0.00     0.000 HD 
BRANCH  15  17
HETATM   17  C   UNL     1      -8.171   9.197  63.952  1.00  0.00    -0.172 C  
BRANCH  17  18
HETATM   18  N   UNL     1      -7.770  10.015  65.067  1.00  0.00    -0.134 N  
HETATM   19  H   UNL     1      -7.780  11.032  64.989  1.00  0.00     0.000 HD 
BRANCH  18  20
HETATM   20  C   UNL     1      -7.377   9.416  66.235  1.00  0.00    -0.096 C  
HETATM   21  O   UNL     1      -6.577   8.491  66.291  1.00  0.00    -0.060 OA 
BRANCH  20  22
HETATM   22  N   UNL     1      -7.972   9.977  67.341  1.00  0.00    -0.106 N  
HETATM   23  H   UNL     1      -7.830  10.955  67.591  1.00  0.00     0.000 HD 
BRANCH  22  24
HETATM   24  C   UNL     1      -8.805   9.106  68.124  1.00  0.00    -0.129 C  
HETATM   25  N   UNL     1      -8.885   9.393  69.535  1.00  0.00    -0.151 N  
HETATM   26  O   UNL     1     -10.845   9.396  66.721  1.00  0.00    -0.114 OA 
HETATM   27  C   UNL     1     -10.153   9.149  70.023  1.00  0.00    -0.206 C  
HETATM   28  N   UNL     1     -10.994   8.989  68.970  1.00  0.00    -0.054 NA 
HETATM   29  O   UNL     1     -10.490   9.126  71.194  1.00  0.00    -0.261 OA 
HETATM   30  C   UNL     1     -10.317   9.194  67.804  1.00  0.00    -0.245 C  
BRANCH  25  31
HETATM   31  C   UNL     1      -7.743   9.607  70.365  1.00  0.00    -0.160 C  
HETATM   32  H   UNL     1      -5.855   9.198  70.281  1.00  0.00     0.000 HD 
HETATM   33  O   UNL     1      -6.615   9.055  69.729  1.00  0.00    -0.043 OA 
ENDBRANCH  25  31
ENDBRANCH  22  24
ENDBRANCH  20  22
ENDBRANCH  18  20
ENDBRANCH  17  18
ENDBRANCH  15  17
ENDBRANCH  13  15
ENDBRANCH  11  13
ENDBRANCH   5  11
ENDBRANCH   2   4
TORSDOF 10
ENDMDL
MODEL      234
REMARK 921   NORMALIZED FREE ENERGY PREDICTED BY IDOCK:   -4.58 KCAL/MOL
REMARK 922        TOTAL FREE ENERGY PREDICTED BY IDOCK:   -9.26 KCAL/MOL
REMARK 923 INTER-LIGAND FREE ENERGY PREDICTED BY IDOCK:   -7.82 KCAL/MOL
REMARK 924 INTRA-LIGAND FREE ENERGY PREDICTED BY IDOCK:   -1.44 KCAL/MOL
REMARK 927      BINDING AFFINITY PREDICTED BY RF-SCORE:    0.00 PKD
ROOT
HETATM    1  O   UNL     1     -10.103   9.353  65.992  1.00  0.00    -0.300 OA 
HETATM    2  C   UNL     1      -9.272  10.212  65.250  1.00  0.00    -0.209 C  
HETATM    3  H   UNL     1      -9.646   8.534  66.143  1.00  0.00     0.000 HD 
ENDROOT
BRANCH   2   4
HETATM    4  N   UNL     1      -9.963  11.446  65.023  1.00  0.00    -0.254 N  
HETATM    5  C   UNL     1     -11.074  11.832  65.868  1.00  0.00    -0.302 C  
HETATM    6  O   UNL     1      -9.490  11.529  62.749  1.00  0.00    -0.373 OA 
HETATM    7  C   UNL     1     -12.012  12.432  64.796  1.00  0.00    -0.398 C  
HETATM    8  N   UNL     1     -11.304  12.570  63.643  1.00  0.00    -0.453 NA 
HETATM    9  O   UNL     1     -13.169  12.801  64.936  1.00  0.00    -0.808 OA 
HETATM   10  C   UNL     1     -10.162  11.851  63.715  1.00  0.00    -0.413 C  
BRANCH   5  11
HETATM   11  N   UNL     1     -10.686  12.857  66.805  1.00  0.00    -0.260 N  
HETATM   12  H   UNL     1     -10.873  13.835  66.585  1.00  0.00     0.000 HD 
BRANCH  11  13
HETATM   13  C   UNL     1     -10.072  12.537  67.981  1.00  0.00    -0.220 C  
HETATM   14  O   UNL     1      -8.858  12.467  68.116  1.00  0.00    -0.182 OA 
BRANCH  13  15
HETATM   15  N   UNL     1     -10.963  12.382  69.010  1.00  0.00    -0.348 N  
HETATM   16  H   UNL     1     -11.400  13.200  69.433  1.00  0.00     0.000 HD 
BRANCH  15  17
HETATM   17  C   UNL     1     -11.279  11.070  69.491  1.00  0.00    -0.279 C  
BRANCH  17  18
HETATM   18  N   UNL     1     -10.155  10.441  70.133  1.00  0.00    -0.414 N  
HETATM   19  H   UNL     1      -9.202  10.702  69.875  1.00  0.00     0.000 HD 
BRANCH  18  20
HETATM   20  C   UNL     1     -10.374   9.489  71.093  1.00  0.00    -0.260 C  
HETATM   21  O   UNL     1     -11.412   9.393  71.734  1.00  0.00    -0.380 OA 
BRANCH  20  22
HETATM   22  N   UNL     1      -9.301   8.642  71.249  1.00  0.00    -0.201 N  
HETATM   23  H   UNL     1      -8.672   8.711  72.048  1.00  0.00     0.000 HD 
BRANCH  22  24
HETATM   24  C   UNL     1      -9.118   7.655  70.220  1.00  0.00    -0.149 C  
HETATM   25  N   UNL     1     -10.280   6.880  69.860  1.00  0.00    -0.195 N  
HETATM   26  O   UNL     1      -8.156   9.228  68.543  1.00  0.00    -0.103 OA 
HETATM   27  C   UNL     1     -10.303   6.615  68.506  1.00  0.00    -0.192 C  
HETATM   28  N   UNL     1      -9.381   7.403  67.898  1.00  0.00    -0.134 NA 
HETATM   29  O   UNL     1     -11.051   5.844  67.929  1.00  0.00    -0.250 OA 
HETATM   30  C   UNL     1      -8.805   8.230  68.817  1.00  0.00    -0.137 C  
BRANCH  25  31
HETATM   31  C   UNL     1     -11.121   6.227  70.812  1.00  0.00    -0.316 C  
HETATM   32  H   UNL     1     -13.009   6.207  71.228  1.00  0.00     0.000 HD 
HETATM   33  O   UNL     1     -12.449   6.641  70.595  1.00  0.00    -0.289 OA 
ENDBRANCH  25  31
ENDBRANCH  22  24
ENDBRANCH  20  22
ENDBRANCH  18  20
ENDBRANCH  17  18
ENDBRANCH  15  17
ENDBRANCH  13  15
ENDBRANCH  11  13
ENDBRANCH   5  11
ENDBRANCH   2   4
TORSDOF 10
ENDMDL
MODEL      235
REMARK 921   NORMALIZED FREE ENERGY PREDICTED BY IDOCK:   -4.57 KCAL/MOL
REMARK 922        TOTAL FREE ENERGY PREDICTED BY IDOCK:   -9.24 KCAL/MOL
REMARK 923 INTER-LIGAND FREE ENERGY PREDICTED BY IDOCK:   -7.46 KCAL/MOL
REMARK 924 INTRA-LIGAND FREE ENERGY PREDICTED BY IDOCK:   -1.78 KCAL/MOL
REMARK 927      BINDING AFFINITY PREDICTED BY RF-SCORE:    0.00 PKD
ROOT
HETATM    1  O   UNL     1      -8.950   5.641  63.767  1.00  0.00    -0.335 OA 
HETATM    2  C   UNL     1      -8.705   5.179  65.074  1.00  0.00    -0.148 C  
HETATM    3  H   UNL     1      -8.590   5.018  63.147  1.00  0.00     0.000 HD 
ENDROOT
BRANCH   2   4
HETATM    4  N   UNL     1      -9.246   6.119  66.009  1.00  0.00    -0.135 N  
HETATM    5  C   UNL     1      -8.685   7.450  66.121  1.00  0.00    -0.156 C  
HETATM    6  O   UNL     1     -10.023   4.506  67.492  1.00  0.00    -0.163 OA 
HETATM    7  C   UNL     1      -8.746   7.622  67.656  1.00  0.00    -0.122 C  
HETATM    8  N   UNL     1      -9.507   6.616  68.166  1.00  0.00    -0.117 NA 
HETATM    9  O   UNL     1      -8.274   8.528  68.326  1.00  0.00    -0.120 OA 
HETATM   10  C   UNL     1      -9.667   5.646  67.240  1.00  0.00    -0.135 C  
BRANCH   5  11
HETATM   11  N   UNL     1      -9.533   8.428  65.487  1.00  0.00    -0.418 N  
HETATM   12  H   UNL     1     -10.546   8.331  65.548  1.00  0.00     0.000 HD 
BRANCH  11  13
HETATM   13  C   UNL     1      -8.998   9.483  64.805  1.00  0.00    -0.218 C  
HETATM   14  O   UNL     1      -7.850   9.879  64.958  1.00  0.00    -0.120 OA 
BRANCH  13  15
HETATM   15  N   UNL     1      -9.864   9.997  63.876  1.00  0.00    -0.484 N  
HETATM   16  H   UNL     1     -10.152   9.430  63.079  1.00  0.00     0.000 HD 
BRANCH  15  17
HETATM   17  C   UNL     1     -10.363  11.331  64.025  1.00  0.00    -0.371 C  
BRANCH  17  18
HETATM   18  N   UNL     1      -9.820  11.989  65.184  1.00  0.00    -0.343 N  
HETATM   19  H   UNL     1      -9.271  11.463  65.864  1.00  0.00     0.000 HD 
BRANCH  18  20
HETATM   20  C   UNL     1     -10.046  13.328  65.366  1.00  0.00    -0.253 C  
HETATM   21  O   UNL     1     -10.353  14.096  64.465  1.00  0.00    -0.390 OA 
BRANCH  20  22
HETATM   22  N   UNL     1      -9.902  13.712  66.679  1.00  0.00    -0.276 N  
HETATM   23  H   UNL     1      -9.002  13.673  67.156  1.00  0.00     0.000 HD 
BRANCH  22  24
HETATM   24  C   UNL     1     -11.093  14.173  67.339  1.00  0.00    -0.306 C  
HETATM   25  N   UNL     1     -11.452  13.495  68.561  1.00  0.00    -0.286 N  
HETATM   26  O   UNL     1     -10.400  16.564  67.451  1.00  0.00    -0.279 OA 
HETATM   27  C   UNL     1     -11.989  14.374  69.480  1.00  0.00    -0.330 C  
HETATM   28  N   UNL     1     -11.749  15.639  69.055  1.00  0.00    -0.385 NA 
HETATM   29  O   UNL     1     -12.543  14.083  70.526  1.00  0.00    -0.335 OA 
HETATM   30  C   UNL     1     -11.004  15.608  67.913  1.00  0.00    -0.319 C  
BRANCH  25  31
HETATM   31  C   UNL     1     -11.521  12.074  68.687  1.00  0.00    -0.297 C  
HETATM   32  H   UNL     1     -11.979  10.588  67.538  1.00  0.00     0.000 HD 
HETATM   33  O   UNL     1     -11.933  11.533  67.455  1.00  0.00    -0.623 OA 
ENDBRANCH  25  31
ENDBRANCH  22  24
ENDBRANCH  20  22
ENDBRANCH  18  20
ENDBRANCH  17  18
ENDBRANCH  15  17
ENDBRANCH  13  15
ENDBRANCH  11  13
ENDBRANCH   5  11
ENDBRANCH   2   4
TORSDOF 10
ENDMDL
MODEL      236
REMARK 921   NORMALIZED FREE ENERGY PREDICTED BY IDOCK:   -4.57 KCAL/MOL
REMARK 922        TOTAL FREE ENERGY PREDICTED BY IDOCK:   -9.24 KCAL/MOL
REMARK 923 INTER-LIGAND FREE ENERGY PREDICTED BY IDOCK:   -8.15 KCAL/MOL
REMARK 924 INTRA-LIGAND FREE ENERGY PREDICTED BY IDOCK:   -1.09 KCAL/MOL
REMARK 927      BINDING AFFINITY PREDICTED BY RF-SCORE:    0.00 PKD
ROOT
HETATM    1  O   UNL     1     -12.984  12.617  64.672  1.00  0.00    -0.768 OA 
HETATM    2  C   UNL     1     -12.637  13.936  65.020  1.00  0.00    -0.390 C  
HETATM    3  H   UNL     1     -13.640  12.641  63.987  1.00  0.00     0.000 HD 
ENDROOT
BRANCH   2   4
HETATM    4  N   UNL     1     -11.646  13.899  66.054  1.00  0.00    -0.338 N  
HETATM    5  C   UNL     1     -11.780  14.737  67.228  1.00  0.00    -0.347 C  
HETATM    6  O   UNL     1      -9.907  13.263  64.649  1.00  0.00    -0.157 OA 
HETATM    7  C   UNL     1     -10.305  15.161  67.407  1.00  0.00    -0.244 C  
HETATM    8  N   UNL     1      -9.539  14.386  66.592  1.00  0.00    -0.270 NA 
HETATM    9  O   UNL     1      -9.853  15.988  68.185  1.00  0.00    -0.219 OA 
HETATM   10  C   UNL     1     -10.320  13.763  65.683  1.00  0.00    -0.311 C  
BRANCH   5  11
HETATM   11  N   UNL     1     -12.208  13.969  68.371  1.00  0.00    -0.541 N  
HETATM   12  H   UNL     1     -12.740  14.424  69.112  1.00  0.00     0.000 HD 
BRANCH  11  13
HETATM   13  C   UNL     1     -11.911  12.641  68.474  1.00  0.00    -0.300 C  
HETATM   14  O   UNL     1     -12.095  11.832  67.575  1.00  0.00    -0.599 OA 
BRANCH  13  15
HETATM   15  N   UNL     1     -11.309  12.332  69.666  1.00  0.00    -0.471 N  
HETATM   16  H   UNL     1     -10.509  12.875  69.989  1.00  0.00     0.000 HD 
BRANCH  15  17
HETATM   17  C   UNL     1     -11.805  11.246  70.457  1.00  0.00    -0.324 C  
BRANCH  17  18
HETATM   18  N   UNL     1     -11.821  10.005  69.728  1.00  0.00    -0.460 N  
HETATM   19  H   UNL     1     -12.620   9.761  69.142  1.00  0.00     0.000 HD 
BRANCH  18  20
HETATM   20  C   UNL     1     -10.752   9.153  69.826  1.00  0.00    -0.228 C  
HETATM   21  O   UNL     1      -9.814   9.322  70.594  1.00  0.00    -0.229 OA 
BRANCH  20  22
HETATM   22  N   UNL     1     -10.855   8.079  68.974  1.00  0.00    -0.420 N  
HETATM   23  H   UNL     1     -11.736   7.583  68.836  1.00  0.00     0.000 HD 
BRANCH  22  24
HETATM   24  C   UNL     1      -9.651   7.694  68.290  1.00  0.00    -0.153 C  
HETATM   25  N   UNL     1      -9.354   6.283  68.259  1.00  0.00    -0.114 N  
HETATM   26  O   UNL     1     -10.206   8.852  66.153  1.00  0.00    -0.259 OA 
HETATM   27  C   UNL     1      -8.783   5.919  67.056  1.00  0.00    -0.109 C  
HETATM   28  N   UNL     1      -8.941   6.942  66.179  1.00  0.00    -0.152 NA 
HETATM   29  O   UNL     1      -8.264   4.848  66.792  1.00  0.00    -0.107 OA 
HETATM   30  C   UNL     1      -9.666   7.939  66.761  1.00  0.00    -0.234 C  
BRANCH  25  31
HETATM   31  C   UNL     1      -9.370   5.445  69.416  1.00  0.00    -0.124 C  
HETATM   32  H   UNL     1     -10.719   4.676  70.568  1.00  0.00     0.000 HD 
HETATM   33  O   UNL     1     -10.708   5.233  69.798  1.00  0.00    -0.286 OA 
ENDBRANCH  25  31
ENDBRANCH  22  24
ENDBRANCH  20  22
ENDBRANCH  18  20
ENDBRANCH  17  18
ENDBRANCH  15  17
ENDBRANCH  13  15
ENDBRANCH  11  13
ENDBRANCH   5  11
ENDBRANCH   2   4
TORSDOF 10
ENDMDL
MODEL      237
REMARK 921   NORMALIZED FREE ENERGY PREDICTED BY IDOCK:   -4.57 KCAL/MOL
REMARK 922        TOTAL FREE ENERGY PREDICTED BY IDOCK:   -9.24 KCAL/MOL
REMARK 923 INTER-LIGAND FREE ENERGY PREDICTED BY IDOCK:   -7.39 KCAL/MOL
REMARK 924 INTRA-LIGAND FREE ENERGY PREDICTED BY IDOCK:   -1.85 KCAL/MOL
REMARK 927      BINDING AFFINITY PREDICTED BY RF-SCORE:    0.00 PKD
ROOT
HETATM    1  O   UNL     1     -13.055  15.279  74.058  1.00  0.00    -0.611 OA 
HETATM    2  C   UNL     1     -13.315  15.597  72.712  1.00  0.00    -0.549 C  
HETATM    3  H   UNL     1     -13.583  15.839  74.615  1.00  0.00     0.000 HD 
ENDROOT
BRANCH   2   4
HETATM    4  N   UNL     1     -12.519  14.753  71.872  1.00  0.00    -0.327 N  
HETATM    5  C   UNL     1     -12.046  15.230  70.589  1.00  0.00    -0.354 C  
HETATM    6  O   UNL     1     -13.398  12.763  72.692  1.00  0.00    -0.418 OA 
HETATM    7  C   UNL     1     -12.243  13.944  69.753  1.00  0.00    -0.332 C  
HETATM    8  N   UNL     1     -12.500  12.918  70.608  1.00  0.00    -0.297 NA 
HETATM    9  O   UNL     1     -12.121  13.812  68.544  1.00  0.00    -0.363 OA 
HETATM   10  C   UNL     1     -12.825  13.404  71.826  1.00  0.00    -0.289 C  
BRANCH   5  11
HETATM   11  N   UNL     1     -10.646  15.567  70.641  1.00  0.00    -0.392 N  
HETATM   12  H   UNL     1     -10.079  15.241  71.424  1.00  0.00     0.000 HD 
BRANCH  11  13
HETATM   13  C   UNL     1     -10.068  16.318  69.659  1.00  0.00    -0.175 C  
HETATM   14  O   UNL     1     -10.600  17.295  69.148  1.00  0.00    -0.320 OA 
BRANCH  13  15
HETATM   15  N   UNL     1      -8.795  15.904  69.366  1.00  0.00    -0.245 N  
HETATM   16  H   UNL     1      -8.108  15.800  70.113  1.00  0.00     0.000 HD 
BRANCH  15  17
HETATM   17  C   UNL     1      -8.430  15.619  68.011  1.00  0.00    -0.146 C  
BRANCH  17  18
HETATM   18  N   UNL     1      -9.213  14.550  67.450  1.00  0.00    -0.193 N  
HETATM   19  H   UNL     1     -10.022  14.757  66.863  1.00  0.00     0.000 HD 
BRANCH  18  20
HETATM   20  C   UNL     1      -8.864  13.251  67.711  1.00  0.00    -0.197 C  
HETATM   21  O   UNL     1      -9.043  12.700  68.789  1.00  0.00    -0.009 OA 
BRANCH  20  22
HETATM   22  N   UNL     1      -8.301  12.628  66.621  1.00  0.00    -0.412 N  
HETATM   23  H   UNL     1      -7.389  12.902  66.256  1.00  0.00     0.000 HD 
BRANCH  22  24
HETATM   24  C   UNL     1      -9.072  11.570  66.027  1.00  0.00    -0.198 C  
HETATM   25  N   UNL     1      -9.923  11.939  64.922  1.00  0.00    -0.254 N  
HETATM   26  O   UNL     1      -7.131  10.067  65.599  1.00  0.00    -0.105 OA 
HETATM   27  C   UNL     1      -9.962  10.943  63.968  1.00  0.00    -0.344 C  
HETATM   28  N   UNL     1      -8.969  10.056  64.232  1.00  0.00    -0.215 NA 
HETATM   29  O   UNL     1     -10.718  10.879  63.014  1.00  0.00    -0.032 OA 
HETATM   30  C   UNL     1      -8.237  10.489  65.298  1.00  0.00    -0.146 C  
BRANCH  25  31
HETATM   31  C   UNL     1     -10.829  13.043  64.955  1.00  0.00    -0.308 C  
HETATM   32  H   UNL     1     -10.851  14.856  64.284  1.00  0.00     0.000 HD 
HETATM   33  O   UNL     1     -10.249  14.121  64.262  1.00  0.00    -0.161 OA 
ENDBRANCH  25  31
ENDBRANCH  22  24
ENDBRANCH  20  22
ENDBRANCH  18  20
ENDBRANCH  17  18
ENDBRANCH  15  17
ENDBRANCH  13  15
ENDBRANCH  11  13
ENDBRANCH   5  11
ENDBRANCH   2   4
TORSDOF 10
ENDMDL
MODEL      238
REMARK 921   NORMALIZED FREE ENERGY PREDICTED BY IDOCK:   -4.57 KCAL/MOL
REMARK 922        TOTAL FREE ENERGY PREDICTED BY IDOCK:   -9.24 KCAL/MOL
REMARK 923 INTER-LIGAND FREE ENERGY PREDICTED BY IDOCK:   -7.40 KCAL/MOL
REMARK 924 INTRA-LIGAND FREE ENERGY PREDICTED BY IDOCK:   -1.83 KCAL/MOL
REMARK 927      BINDING AFFINITY PREDICTED BY RF-SCORE:    0.00 PKD
ROOT
HETATM    1  O   UNL     1     -11.032  13.842  68.641  1.00  0.00    -0.244 OA 
HETATM    2  C   UNL     1     -12.003  14.080  67.651  1.00  0.00    -0.368 C  
HETATM    3  H   UNL     1     -11.058  14.548  69.276  1.00  0.00     0.000 HD 
ENDROOT
BRANCH   2   4
HETATM    4  N   UNL     1     -11.962  13.016  66.693  1.00  0.00    -0.403 N  
HETATM    5  C   UNL     1     -10.808  12.145  66.612  1.00  0.00    -0.268 C  
HETATM    6  O   UNL     1     -13.375  14.059  65.170  1.00  0.00    -0.703 OA 
HETATM    7  C   UNL     1     -10.708  11.998  65.077  1.00  0.00    -0.296 C  
HETATM    8  N   UNL     1     -11.846  12.502  64.528  1.00  0.00    -0.363 NA 
HETATM    9  O   UNL     1      -9.818  11.462  64.432  1.00  0.00    -0.242 OA 
HETATM   10  C   UNL     1     -12.509  13.243  65.442  1.00  0.00    -0.489 C  
BRANCH   5  11
HETATM   11  N   UNL     1     -11.081  10.860  67.208  1.00  0.00    -0.303 N  
HETATM   12  H   UNL     1     -11.562  10.146  66.663  1.00  0.00     0.000 HD 
BRANCH  11  13
HETATM   13  C   UNL     1     -10.705  10.588  68.491  1.00  0.00    -0.224 C  
HETATM   14  O   UNL     1      -9.921  11.277  69.130  1.00  0.00    -0.154 OA 
BRANCH  13  15
HETATM   15  N   UNL     1     -11.366   9.506  69.010  1.00  0.00    -0.455 N  
HETATM   16  H   UNL     1     -11.763   8.804  68.386  1.00  0.00     0.000 HD 
BRANCH  15  17
HETATM   17  C   UNL     1     -11.498   9.362  70.429  1.00  0.00    -0.223 C  
BRANCH  17  18
HETATM   18  N   UNL     1     -11.829   8.014  70.811  1.00  0.00    -0.438 N  
HETATM   19  H   UNL     1     -12.730   7.612  70.551  1.00  0.00     0.000 HD 
BRANCH  18  20
HETATM   20  C   UNL     1     -10.923   7.275  71.525  1.00  0.00    -0.233 C  
HETATM   21  O   UNL     1     -10.973   7.122  72.738  1.00  0.00    -0.266 OA 
BRANCH  20  22
HETATM   22  N   UNL     1      -9.956   6.712  70.725  1.00  0.00    -0.184 N  
HETATM   23  H   UNL     1      -9.021   7.111  70.648  1.00  0.00     0.000 HD 
BRANCH  22  24
HETATM   24  C   UNL     1     -10.340   5.528  70.005  1.00  0.00    -0.288 C  
HETATM   25  N   UNL     1      -9.972   5.479  68.611  1.00  0.00    -0.154 N  
HETATM   26  O   UNL     1      -9.271   3.925  71.587  1.00  0.00    -0.113 OA 
HETATM   27  C   UNL     1      -9.619   4.199  68.233  1.00  0.00    -0.128 C  
HETATM   28  N   UNL     1      -9.454   3.451  69.353  1.00  0.00    -0.175 NA 
HETATM   29  O   UNL     1      -9.432   3.802  67.096  1.00  0.00    -0.186 OA 
HETATM   30  C   UNL     1      -9.624   4.232  70.458  1.00  0.00    -0.197 C  
BRANCH  25  31
HETATM   31  C   UNL     1     -10.229   6.537  67.687  1.00  0.00    -0.170 C  
HETATM   32  H   UNL     1      -9.409   8.228  67.233  1.00  0.00     0.000 HD 
HETATM   33  O   UNL     1      -9.239   7.524  67.848  1.00  0.00    -0.136 OA 
ENDBRANCH  25  31
ENDBRANCH  22  24
ENDBRANCH  20  22
ENDBRANCH  18  20
ENDBRANCH  17  18
ENDBRANCH  15  17
ENDBRANCH  13  15
ENDBRANCH  11  13
ENDBRANCH   5  11
ENDBRANCH   2   4
TORSDOF 10
ENDMDL
MODEL      239
REMARK 921   NORMALIZED FREE ENERGY PREDICTED BY IDOCK:   -4.57 KCAL/MOL
REMARK 922        TOTAL FREE ENERGY PREDICTED BY IDOCK:   -9.23 KCAL/MOL
REMARK 923 INTER-LIGAND FREE ENERGY PREDICTED BY IDOCK:   -6.79 KCAL/MOL
REMARK 924 INTRA-LIGAND FREE ENERGY PREDICTED BY IDOCK:   -2.44 KCAL/MOL
REMARK 927      BINDING AFFINITY PREDICTED BY RF-SCORE:    0.00 PKD
ROOT
HETATM    1  O   UNL     1     -11.098  10.543  70.707  1.00  0.00    -0.394 OA 
HETATM    2  C   UNL     1     -11.971  10.936  69.675  1.00  0.00    -0.343 C  
HETATM    3  H   UNL     1     -10.860   9.632  70.580  1.00  0.00     0.000 HD 
ENDROOT
BRANCH   2   4
HETATM    4  N   UNL     1     -12.330  12.309  69.867  1.00  0.00    -0.120 N  
HETATM    5  C   UNL     1     -11.590  13.362  69.202  1.00  0.00    -0.315 C  
HETATM    6  O   UNL     1     -13.236  11.989  71.984  1.00  0.00    -0.499 OA 
HETATM    7  C   UNL     1     -11.545  14.402  70.345  1.00  0.00    -0.226 C  
HETATM    8  N   UNL     1     -12.406  13.999  71.318  1.00  0.00    -0.360 NA 
HETATM    9  O   UNL     1     -10.920  15.451  70.377  1.00  0.00    -0.290 OA 
HETATM   10  C   UNL     1     -12.744  12.705  71.127  1.00  0.00    -0.254 C  
BRANCH   5  11
HETATM   11  N   UNL     1     -12.331  13.896  68.086  1.00  0.00    -0.456 N  
HETATM   12  H   UNL     1     -13.345  13.978  68.150  1.00  0.00     0.000 HD 
BRANCH  11  13
HETATM   13  C   UNL     1     -11.694  14.292  66.946  1.00  0.00    -0.408 C  
HETATM   14  O   UNL     1     -10.699  15.004  66.936  1.00  0.00    -0.295 OA 
BRANCH  13  15
HETATM   15  N   UNL     1     -12.245  13.737  65.821  1.00  0.00    -0.431 N  
HETATM   16  H   UNL     1     -13.056  14.173  65.382  1.00  0.00     0.000 HD 
BRANCH  15  17
HETATM   17  C   UNL     1     -11.681  12.544  65.262  1.00  0.00    -0.386 C  
BRANCH  17  18
HETATM   18  N   UNL     1     -10.259  12.655  65.067  1.00  0.00    -0.339 N  
HETATM   19  H   UNL     1      -9.864  13.482  64.619  1.00  0.00     0.000 HD 
BRANCH  18  20
HETATM   20  C   UNL     1      -9.441  11.640  65.488  1.00  0.00    -0.195 C  
HETATM   21  O   UNL     1      -8.632  11.073  64.766  1.00  0.00    -0.069 OA 
BRANCH  20  22
HETATM   22  N   UNL     1      -9.620  11.338  66.818  1.00  0.00    -0.190 N  
HETATM   23  H   UNL     1     -10.259  11.867  67.410  1.00  0.00     0.000 HD 
BRANCH  22  24
HETATM   24  C   UNL     1      -8.853  10.232  67.326  1.00  0.00    -0.132 C  
HETATM   25  N   UNL     1      -8.163  10.450  68.573  1.00  0.00    -0.113 N  
HETATM   26  O   UNL     1     -10.726   8.589  67.260  1.00  0.00    -0.279 OA 
HETATM   27  C   UNL     1      -8.168   9.310  69.352  1.00  0.00    -0.114 C  
HETATM   28  N   UNL     1      -9.061   8.435  68.826  1.00  0.00    -0.143 NA 
HETATM   29  O   UNL     1      -7.524   9.123  70.370  1.00  0.00    -0.077 OA 
HETATM   30  C   UNL     1      -9.692   9.006  67.760  1.00  0.00    -0.156 C  
BRANCH  25  31
HETATM   31  C   UNL     1      -7.335  11.585  68.832  1.00  0.00    -0.116 C  
HETATM   32  H   UNL     1      -6.249  12.793  67.783  1.00  0.00     0.000 HD 
HETATM   33  O   UNL     1      -6.800  12.038  67.612  1.00  0.00    -0.092 OA 
ENDBRANCH  25  31
ENDBRANCH  22  24
ENDBRANCH  20  22
ENDBRANCH  18  20
ENDBRANCH  17  18
ENDBRANCH  15  17
ENDBRANCH  13  15
ENDBRANCH  11  13
ENDBRANCH   5  11
ENDBRANCH   2   4
TORSDOF 10
ENDMDL
MODEL      240
REMARK 921   NORMALIZED FREE ENERGY PREDICTED BY IDOCK:   -4.57 KCAL/MOL
REMARK 922        TOTAL FREE ENERGY PREDICTED BY IDOCK:   -9.23 KCAL/MOL
REMARK 923 INTER-LIGAND FREE ENERGY PREDICTED BY IDOCK:   -8.05 KCAL/MOL
REMARK 924 INTRA-LIGAND FREE ENERGY PREDICTED BY IDOCK:   -1.18 KCAL/MOL
REMARK 927      BINDING AFFINITY PREDICTED BY RF-SCORE:    0.00 PKD
ROOT
HETATM    1  O   UNL     1     -12.149   9.524  70.005  1.00  0.00    -0.462 OA 
HETATM    2  C   UNL     1     -11.824   9.082  71.301  1.00  0.00    -0.312 C  
HETATM    3  H   UNL     1     -12.855  10.155  70.062  1.00  0.00     0.000 HD 
ENDROOT
BRANCH   2   4
HETATM    4  N   UNL     1     -10.759   8.129  71.216  1.00  0.00    -0.223 N  
HETATM    5  C   UNL     1     -10.891   6.952  70.380  1.00  0.00    -0.261 C  
HETATM    6  O   UNL     1      -9.906   8.586  73.329  1.00  0.00    -0.016 OA 
HETATM    7  C   UNL     1     -10.220   5.909  71.302  1.00  0.00    -0.210 C  
HETATM    8  N   UNL     1      -9.596   6.575  72.312  1.00  0.00    -0.148 NA 
HETATM    9  O   UNL     1     -10.168   4.698  71.149  1.00  0.00    -0.192 OA 
HETATM   10  C   UNL     1     -10.038   7.851  72.364  1.00  0.00    -0.248 C  
BRANCH   5  11
HETATM   11  N   UNL     1     -10.130   7.089  69.163  1.00  0.00    -0.175 N  
HETATM   12  H   UNL     1      -9.201   7.507  69.195  1.00  0.00     0.000 HD 
BRANCH  11  13
HETATM   13  C   UNL     1     -10.637   6.666  67.968  1.00  0.00    -0.245 C  
HETATM   14  O   UNL     1     -10.880   5.495  67.709  1.00  0.00    -0.171 OA 
BRANCH  13  15
HETATM   15  N   UNL     1     -10.918   7.707  67.123  1.00  0.00    -0.514 N  
HETATM   16  H   UNL     1     -11.622   7.597  66.394  1.00  0.00     0.000 HD 
BRANCH  15  17
HETATM   17  C   UNL     1     -10.221   8.951  67.265  1.00  0.00    -0.258 C  
BRANCH  17  18
HETATM   18  N   UNL     1     -10.832  10.007  66.501  1.00  0.00    -0.024 N  
HETATM   19  H   UNL     1     -11.097   9.852  65.528  1.00  0.00     0.000 HD 
BRANCH  18  20
HETATM   20  C   UNL     1     -11.056  11.223  67.092  1.00  0.00    -0.301 C  
HETATM   21  O   UNL     1     -12.006  11.459  67.825  1.00  0.00    -0.637 OA 
BRANCH  20  22
HETATM   22  N   UNL     1     -10.086  12.146  66.779  1.00  0.00    -0.199 N  
HETATM   23  H   UNL     1      -9.162  12.124  67.211  1.00  0.00     0.000 HD 
BRANCH  22  24
HETATM   24  C   UNL     1     -10.448  13.143  65.809  1.00  0.00    -0.283 C  
HETATM   25  N   UNL     1     -11.073  12.665  64.600  1.00  0.00    -0.299 N  
HETATM   26  O   UNL     1     -11.786  14.538  67.383  1.00  0.00    -0.372 OA 
HETATM   27  C   UNL     1     -12.045  13.540  64.161  1.00  0.00    -0.435 C  
HETATM   28  N   UNL     1     -12.303  14.428  65.154  1.00  0.00    -0.403 NA 
HETATM   29  O   UNL     1     -12.622  13.507  63.088  1.00  0.00    -0.762 OA 
HETATM   30  C   UNL     1     -11.571  14.109  66.259  1.00  0.00    -0.370 C  
BRANCH  25  31
HETATM   31  C   UNL     1     -10.552  11.595  63.810  1.00  0.00    -0.416 C  
HETATM   32  H   UNL     1      -8.864  10.666  63.650  1.00  0.00     0.000 HD 
HETATM   33  O   UNL     1      -9.210  11.378  64.175  1.00  0.00    -0.111 OA 
ENDBRANCH  25  31
ENDBRANCH  22  24
ENDBRANCH  20  22
ENDBRANCH  18  20
ENDBRANCH  17  18
ENDBRANCH  15  17
ENDBRANCH  13  15
ENDBRANCH  11  13
ENDBRANCH   5  11
ENDBRANCH   2   4
TORSDOF 10
ENDMDL
MODEL      241
REMARK 921   NORMALIZED FREE ENERGY PREDICTED BY IDOCK:   -4.56 KCAL/MOL
REMARK 922        TOTAL FREE ENERGY PREDICTED BY IDOCK:   -9.23 KCAL/MOL
REMARK 923 INTER-LIGAND FREE ENERGY PREDICTED BY IDOCK:   -6.89 KCAL/MOL
REMARK 924 INTRA-LIGAND FREE ENERGY PREDICTED BY IDOCK:   -2.33 KCAL/MOL
REMARK 927      BINDING AFFINITY PREDICTED BY RF-SCORE:    0.00 PKD
ROOT
HETATM    1  O   UNL     1      -8.575  12.290  68.906  1.00  0.00    -0.365 OA 
HETATM    2  C   UNL     1      -8.731  11.047  68.265  1.00  0.00    -0.144 C  
HETATM    3  H   UNL     1      -7.721  12.318  69.322  1.00  0.00     0.000 HD 
ENDROOT
BRANCH   2   4
HETATM    4  N   UNL     1     -10.018  11.004  67.638  1.00  0.00    -0.171 N  
HETATM    5  C   UNL     1     -10.196  11.511  66.293  1.00  0.00    -0.230 C  
HETATM    6  O   UNL     1     -11.217  11.094  69.627  1.00  0.00    -0.250 OA 
HETATM    7  C   UNL     1     -11.568  12.202  66.462  1.00  0.00    -0.359 C  
HETATM    8  N   UNL     1     -12.093  11.814  67.656  1.00  0.00    -0.558 NA 
HETATM    9  O   UNL     1     -12.151  12.915  65.659  1.00  0.00    -0.414 OA 
HETATM   10  C   UNL     1     -11.133  11.250  68.420  1.00  0.00    -0.240 C  
BRANCH   5  11
HETATM   11  N   UNL     1     -10.306  10.435  65.340  1.00  0.00    -0.247 N  
HETATM   12  H   UNL     1     -11.228  10.122  65.038  1.00  0.00     0.000 HD 
BRANCH  11  13
HETATM   13  C   UNL     1      -9.192   9.828  64.836  1.00  0.00    -0.257 C  
HETATM   14  O   UNL     1      -8.302  10.424  64.245  1.00  0.00    -0.165 OA 
BRANCH  13  15
HETATM   15  N   UNL     1      -9.145   8.492  65.136  1.00  0.00    -0.426 N  
HETATM   16  H   UNL     1      -9.869   7.865  64.786  1.00  0.00     0.000 HD 
BRANCH  15  17
HETATM   17  C   UNL     1      -8.078   7.977  65.942  1.00  0.00    -0.117 C  
BRANCH  17  18
HETATM   18  N   UNL     1      -8.546   7.473  67.206  1.00  0.00    -0.117 N  
HETATM   19  H   UNL     1      -9.469   7.044  67.279  1.00  0.00     0.000 HD 
BRANCH  18  20
HETATM   20  C   UNL     1      -7.741   7.573  68.310  1.00  0.00    -0.120 C  
HETATM   21  O   UNL     1      -6.602   8.019  68.285  1.00  0.00    -0.053 OA 
BRANCH  20  22
HETATM   22  N   UNL     1      -8.361   7.130  69.455  1.00  0.00    -0.131 N  
HETATM   23  H   UNL     1      -8.031   6.310  69.964  1.00  0.00     0.000 HD 
BRANCH  22  24
HETATM   24  C   UNL     1      -9.501   7.888  69.893  1.00  0.00    -0.160 C  
HETATM   25  N   UNL     1     -10.672   7.130  70.262  1.00  0.00    -0.231 N  
HETATM   26  O   UNL     1      -8.284   9.156  71.661  1.00  0.00    -0.343 OA 
HETATM   27  C   UNL     1     -11.324   7.709  71.333  1.00  0.00    -0.258 C  
HETATM   28  N   UNL     1     -10.506   8.643  71.879  1.00  0.00    -0.312 NA 
HETATM   29  O   UNL     1     -12.426   7.410  71.760  1.00  0.00    -0.314 OA 
HETATM   30  C   UNL     1      -9.305   8.639  71.233  1.00  0.00    -0.224 C  
BRANCH  25  31
HETATM   31  C   UNL     1     -11.239   6.103  69.448  1.00  0.00    -0.396 C  
HETATM   32  H   UNL     1     -11.344   5.715  67.556  1.00  0.00     0.000 HD 
HETATM   33  O   UNL     1     -10.967   6.398  68.099  1.00  0.00    -0.290 OA 
ENDBRANCH  25  31
ENDBRANCH  22  24
ENDBRANCH  20  22
ENDBRANCH  18  20
ENDBRANCH  17  18
ENDBRANCH  15  17
ENDBRANCH  13  15
ENDBRANCH  11  13
ENDBRANCH   5  11
ENDBRANCH   2   4
TORSDOF 10
ENDMDL
MODEL      242
REMARK 921   NORMALIZED FREE ENERGY PREDICTED BY IDOCK:   -4.55 KCAL/MOL
REMARK 922        TOTAL FREE ENERGY PREDICTED BY IDOCK:   -9.21 KCAL/MOL
REMARK 923 INTER-LIGAND FREE ENERGY PREDICTED BY IDOCK:   -6.74 KCAL/MOL
REMARK 924 INTRA-LIGAND FREE ENERGY PREDICTED BY IDOCK:   -2.47 KCAL/MOL
REMARK 927      BINDING AFFINITY PREDICTED BY RF-SCORE:    0.00 PKD
ROOT
HETATM    1  O   UNL     1      -8.228  10.999  69.373  1.00  0.00    -0.365 OA 
HETATM    2  C   UNL     1      -9.051   9.950  69.823  1.00  0.00    -0.225 C  
HETATM    3  H   UNL     1      -7.406  10.973  69.848  1.00  0.00     0.000 HD 
ENDROOT
BRANCH   2   4
HETATM    4  N   UNL     1     -10.291   9.990  69.106  1.00  0.00    -0.202 N  
HETATM    5  C   UNL     1     -10.311  10.299  67.690  1.00  0.00    -0.220 C  
HETATM    6  O   UNL     1     -11.577  10.560  70.956  1.00  0.00    -0.330 OA 
HETATM    7  C   UNL     1     -11.571  11.194  67.644  1.00  0.00    -0.183 C  
HETATM    8  N   UNL     1     -12.217  11.077  68.835  1.00  0.00    -0.502 NA 
HETATM    9  O   UNL     1     -11.990  11.847  66.700  1.00  0.00    -0.601 OA 
HETATM   10  C   UNL     1     -11.400  10.510  69.750  1.00  0.00    -0.300 C  
BRANCH   5  11
HETATM   11  N   UNL     1     -10.526   9.113  66.901  1.00  0.00    -0.243 N  
HETATM   12  H   UNL     1     -11.478   8.790  66.726  1.00  0.00     0.000 HD 
BRANCH  11  13
HETATM   13  C   UNL     1      -9.474   8.414  66.383  1.00  0.00    -0.227 C  
HETATM   14  O   UNL     1      -8.338   8.860  66.300  1.00  0.00    -0.111 OA 
BRANCH  13  15
HETATM   15  N   UNL     1      -9.816   7.132  66.043  1.00  0.00    -0.392 N  
HETATM   16  H   UNL     1     -10.738   6.936  65.655  1.00  0.00     0.000 HD 
BRANCH  15  17
HETATM   17  C   UNL     1      -8.876   6.067  66.232  1.00  0.00    -0.141 C  
BRANCH  17  18
HETATM   18  N   UNL     1      -8.268   6.105  67.536  1.00  0.00    -0.109 N  
HETATM   19  H   UNL     1      -7.512   6.761  67.733  1.00  0.00     0.000 HD 
BRANCH  18  20
HETATM   20  C   UNL     1      -8.713   5.252  68.512  1.00  0.00    -0.097 C  
HETATM   21  O   UNL     1      -9.057   4.096  68.302  1.00  0.00    -0.114 OA 
BRANCH  20  22
HETATM   22  N   UNL     1      -8.718   5.835  69.758  1.00  0.00    -0.125 N  
HETATM   23  H   UNL     1      -7.883   6.265  70.155  1.00  0.00     0.000 HD 
BRANCH  22  24
HETATM   24  C   UNL     1      -9.968   5.802  70.468  1.00  0.00    -0.195 C  
HETATM   25  N   UNL     1     -10.039   6.587  71.676  1.00  0.00    -0.182 N  
HETATM   26  O   UNL     1     -11.372   6.465  68.518  1.00  0.00    -0.303 OA 
HETATM   27  C   UNL     1     -11.288   7.154  71.829  1.00  0.00    -0.252 C  
HETATM   28  N   UNL     1     -11.963   7.029  70.659  1.00  0.00    -0.338 NA 
HETATM   29  O   UNL     1     -11.713   7.719  72.822  1.00  0.00    -0.337 OA 
HETATM   30  C   UNL     1     -11.156   6.455  69.721  1.00  0.00    -0.396 C  
BRANCH  25  31
HETATM   31  C   UNL     1      -9.058   6.536  72.712  1.00  0.00    -0.136 C  
HETATM   32  H   UNL     1      -7.759   5.253  73.348  1.00  0.00     0.000 HD 
HETATM   33  O   UNL     1      -8.412   5.287  72.658  1.00  0.00    -0.116 OA 
ENDBRANCH  25  31
ENDBRANCH  22  24
ENDBRANCH  20  22
ENDBRANCH  18  20
ENDBRANCH  17  18
ENDBRANCH  15  17
ENDBRANCH  13  15
ENDBRANCH  11  13
ENDBRANCH   5  11
ENDBRANCH   2   4
TORSDOF 10
ENDMDL
MODEL      243
REMARK 921   NORMALIZED FREE ENERGY PREDICTED BY IDOCK:   -4.55 KCAL/MOL
REMARK 922        TOTAL FREE ENERGY PREDICTED BY IDOCK:   -9.20 KCAL/MOL
REMARK 923 INTER-LIGAND FREE ENERGY PREDICTED BY IDOCK:   -7.30 KCAL/MOL
REMARK 924 INTRA-LIGAND FREE ENERGY PREDICTED BY IDOCK:   -1.90 KCAL/MOL
REMARK 927      BINDING AFFINITY PREDICTED BY RF-SCORE:    0.00 PKD
ROOT
HETATM    1  O   UNL     1      -9.500  14.651  66.686  1.00  0.00    -0.251 OA 
HETATM    2  C   UNL     1      -9.575  13.261  66.475  1.00  0.00    -0.264 C  
HETATM    3  H   UNL     1      -8.696  14.849  67.152  1.00  0.00     0.000 HD 
ENDROOT
BRANCH   2   4
HETATM    4  N   UNL     1     -10.787  12.962  65.772  1.00  0.00    -0.266 N  
HETATM    5  C   UNL     1     -10.804  12.918  64.324  1.00  0.00    -0.397 C  
HETATM    6  O   UNL     1     -12.193  13.779  67.433  1.00  0.00    -0.368 OA 
HETATM    7  C   UNL     1     -12.168  13.598  64.066  1.00  0.00    -0.390 C  
HETATM    8  N   UNL     1     -12.830  13.683  65.252  1.00  0.00    -0.723 NA 
HETATM    9  O   UNL     1     -12.641  13.944  62.994  1.00  0.00    -0.694 OA 
HETATM   10  C   UNL     1     -11.974  13.467  66.274  1.00  0.00    -0.411 C  
BRANCH   5  11
HETATM   11  N   UNL     1     -10.838  11.559  63.844  1.00  0.00    -0.377 N  
HETATM   12  H   UNL     1     -11.668  10.989  64.005  1.00  0.00     0.000 HD 
BRANCH  11  13
HETATM   13  C   UNL     1      -9.774  11.025  63.176  1.00  0.00    -0.369 C  
HETATM   14  O   UNL     1      -9.071  11.658  62.401  1.00  0.00    -0.259 OA 
BRANCH  13  15
HETATM   15  N   UNL     1      -9.535   9.724  63.533  1.00  0.00    -0.481 N  
HETATM   16  H   UNL     1     -10.266   9.022  63.424  1.00  0.00     0.000 HD 
BRANCH  15  17
HETATM   17  C   UNL     1      -8.256   9.351  64.060  1.00  0.00    -0.163 C  
BRANCH  17  18
HETATM   18  N   UNL     1      -7.714  10.357  64.934  1.00  0.00    -0.262 N  
HETATM   19  H   UNL     1      -7.643  11.326  64.623  1.00  0.00     0.000 HD 
BRANCH  18  20
HETATM   20  C   UNL     1      -7.293  10.003  66.190  1.00  0.00    -0.109 C  
HETATM   21  O   UNL     1      -6.634  10.732  66.918  1.00  0.00    -0.077 OA 
BRANCH  20  22
HETATM   22  N   UNL     1      -7.706   8.740  66.546  1.00  0.00    -0.098 N  
HETATM   23  H   UNL     1      -7.717   7.969  65.879  1.00  0.00     0.000 HD 
BRANCH  22  24
HETATM   24  C   UNL     1      -8.121   8.570  67.912  1.00  0.00    -0.115 C  
HETATM   25  N   UNL     1      -9.512   8.255  68.125  1.00  0.00    -0.137 N  
HETATM   26  O   UNL     1      -6.399   6.859  68.477  1.00  0.00    -0.029 OA 
HETATM   27  C   UNL     1      -9.668   7.375  69.177  1.00  0.00    -0.165 C  
HETATM   28  N   UNL     1      -8.452   6.865  69.495  1.00  0.00    -0.132 NA 
HETATM   29  O   UNL     1     -10.718   7.058  69.710  1.00  0.00    -0.225 OA 
HETATM   30  C   UNL     1      -7.513   7.339  68.626  1.00  0.00    -0.102 C  
BRANCH  25  31
HETATM   31  C   UNL     1     -10.589   8.981  67.531  1.00  0.00    -0.237 C  
HETATM   32  H   UNL     1     -11.299  10.775  67.647  1.00  0.00     0.000 HD 
HETATM   33  O   UNL     1     -10.583  10.292  68.042  1.00  0.00    -0.198 OA 
ENDBRANCH  25  31
ENDBRANCH  22  24
ENDBRANCH  20  22
ENDBRANCH  18  20
ENDBRANCH  17  18
ENDBRANCH  15  17
ENDBRANCH  13  15
ENDBRANCH  11  13
ENDBRANCH   5  11
ENDBRANCH   2   4
TORSDOF 10
ENDMDL
MODEL      244
REMARK 921   NORMALIZED FREE ENERGY PREDICTED BY IDOCK:   -4.55 KCAL/MOL
REMARK 922        TOTAL FREE ENERGY PREDICTED BY IDOCK:   -9.20 KCAL/MOL
REMARK 923 INTER-LIGAND FREE ENERGY PREDICTED BY IDOCK:   -7.37 KCAL/MOL
REMARK 924 INTRA-LIGAND FREE ENERGY PREDICTED BY IDOCK:   -1.83 KCAL/MOL
REMARK 927      BINDING AFFINITY PREDICTED BY RF-SCORE:    0.00 PKD
ROOT
HETATM    1  O   UNL     1     -11.640   6.643  67.510  1.00  0.00    -0.693 OA 
HETATM    2  C   UNL     1     -11.146   6.167  68.739  1.00  0.00    -0.319 C  
HETATM    3  H   UNL     1     -12.478   7.066  67.657  1.00  0.00     0.000 HD 
ENDROOT
BRANCH   2   4
HETATM    4  N   UNL     1      -9.882   5.530  68.517  1.00  0.00    -0.137 N  
HETATM    5  C   UNL     1      -9.357   5.388  67.174  1.00  0.00    -0.117 C  
HETATM    6  O   UNL     1      -9.993   4.192  70.415  1.00  0.00    -0.200 OA 
HETATM    7  C   UNL     1      -8.765   3.964  67.283  1.00  0.00    -0.110 C  
HETATM    8  N   UNL     1      -8.760   3.606  68.595  1.00  0.00    -0.095 NA 
HETATM    9  O   UNL     1      -8.301   3.277  66.385  1.00  0.00    -0.095 OA 
HETATM   10  C   UNL     1      -9.555   4.439  69.302  1.00  0.00    -0.191 C  
BRANCH   5  11
HETATM   11  N   UNL     1      -8.300   6.337  66.925  1.00  0.00    -0.109 N  
HETATM   12  H   UNL     1      -7.576   6.480  67.628  1.00  0.00     0.000 HD 
BRANCH  11  13
HETATM   13  C   UNL     1      -8.256   7.048  65.760  1.00  0.00    -0.132 C  
HETATM   14  O   UNL     1      -7.363   6.939  64.931  1.00  0.00    -0.077 OA 
BRANCH  13  15
HETATM   15  N   UNL     1      -9.364   7.835  65.587  1.00  0.00    -0.392 N  
HETATM   16  H   UNL     1     -10.101   7.544  64.944  1.00  0.00     0.000 HD 
BRANCH  15  17
HETATM   17  C   UNL     1      -9.487   9.066  66.308  1.00  0.00    -0.242 C  
BRANCH  17  18
HETATM   18  N   UNL     1     -10.161  10.081  65.541  1.00  0.00    -0.289 N  
HETATM   19  H   UNL     1     -11.163  10.234  65.658  1.00  0.00     0.000 HD 
BRANCH  18  20
HETATM   20  C   UNL     1      -9.446  10.839  64.652  1.00  0.00    -0.251 C  
HETATM   21  O   UNL     1      -8.519  10.407  63.979  1.00  0.00    -0.170 OA 
BRANCH  20  22
HETATM   22  N   UNL     1      -9.893  12.138  64.589  1.00  0.00    -0.441 N  
HETATM   23  H   UNL     1      -9.439  12.836  64.000  1.00  0.00     0.000 HD 
BRANCH  22  24
HETATM   24  C   UNL     1     -11.036  12.455  65.401  1.00  0.00    -0.299 C  
HETATM   25  N   UNL     1     -10.801  13.327  66.526  1.00  0.00    -0.280 N  
HETATM   26  O   UNL     1     -12.449  13.275  63.519  1.00  0.00    -0.728 OA 
HETATM   27  C   UNL     1     -11.867  14.182  66.725  1.00  0.00    -0.425 C  
HETATM   28  N   UNL     1     -12.671  14.127  65.634  1.00  0.00    -0.509 NA 
HETATM   29  O   UNL     1     -12.046  14.907  67.689  1.00  0.00    -0.253 OA 
HETATM   30  C   UNL     1     -12.117  13.309  64.694  1.00  0.00    -0.408 C  
BRANCH  25  31
HETATM   31  C   UNL     1      -9.754  13.129  67.476  1.00  0.00    -0.213 C  
HETATM   32  H   UNL     1      -7.855  13.482  67.560  1.00  0.00     0.000 HD 
HETATM   33  O   UNL     1      -8.552  13.614  66.928  1.00  0.00    -0.194 OA 
ENDBRANCH  25  31
ENDBRANCH  22  24
ENDBRANCH  20  22
ENDBRANCH  18  20
ENDBRANCH  17  18
ENDBRANCH  15  17
ENDBRANCH  13  15
ENDBRANCH  11  13
ENDBRANCH   5  11
ENDBRANCH   2   4
TORSDOF 10
ENDMDL
MODEL      245
REMARK 921   NORMALIZED FREE ENERGY PREDICTED BY IDOCK:   -4.54 KCAL/MOL
REMARK 922        TOTAL FREE ENERGY PREDICTED BY IDOCK:   -9.19 KCAL/MOL
REMARK 923 INTER-LIGAND FREE ENERGY PREDICTED BY IDOCK:   -7.53 KCAL/MOL
REMARK 924 INTRA-LIGAND FREE ENERGY PREDICTED BY IDOCK:   -1.65 KCAL/MOL
REMARK 927      BINDING AFFINITY PREDICTED BY RF-SCORE:    0.00 PKD
ROOT
HETATM    1  O   UNL     1      -6.479  18.864  64.642  1.00  0.00    -0.500 OA 
HETATM    2  C   UNL     1      -6.496  18.207  65.886  1.00  0.00    -0.269 C  
HETATM    3  H   UNL     1      -5.799  18.482  64.100  1.00  0.00     0.000 HD 
ENDROOT
BRANCH   2   4
HETATM    4  N   UNL     1      -7.522  18.784  66.703  1.00  0.00    -0.225 N  
HETATM    5  C   UNL     1      -8.881  18.289  66.632  1.00  0.00    -0.284 C  
HETATM    6  O   UNL     1      -6.513  20.872  66.854  1.00  0.00    -0.253 OA 
HETATM    7  C   UNL     1      -9.645  19.630  66.724  1.00  0.00    -0.371 C  
HETATM    8  N   UNL     1      -8.759  20.598  67.085  1.00  0.00    -0.275 NA 
HETATM    9  O   UNL     1     -10.843  19.820  66.582  1.00  0.00    -0.467 OA 
HETATM   10  C   UNL     1      -7.495  20.151  66.916  1.00  0.00    -0.281 C  
BRANCH   5  11
HETATM   11  N   UNL     1      -9.198  17.468  67.775  1.00  0.00    -0.250 N  
HETATM   12  H   UNL     1      -8.777  17.681  68.679  1.00  0.00     0.000 HD 
BRANCH  11  13
HETATM   13  C   UNL     1     -10.053  16.410  67.663  1.00  0.00    -0.263 C  
HETATM   14  O   UNL     1     -10.859  16.094  68.528  1.00  0.00    -0.279 OA 
BRANCH  13  15
HETATM   15  N   UNL     1      -9.964  15.794  66.443  1.00  0.00    -0.260 N  
HETATM   16  H   UNL     1      -9.133  15.922  65.867  1.00  0.00     0.000 HD 
BRANCH  15  17
HETATM   17  C   UNL     1     -11.040  14.971  65.977  1.00  0.00    -0.329 C  
BRANCH  17  18
HETATM   18  N   UNL     1     -10.593  13.657  65.595  1.00  0.00    -0.286 N  
HETATM   19  H   UNL     1     -10.718  13.329  64.637  1.00  0.00     0.000 HD 
BRANCH  18  20
HETATM   20  C   UNL     1      -9.998  12.850  66.529  1.00  0.00    -0.259 C  
HETATM   21  O   UNL     1      -8.822  12.939  66.855  1.00  0.00    -0.213 OA 
BRANCH  20  22
HETATM   22  N   UNL     1     -10.872  11.937  67.069  1.00  0.00    -0.246 N  
HETATM   23  H   UNL     1     -11.763  11.715  66.625  1.00  0.00     0.000 HD 
BRANCH  22  24
HETATM   24  C   UNL     1     -10.459  11.312  68.296  1.00  0.00    -0.196 C  
HETATM   25  N   UNL     1     -11.258  11.597  69.462  1.00  0.00    -0.238 N  
HETATM   26  O   UNL     1     -10.440   8.989  67.391  1.00  0.00    -0.249 OA 
HETATM   27  C   UNL     1     -11.362  10.489  70.279  1.00  0.00    -0.327 C  
HETATM   28  N   UNL     1     -10.921   9.406  69.592  1.00  0.00    -0.227 NA 
HETATM   29  O   UNL     1     -11.817  10.460  71.410  1.00  0.00    -0.332 OA 
HETATM   30  C   UNL     1     -10.597   9.770  68.318  1.00  0.00    -0.229 C  
BRANCH  25  31
HETATM   31  C   UNL     1     -11.632  12.917  69.862  1.00  0.00    -0.176 C  
HETATM   32  H   UNL     1     -12.640  14.378  69.095  1.00  0.00     0.000 HD 
HETATM   33  O   UNL     1     -12.391  13.500  68.830  1.00  0.00    -0.248 OA 
ENDBRANCH  25  31
ENDBRANCH  22  24
ENDBRANCH  20  22
ENDBRANCH  18  20
ENDBRANCH  17  18
ENDBRANCH  15  17
ENDBRANCH  13  15
ENDBRANCH  11  13
ENDBRANCH   5  11
ENDBRANCH   2   4
TORSDOF 10
ENDMDL
MODEL      246
REMARK 921   NORMALIZED FREE ENERGY PREDICTED BY IDOCK:   -4.53 KCAL/MOL
REMARK 922        TOTAL FREE ENERGY PREDICTED BY IDOCK:   -9.17 KCAL/MOL
REMARK 923 INTER-LIGAND FREE ENERGY PREDICTED BY IDOCK:   -7.59 KCAL/MOL
REMARK 924 INTRA-LIGAND FREE ENERGY PREDICTED BY IDOCK:   -1.58 KCAL/MOL
REMARK 927      BINDING AFFINITY PREDICTED BY RF-SCORE:    0.00 PKD
ROOT
HETATM    1  O   UNL     1     -10.541  10.973  62.987  1.00  0.00    -0.759 OA 
HETATM    2  C   UNL     1      -9.217  10.495  62.982  1.00  0.00    -0.299 C  
HETATM    3  H   UNL     1     -10.786  11.213  62.101  1.00  0.00     0.000 HD 
ENDROOT
BRANCH   2   4
HETATM    4  N   UNL     1      -8.847  10.134  64.317  1.00  0.00    -0.202 N  
HETATM    5  C   UNL     1      -9.191  10.993  65.432  1.00  0.00    -0.210 C  
HETATM    6  O   UNL     1      -6.991   8.886  63.684  1.00  0.00    -0.089 OA 
HETATM    7  C   UNL     1      -7.892  10.867  66.260  1.00  0.00    -0.158 C  
HETATM    8  N   UNL     1      -7.153   9.851  65.738  1.00  0.00    -0.104 NA 
HETATM    9  O   UNL     1      -7.577  11.497  67.259  1.00  0.00    -0.126 OA 
HETATM   10  C   UNL     1      -7.620   9.525  64.512  1.00  0.00    -0.114 C  
BRANCH   5  11
HETATM   11  N   UNL     1     -10.300  10.455  66.182  1.00  0.00    -0.228 N  
HETATM   12  H   UNL     1     -10.294   9.473  66.453  1.00  0.00     0.000 HD 
BRANCH  11  13
HETATM   13  C   UNL     1     -11.357  11.244  66.532  1.00  0.00    -0.047 C  
HETATM   14  O   UNL     1     -11.875  11.232  67.641  1.00  0.00    -0.614 OA 
BRANCH  13  15
HETATM   15  N   UNL     1     -11.721  12.105  65.531  1.00  0.00    -0.361 N  
HETATM   16  H   UNL     1     -11.548  11.856  64.557  1.00  0.00     0.000 HD 
BRANCH  15  17
HETATM   17  C   UNL     1     -12.342  13.355  65.853  1.00  0.00    -0.437 C  
BRANCH  17  18
HETATM   18  N   UNL     1     -11.420  14.280  66.459  1.00  0.00    -0.347 N  
HETATM   19  H   UNL     1     -10.624  14.635  65.929  1.00  0.00     0.000 HD 
BRANCH  18  20
HETATM   20  C   UNL     1     -11.621  14.679  67.754  1.00  0.00    -0.359 C  
HETATM   21  O   UNL     1     -12.053  13.945  68.634  1.00  0.00    -0.358 OA 
BRANCH  20  22
HETATM   22  N   UNL     1     -11.272  15.993  67.960  1.00  0.00    -0.333 N  
HETATM   23  H   UNL     1     -11.933  16.674  68.331  1.00  0.00     0.000 HD 
BRANCH  22  24
HETATM   24  C   UNL     1      -9.921  16.350  67.624  1.00  0.00    -0.252 C  
HETATM   25  N   UNL     1      -9.703  17.713  67.207  1.00  0.00    -0.277 N  
HETATM   26  O   UNL     1      -8.922  15.577  69.772  1.00  0.00    -0.240 OA 
HETATM   27  C   UNL     1      -8.492  18.189  67.667  1.00  0.00    -0.244 C  
HETATM   28  N   UNL     1      -8.019  17.326  68.600  1.00  0.00    -0.264 NA 
HETATM   29  O   UNL     1      -7.948  19.230  67.340  1.00  0.00    -0.258 OA 
HETATM   30  C   UNL     1      -8.929  16.332  68.812  1.00  0.00    -0.243 C  
BRANCH  25  31
HETATM   31  C   UNL     1     -10.487  18.371  66.210  1.00  0.00    -0.393 C  
HETATM   32  H   UNL     1     -11.769  19.818  66.169  1.00  0.00     0.000 HD 
HETATM   33  O   UNL     1     -11.247  19.380  66.831  1.00  0.00    -0.276 OA 
ENDBRANCH  25  31
ENDBRANCH  22  24
ENDBRANCH  20  22
ENDBRANCH  18  20
ENDBRANCH  17  18
ENDBRANCH  15  17
ENDBRANCH  13  15
ENDBRANCH  11  13
ENDBRANCH   5  11
ENDBRANCH   2   4
TORSDOF 10
ENDMDL
MODEL      247
REMARK 921   NORMALIZED FREE ENERGY PREDICTED BY IDOCK:   -4.50 KCAL/MOL
REMARK 922        TOTAL FREE ENERGY PREDICTED BY IDOCK:   -9.13 KCAL/MOL
REMARK 923 INTER-LIGAND FREE ENERGY PREDICTED BY IDOCK:   -7.34 KCAL/MOL
REMARK 924 INTRA-LIGAND FREE ENERGY PREDICTED BY IDOCK:   -1.79 KCAL/MOL
REMARK 927      BINDING AFFINITY PREDICTED BY RF-SCORE:    0.00 PKD
ROOT
HETATM    1  O   UNL     1     -11.122   5.904  66.412  1.00  0.00    -0.722 OA 
HETATM    2  C   UNL     1     -10.961   7.136  67.072  1.00  0.00    -0.234 C  
HETATM    3  H   UNL     1     -12.001   5.581  66.571  1.00  0.00     0.000 HD 
ENDROOT
BRANCH   2   4
HETATM    4  N   UNL     1      -9.636   7.623  66.833  1.00  0.00    -0.179 N  
HETATM    5  C   UNL     1      -9.387   8.591  65.784  1.00  0.00    -0.118 C  
HETATM    6  O   UNL     1      -8.571   5.717  67.631  1.00  0.00    -0.110 OA 
HETATM    7  C   UNL     1      -8.051   8.036  65.239  1.00  0.00    -0.138 C  
HETATM    8  N   UNL     1      -7.592   7.100  66.114  1.00  0.00    -0.089 NA 
HETATM    9  O   UNL     1      -7.441   8.398  64.244  1.00  0.00    -0.098 OA 
HETATM   10  C   UNL     1      -8.582   6.735  66.958  1.00  0.00    -0.114 C  
BRANCH   5  11
HETATM   11  N   UNL     1      -9.181   9.910  66.329  1.00  0.00    -0.161 N  
HETATM   12  H   UNL     1      -8.775  10.012  67.258  1.00  0.00     0.000 HD 
BRANCH  11  13
HETATM   13  C   UNL     1      -9.523  11.024  65.618  1.00  0.00    -0.217 C  
HETATM   14  O   UNL     1      -9.947  10.994  64.471  1.00  0.00    -0.258 OA 
BRANCH  13  15
HETATM   15  N   UNL     1      -9.414  12.170  66.360  1.00  0.00    -0.230 N  
HETATM   16  H   UNL     1      -9.608  13.075  65.932  1.00  0.00     0.000 HD 
BRANCH  15  17
HETATM   17  C   UNL     1      -9.026  12.096  67.738  1.00  0.00    -0.179 C  
BRANCH  17  18
HETATM   18  N   UNL     1     -10.132  12.334  68.627  1.00  0.00    -0.360 N  
HETATM   19  H   UNL     1     -10.316  13.273  68.981  1.00  0.00     0.000 HD 
BRANCH  18  20
HETATM   20  C   UNL     1     -10.937  11.288  68.995  1.00  0.00    -0.236 C  
HETATM   21  O   UNL     1     -11.679  10.695  68.223  1.00  0.00    -0.445 OA 
BRANCH  20  22
HETATM   22  N   UNL     1     -10.811  10.969  70.326  1.00  0.00    -0.396 N  
HETATM   23  H   UNL     1     -10.367  11.601  70.992  1.00  0.00     0.000 HD 
BRANCH  22  24
HETATM   24  C   UNL     1     -11.340   9.693  70.726  1.00  0.00    -0.340 C  
HETATM   25  N   UNL     1     -10.492   8.882  71.564  1.00  0.00    -0.295 N  
HETATM   26  O   UNL     1     -13.460  10.596  71.676  1.00  0.00    -0.300 OA 
HETATM   27  C   UNL     1     -11.233   8.187  72.500  1.00  0.00    -0.391 C  
HETATM   28  N   UNL     1     -12.488   8.702  72.521  1.00  0.00    -0.366 NA 
HETATM   29  O   UNL     1     -10.832   7.295  73.227  1.00  0.00    -0.350 OA 
HETATM   30  C   UNL     1     -12.564   9.765  71.670  1.00  0.00    -0.416 C  
BRANCH  25  31
HETATM   31  C   UNL     1      -9.121   8.605  71.273  1.00  0.00    -0.212 C  
HETATM   32  H   UNL     1      -7.435   8.753  72.207  1.00  0.00     0.000 HD 
HETATM   33  O   UNL     1      -8.347   8.936  72.400  1.00  0.00    -0.386 OA 
ENDBRANCH  25  31
ENDBRANCH  22  24
ENDBRANCH  20  22
ENDBRANCH  18  20
ENDBRANCH  17  18
ENDBRANCH  15  17
ENDBRANCH  13  15
ENDBRANCH  11  13
ENDBRANCH   5  11
ENDBRANCH   2   4
TORSDOF 10
ENDMDL
MODEL      248
REMARK 921   NORMALIZED FREE ENERGY PREDICTED BY IDOCK:   -4.50 KCAL/MOL
REMARK 922        TOTAL FREE ENERGY PREDICTED BY IDOCK:   -9.13 KCAL/MOL
REMARK 923 INTER-LIGAND FREE ENERGY PREDICTED BY IDOCK:   -7.72 KCAL/MOL
REMARK 924 INTRA-LIGAND FREE ENERGY PREDICTED BY IDOCK:   -1.41 KCAL/MOL
REMARK 927      BINDING AFFINITY PREDICTED BY RF-SCORE:    0.00 PKD
ROOT
HETATM    1  O   UNL     1      -8.955   8.116  67.489  1.00  0.00    -0.136 OA 
HETATM    2  C   UNL     1     -10.011   7.516  66.778  1.00  0.00    -0.237 C  
HETATM    3  H   UNL     1      -8.678   8.898  67.027  1.00  0.00     0.000 HD 
ENDROOT
BRANCH   2   4
HETATM    4  N   UNL     1     -10.430   6.336  67.475  1.00  0.00    -0.201 N  
HETATM    5  C   UNL     1     -10.275   6.238  68.912  1.00  0.00    -0.181 C  
HETATM    6  O   UNL     1     -10.124   4.911  65.664  1.00  0.00    -0.177 OA 
HETATM    7  C   UNL     1      -9.830   4.762  69.020  1.00  0.00    -0.168 C  
HETATM    8  N   UNL     1     -10.034   4.169  67.812  1.00  0.00    -0.047 NA 
HETATM    9  O   UNL     1      -9.433   4.170  70.013  1.00  0.00    -0.153 OA 
HETATM   10  C   UNL     1     -10.227   5.111  66.863  1.00  0.00    -0.239 C  
BRANCH   5  11
HETATM   11  N   UNL     1     -11.538   6.417  69.585  1.00  0.00    -0.598 N  
HETATM   12  H   UNL     1     -12.357   5.904  69.263  1.00  0.00     0.000 HD 
BRANCH  11  13
HETATM   13  C   UNL     1     -11.651   7.265  70.649  1.00  0.00    -0.290 C  
HETATM   14  O   UNL     1     -12.612   7.281  71.406  1.00  0.00    -0.355 OA 
BRANCH  13  15
HETATM   15  N   UNL     1     -10.533   8.039  70.821  1.00  0.00    -0.204 N  
HETATM   16  H   UNL     1      -9.621   7.690  70.527  1.00  0.00     0.000 HD 
BRANCH  15  17
HETATM   17  C   UNL     1     -10.648   9.338  71.414  1.00  0.00    -0.347 C  
BRANCH  17  18
HETATM   18  N   UNL     1     -10.914  10.361  70.436  1.00  0.00    -0.402 N  
HETATM   19  H   UNL     1     -10.219  10.585  69.723  1.00  0.00     0.000 HD 
BRANCH  18  20
HETATM   20  C   UNL     1     -12.109  11.030  70.470  1.00  0.00    -0.377 C  
HETATM   21  O   UNL     1     -12.896  10.972  71.405  1.00  0.00    -0.400 OA 
BRANCH  20  22
HETATM   22  N   UNL     1     -12.320  11.788  69.342  1.00  0.00    -0.125 N  
HETATM   23  H   UNL     1     -13.012  11.526  68.639  1.00  0.00     0.000 HD 
BRANCH  22  24
HETATM   24  C   UNL     1     -11.511  12.968  69.209  1.00  0.00    -0.289 C  
HETATM   25  N   UNL     1     -11.346  13.486  67.873  1.00  0.00    -0.273 N  
HETATM   26  O   UNL     1     -12.779  14.320  70.875  1.00  0.00    -0.323 OA 
HETATM   27  C   UNL     1     -11.319  14.866  67.873  1.00  0.00    -0.327 C  
HETATM   28  N   UNL     1     -11.739  15.304  69.086  1.00  0.00    -0.320 NA 
HETATM   29  O   UNL     1     -11.020  15.587  66.936  1.00  0.00    -0.317 OA 
HETATM   30  C   UNL     1     -12.108  14.241  69.857  1.00  0.00    -0.347 C  
BRANCH  25  31
HETATM   31  C   UNL     1     -10.964  12.684  66.755  1.00  0.00    -0.262 C  
HETATM   32  H   UNL     1     -11.871  11.611  65.427  1.00  0.00     0.000 HD 
HETATM   33  O   UNL     1     -12.125  12.145  66.171  1.00  0.00    -0.621 OA 
ENDBRANCH  25  31
ENDBRANCH  22  24
ENDBRANCH  20  22
ENDBRANCH  18  20
ENDBRANCH  17  18
ENDBRANCH  15  17
ENDBRANCH  13  15
ENDBRANCH  11  13
ENDBRANCH   5  11
ENDBRANCH   2   4
TORSDOF 10
ENDMDL
MODEL      249
REMARK 921   NORMALIZED FREE ENERGY PREDICTED BY IDOCK:   -4.50 KCAL/MOL
REMARK 922        TOTAL FREE ENERGY PREDICTED BY IDOCK:   -9.12 KCAL/MOL
REMARK 923 INTER-LIGAND FREE ENERGY PREDICTED BY IDOCK:   -6.96 KCAL/MOL
REMARK 924 INTRA-LIGAND FREE ENERGY PREDICTED BY IDOCK:   -2.16 KCAL/MOL
REMARK 927      BINDING AFFINITY PREDICTED BY RF-SCORE:    0.00 PKD
ROOT
HETATM    1  O   UNL     1     -11.228   5.497  66.101  1.00  0.00    -0.774 OA 
HETATM    2  C   UNL     1     -10.925   6.540  66.995  1.00  0.00    -0.396 C  
HETATM    3  H   UNL     1     -12.160   5.318  66.139  1.00  0.00     0.000 HD 
ENDROOT
BRANCH   2   4
HETATM    4  N   UNL     1      -9.520   6.810  66.937  1.00  0.00    -0.150 N  
HETATM    5  C   UNL     1      -8.990   7.744  65.964  1.00  0.00    -0.145 C  
HETATM    6  O   UNL     1      -8.881   4.741  67.782  1.00  0.00    -0.103 OA 
HETATM    7  C   UNL     1      -7.702   6.990  65.563  1.00  0.00    -0.105 C  
HETATM    8  N   UNL     1      -7.512   5.975  66.450  1.00  0.00    -0.085 NA 
HETATM    9  O   UNL     1      -6.922   7.266  64.664  1.00  0.00    -0.049 OA 
HETATM   10  C   UNL     1      -8.645   5.760  67.153  1.00  0.00    -0.109 C  
BRANCH   5  11
HETATM   11  N   UNL     1      -8.647   9.001  66.581  1.00  0.00    -0.125 N  
HETATM   12  H   UNL     1      -7.790   9.076  67.127  1.00  0.00     0.000 HD 
BRANCH  11  13
HETATM   13  C   UNL     1      -9.455  10.093  66.444  1.00  0.00    -0.176 C  
HETATM   14  O   UNL     1     -10.657  10.025  66.226  1.00  0.00    -0.156 OA 
BRANCH  13  15
HETATM   15  N   UNL     1      -8.784  11.268  66.659  1.00  0.00    -0.169 N  
HETATM   16  H   UNL     1      -7.825  11.375  66.331  1.00  0.00     0.000 HD 
BRANCH  15  17
HETATM   17  C   UNL     1      -9.432  12.346  67.345  1.00  0.00    -0.186 C  
BRANCH  17  18
HETATM   18  N   UNL     1      -9.949  11.942  68.627  1.00  0.00    -0.328 N  
HETATM   19  H   UNL     1      -9.312  11.688  69.382  1.00  0.00     0.000 HD 
BRANCH  18  20
HETATM   20  C   UNL     1     -11.304  11.902  68.824  1.00  0.00    -0.274 C  
HETATM   21  O   UNL     1     -12.062  12.818  68.536  1.00  0.00    -0.270 OA 
BRANCH  20  22
HETATM   22  N   UNL     1     -11.721  10.711  69.370  1.00  0.00    -0.383 N  
HETATM   23  H   UNL     1     -12.463  10.154  68.946  1.00  0.00     0.000 HD 
BRANCH  22  24
HETATM   24  C   UNL     1     -11.051  10.295  70.572  1.00  0.00    -0.306 C  
HETATM   25  N   UNL     1     -11.824   9.500  71.495  1.00  0.00    -0.381 N  
HETATM   26  O   UNL     1      -9.109   9.244  69.416  1.00  0.00    -0.141 OA 
HETATM   27  C   UNL     1     -11.043   8.536  72.099  1.00  0.00    -0.366 C  
HETATM   28  N   UNL     1      -9.866   8.455  71.429  1.00  0.00    -0.181 NA 
HETATM   29  O   UNL     1     -11.357   7.833  73.044  1.00  0.00    -0.399 OA 
HETATM   30  C   UNL     1      -9.889   9.295  70.355  1.00  0.00    -0.241 C  
BRANCH  25  31
HETATM   31  C   UNL     1     -13.134   9.855  71.941  1.00  0.00    -0.459 C  
HETATM   32  H   UNL     1     -14.069  11.491  72.374  1.00  0.00     0.000 HD 
HETATM   33  O   UNL     1     -13.198  11.254  72.077  1.00  0.00    -0.506 OA 
ENDBRANCH  25  31
ENDBRANCH  22  24
ENDBRANCH  20  22
ENDBRANCH  18  20
ENDBRANCH  17  18
ENDBRANCH  15  17
ENDBRANCH  13  15
ENDBRANCH  11  13
ENDBRANCH   5  11
ENDBRANCH   2   4
TORSDOF 10
ENDMDL
MODEL      250
REMARK 921   NORMALIZED FREE ENERGY PREDICTED BY IDOCK:   -4.49 KCAL/MOL
REMARK 922        TOTAL FREE ENERGY PREDICTED BY IDOCK:   -9.11 KCAL/MOL
REMARK 923 INTER-LIGAND FREE ENERGY PREDICTED BY IDOCK:   -6.95 KCAL/MOL
REMARK 924 INTRA-LIGAND FREE ENERGY PREDICTED BY IDOCK:   -2.16 KCAL/MOL
REMARK 927      BINDING AFFINITY PREDICTED BY RF-SCORE:    0.00 PKD
ROOT
HETATM    1  O   UNL     1      -7.357  16.337  68.792  1.00  0.00    -0.166 OA 
HETATM    2  C   UNL     1      -7.569  16.879  67.511  1.00  0.00    -0.165 C  
HETATM    3  H   UNL     1      -6.739  15.619  68.726  1.00  0.00     0.000 HD 
ENDROOT
BRANCH   2   4
HETATM    4  N   UNL     1      -8.503  17.961  67.611  1.00  0.00    -0.232 N  
HETATM    5  C   UNL     1      -9.675  18.001  66.760  1.00  0.00    -0.323 C  
HETATM    6  O   UNL     1      -6.943  19.505  68.375  1.00  0.00    -0.272 OA 
HETATM    7  C   UNL     1      -9.704  19.512  66.440  1.00  0.00    -0.401 C  
HETATM    8  N   UNL     1      -8.828  20.139  67.271  1.00  0.00    -0.342 NA 
HETATM    9  O   UNL     1     -10.425  20.095  65.643  1.00  0.00    -0.416 OA 
HETATM   10  C   UNL     1      -8.006  19.231  67.842  1.00  0.00    -0.292 C  
BRANCH   5  11
HETATM   11  N   UNL     1     -10.862  17.634  67.491  1.00  0.00    -0.279 N  
HETATM   12  H   UNL     1     -11.699  18.212  67.414  1.00  0.00     0.000 HD 
BRANCH  11  13
HETATM   13  C   UNL     1     -10.883  16.524  68.285  1.00  0.00    -0.352 C  
HETATM   14  O   UNL     1     -10.989  16.563  69.503  1.00  0.00    -0.318 OA 
BRANCH  13  15
HETATM   15  N   UNL     1     -10.852  15.363  67.559  1.00  0.00    -0.299 N  
HETATM   16  H   UNL     1     -10.470  15.362  66.614  1.00  0.00     0.000 HD 
BRANCH  15  17
HETATM   17  C   UNL     1     -11.356  14.149  68.130  1.00  0.00    -0.290 C  
BRANCH  17  18
HETATM   18  N   UNL     1     -10.383  13.497  68.967  1.00  0.00    -0.427 N  
HETATM   19  H   UNL     1     -10.529  13.438  69.976  1.00  0.00     0.000 HD 
BRANCH  18  20
HETATM   20  C   UNL     1      -9.260  12.957  68.399  1.00  0.00    -0.137 C  
HETATM   21  O   UNL     1      -8.471  13.592  67.712  1.00  0.00    -0.157 OA 
BRANCH  20  22
HETATM   22  N   UNL     1      -9.109  11.623  68.697  1.00  0.00    -0.336 N  
HETATM   23  H   UNL     1      -8.833  11.306  69.626  1.00  0.00     0.000 HD 
BRANCH  22  24
HETATM   24  C   UNL     1      -9.364  10.701  67.624  1.00  0.00    -0.146 C  
HETATM   25  N   UNL     1      -8.671   9.437  67.687  1.00  0.00    -0.116 N  
HETATM   26  O   UNL     1     -11.844  10.725  67.868  1.00  0.00    -0.553 OA 
HETATM   27  C   UNL     1      -9.465   8.409  67.220  1.00  0.00    -0.154 C  
HETATM   28  N   UNL     1     -10.739   8.864  67.117  1.00  0.00    -0.216 NA 
HETATM   29  O   UNL     1      -9.111   7.267  66.983  1.00  0.00    -0.127 OA 
HETATM   30  C   UNL     1     -10.809  10.147  67.573  1.00  0.00    -0.290 C  
BRANCH  25  31
HETATM   31  C   UNL     1      -7.266   9.315  67.914  1.00  0.00    -0.079 C  
HETATM   32  H   UNL     1      -5.692  10.377  67.550  1.00  0.00     0.000 HD 
HETATM   33  O   UNL     1      -6.627  10.458  67.400  1.00  0.00    -0.066 OA 
ENDBRANCH  25  31
ENDBRANCH  22  24
ENDBRANCH  20  22
ENDBRANCH  18  20
ENDBRANCH  17  18
ENDBRANCH  15  17
ENDBRANCH  13  15
ENDBRANCH  11  13
ENDBRANCH   5  11
ENDBRANCH   2   4
TORSDOF 10
ENDMDL
MODEL      251
REMARK 921   NORMALIZED FREE ENERGY PREDICTED BY IDOCK:   -4.48 KCAL/MOL
REMARK 922        TOTAL FREE ENERGY PREDICTED BY IDOCK:   -9.09 KCAL/MOL
REMARK 923 INTER-LIGAND FREE ENERGY PREDICTED BY IDOCK:   -8.00 KCAL/MOL
REMARK 924 INTRA-LIGAND FREE ENERGY PREDICTED BY IDOCK:   -1.08 KCAL/MOL
REMARK 927      BINDING AFFINITY PREDICTED BY RF-SCORE:    0.00 PKD
ROOT
HETATM    1  O   UNL     1     -11.727   6.444  67.785  1.00  0.00    -0.510 OA 
HETATM    2  C   UNL     1     -10.912   6.211  68.908  1.00  0.00    -0.356 C  
HETATM    3  H   UNL     1     -11.788   5.644  67.276  1.00  0.00     0.000 HD 
ENDROOT
BRANCH   2   4
HETATM    4  N   UNL     1     -10.821   7.418  69.675  1.00  0.00    -0.233 N  
HETATM    5  C   UNL     1      -9.542   8.072  69.865  1.00  0.00    -0.171 C  
HETATM    6  O   UNL     1     -12.672   6.957  71.002  1.00  0.00    -0.356 OA 
HETATM    7  C   UNL     1      -9.691   8.495  71.344  1.00  0.00    -0.220 C  
HETATM    8  N   UNL     1     -10.990   8.316  71.707  1.00  0.00    -0.260 NA 
HETATM    9  O   UNL     1      -8.839   8.981  72.073  1.00  0.00    -0.373 OA 
HETATM   10  C   UNL     1     -11.619   7.539  70.798  1.00  0.00    -0.277 C  
BRANCH   5  11
HETATM   11  N   UNL     1      -9.425   9.243  69.032  1.00  0.00    -0.153 N  
HETATM   12  H   UNL     1      -8.528   9.721  68.959  1.00  0.00     0.000 HD 
BRANCH  11  13
HETATM   13  C   UNL     1     -10.501   9.721  68.340  1.00  0.00    -0.218 C  
HETATM   14  O   UNL     1     -11.305  10.518  68.801  1.00  0.00    -0.255 OA 
BRANCH  13  15
HETATM   15  N   UNL     1     -10.531   9.269  67.047  1.00  0.00    -0.250 N  
HETATM   16  H   UNL     1     -11.029   8.409  66.818  1.00  0.00     0.000 HD 
BRANCH  15  17
HETATM   17  C   UNL     1      -9.862  10.006  66.017  1.00  0.00    -0.257 C  
BRANCH  17  18
HETATM   18  N   UNL     1     -10.400  11.332  65.859  1.00  0.00    -0.246 N  
HETATM   19  H   UNL     1     -11.363  11.463  65.549  1.00  0.00     0.000 HD 
BRANCH  18  20
HETATM   20  C   UNL     1      -9.608  12.417  66.131  1.00  0.00    -0.233 C  
HETATM   21  O   UNL     1      -8.810  12.463  67.057  1.00  0.00    -0.198 OA 
BRANCH  20  22
HETATM   22  N   UNL     1      -9.801  13.445  65.238  1.00  0.00    -0.527 N  
HETATM   23  H   UNL     1      -9.641  13.328  64.238  1.00  0.00     0.000 HD 
BRANCH  22  24
HETATM   24  C   UNL     1     -10.242  14.695  65.796  1.00  0.00    -0.340 C  
HETATM   25  N   UNL     1     -11.335  14.628  66.735  1.00  0.00    -0.348 N  
HETATM   26  O   UNL     1      -7.996  15.400  66.615  1.00  0.00    -0.201 OA 
HETATM   27  C   UNL     1     -11.179  15.552  67.749  1.00  0.00    -0.302 C  
HETATM   28  N   UNL     1      -9.912  16.033  67.700  1.00  0.00    -0.236 NA 
HETATM   29  O   UNL     1     -12.010  15.860  68.586  1.00  0.00    -0.338 OA 
HETATM   30  C   UNL     1      -9.213  15.392  66.719  1.00  0.00    -0.249 C  
BRANCH  25  31
HETATM   31  C   UNL     1     -12.550  13.920  66.486  1.00  0.00    -0.201 C  
HETATM   32  H   UNL     1     -13.652  13.530  64.946  1.00  0.00     0.000 HD 
HETATM   33  O   UNL     1     -12.844  14.001  65.112  1.00  0.00    -0.696 OA 
ENDBRANCH  25  31
ENDBRANCH  22  24
ENDBRANCH  20  22
ENDBRANCH  18  20
ENDBRANCH  17  18
ENDBRANCH  15  17
ENDBRANCH  13  15
ENDBRANCH  11  13
ENDBRANCH   5  11
ENDBRANCH   2   4
TORSDOF 10
ENDMDL
MODEL      252
REMARK 921   NORMALIZED FREE ENERGY PREDICTED BY IDOCK:   -4.46 KCAL/MOL
REMARK 922        TOTAL FREE ENERGY PREDICTED BY IDOCK:   -9.06 KCAL/MOL
REMARK 923 INTER-LIGAND FREE ENERGY PREDICTED BY IDOCK:   -7.90 KCAL/MOL
REMARK 924 INTRA-LIGAND FREE ENERGY PREDICTED BY IDOCK:   -1.16 KCAL/MOL
REMARK 927      BINDING AFFINITY PREDICTED BY RF-SCORE:    0.00 PKD
ROOT
HETATM    1  O   UNL     1     -12.549  14.463  73.140  1.00  0.00    -0.362 OA 
HETATM    2  C   UNL     1     -11.646  15.329  72.496  1.00  0.00    -0.397 C  
HETATM    3  H   UNL     1     -12.548  14.653  74.071  1.00  0.00     0.000 HD 
ENDROOT
BRANCH   2   4
HETATM    4  N   UNL     1     -11.647  15.042  71.093  1.00  0.00    -0.325 N  
HETATM    5  C   UNL     1     -10.714  15.708  70.207  1.00  0.00    -0.338 C  
HETATM    6  O   UNL     1     -13.892  14.446  71.007  1.00  0.00    -0.278 OA 
HETATM    7  C   UNL     1     -11.643  15.950  68.996  1.00  0.00    -0.389 C  
HETATM    8  N   UNL     1     -12.781  15.229  69.184  1.00  0.00     0.239 NA 
HETATM    9  O   UNL     1     -11.407  16.604  67.990  1.00  0.00    -0.251 OA 
HETATM   10  C   UNL     1     -12.864  14.828  70.471  1.00  0.00    -0.322 C  
BRANCH   5  11
HETATM   11  N   UNL     1      -9.637  14.828  69.826  1.00  0.00    -0.415 N  
HETATM   12  H   UNL     1      -9.769  13.818  69.881  1.00  0.00     0.000 HD 
BRANCH  11  13
HETATM   13  C   UNL     1      -8.442  15.327  69.394  1.00  0.00    -0.231 C  
HETATM   14  O   UNL     1      -8.335  16.342  68.719  1.00  0.00    -0.209 OA 
BRANCH  13  15
HETATM   15  N   UNL     1      -7.375  14.611  69.868  1.00  0.00    -0.393 N  
HETATM   16  H   UNL     1      -7.158  14.618  70.864  1.00  0.00     0.000 HD 
BRANCH  15  17
HETATM   17  C   UNL     1      -6.565  13.852  68.962  1.00  0.00    -0.107 C  
BRANCH  17  18
HETATM   18  N   UNL     1      -7.203  13.666  67.686  1.00  0.00    -0.161 N  
HETATM   19  H   UNL     1      -7.405  14.469  67.089  1.00  0.00     0.000 HD 
BRANCH  18  20
HETATM   20  C   UNL     1      -7.538  12.401  67.278  1.00  0.00    -0.141 C  
HETATM   21  O   UNL     1      -6.985  11.387  67.681  1.00  0.00    -0.073 OA 
BRANCH  20  22
HETATM   22  N   UNL     1      -8.574  12.397  66.374  1.00  0.00    -0.411 N  
HETATM   23  H   UNL     1      -8.434  12.146  65.395  1.00  0.00     0.000 HD 
BRANCH  22  24
HETATM   24  C   UNL     1      -9.865  12.766  66.887  1.00  0.00    -0.236 C  
HETATM   25  N   UNL     1     -10.600  13.747  66.128  1.00  0.00    -0.287 N  
HETATM   26  O   UNL     1     -10.749  10.438  67.015  1.00  0.00    -0.261 OA 
HETATM   27  C   UNL     1     -11.954  13.475  66.137  1.00  0.00    -0.412 C  
HETATM   28  N   UNL     1     -12.135  12.218  66.615  1.00  0.00    -0.589 NA 
HETATM   29  O   UNL     1     -12.845  14.205  65.740  1.00  0.00    -0.502 OA 
HETATM   30  C   UNL     1     -10.924  11.637  66.852  1.00  0.00    -0.292 C  
BRANCH  25  31
HETATM   31  C   UNL     1     -10.043  14.987  65.687  1.00  0.00    -0.362 C  
HETATM   32  H   UNL     1     -10.452  16.300  64.328  1.00  0.00     0.000 HD 
HETATM   33  O   UNL     1     -10.822  15.475  64.621  1.00  0.00    -0.397 OA 
ENDBRANCH  25  31
ENDBRANCH  22  24
ENDBRANCH  20  22
ENDBRANCH  18  20
ENDBRANCH  17  18
ENDBRANCH  15  17
ENDBRANCH  13  15
ENDBRANCH  11  13
ENDBRANCH   5  11
ENDBRANCH   2   4
TORSDOF 10
ENDMDL
MODEL      253
REMARK 921   NORMALIZED FREE ENERGY PREDICTED BY IDOCK:   -4.46 KCAL/MOL
REMARK 922        TOTAL FREE ENERGY PREDICTED BY IDOCK:   -9.06 KCAL/MOL
REMARK 923 INTER-LIGAND FREE ENERGY PREDICTED BY IDOCK:   -7.81 KCAL/MOL
REMARK 924 INTRA-LIGAND FREE ENERGY PREDICTED BY IDOCK:   -1.24 KCAL/MOL
REMARK 927      BINDING AFFINITY PREDICTED BY RF-SCORE:    0.00 PKD
ROOT
HETATM    1  O   UNL     1     -11.310  10.950  63.207  1.00  0.00    -0.521 OA 
HETATM    2  C   UNL     1     -10.313  11.911  63.455  1.00  0.00    -0.458 C  
HETATM    3  H   UNL     1     -11.009  10.361  62.525  1.00  0.00     0.000 HD 
ENDROOT
BRANCH   2   4
HETATM    4  N   UNL     1     -10.768  12.799  64.483  1.00  0.00    -0.335 N  
HETATM    5  C   UNL     1     -10.518  12.497  65.878  1.00  0.00    -0.265 C  
HETATM    6  O   UNL     1     -12.551  13.640  63.252  1.00  0.00    -0.816 OA 
HETATM    7  C   UNL     1     -11.870  12.944  66.480  1.00  0.00    -0.407 C  
HETATM    8  N   UNL     1     -12.550  13.636  65.526  1.00  0.00    -0.499 NA 
HETATM    9  O   UNL     1     -12.265  12.793  67.626  1.00  0.00    -0.321 OA 
HETATM   10  C   UNL     1     -11.994  13.418  64.314  1.00  0.00    -0.430 C  
BRANCH   5  11
HETATM   11  N   UNL     1      -9.455  13.315  66.406  1.00  0.00    -0.362 N  
HETATM   12  H   UNL     1      -9.186  14.168  65.917  1.00  0.00     0.000 HD 
BRANCH  11  13
HETATM   13  C   UNL     1      -8.802  12.962  67.552  1.00  0.00    -0.192 C  
HETATM   14  O   UNL     1      -7.805  13.534  67.969  1.00  0.00    -0.120 OA 
BRANCH  13  15
HETATM   15  N   UNL     1      -9.436  11.949  68.222  1.00  0.00    -0.194 N  
HETATM   16  H   UNL     1     -10.444  11.987  68.370  1.00  0.00     0.000 HD 
BRANCH  15  17
HETATM   17  C   UNL     1      -8.680  10.836  68.716  1.00  0.00    -0.163 C  
BRANCH  17  18
HETATM   18  N   UNL     1      -9.249  10.282  69.916  1.00  0.00    -0.404 N  
HETATM   19  H   UNL     1      -9.560  10.896  70.670  1.00  0.00     0.000 HD 
BRANCH  18  20
HETATM   20  C   UNL     1      -9.371   8.923  70.039  1.00  0.00    -0.174 C  
HETATM   21  O   UNL     1      -8.995   8.126  69.190  1.00  0.00    -0.143 OA 
BRANCH  20  22
HETATM   22  N   UNL     1      -9.951   8.552  71.230  1.00  0.00    -0.203 N  
HETATM   23  H   UNL     1     -10.265   9.240  71.914  1.00  0.00     0.000 HD 
BRANCH  22  24
HETATM   24  C   UNL     1     -10.089   7.139  71.455  1.00  0.00    -0.188 C  
HETATM   25  N   UNL     1      -9.923   6.687  72.814  1.00  0.00    -0.170 N  
HETATM   26  O   UNL     1     -12.332   6.941  70.387  1.00  0.00    -0.254 OA 
HETATM   27  C   UNL     1     -10.786   5.649  73.104  1.00  0.00    -0.267 C  
HETATM   28  N   UNL     1     -11.710   5.570  72.114  1.00  0.00    -0.084 NA 
HETATM   29  O   UNL     1     -10.767   4.944  74.098  1.00  0.00    -0.289 OA 
HETATM   30  C   UNL     1     -11.513   6.580  71.218  1.00  0.00    -0.318 C  
BRANCH  25  31
HETATM   31  C   UNL     1      -8.820   7.057  73.643  1.00  0.00    -0.151 C  
HETATM   32  H   UNL     1      -6.940   7.429  73.387  1.00  0.00     0.000 HD 
HETATM   33  O   UNL     1      -7.674   7.183  72.836  1.00  0.00    -0.085 OA 
ENDBRANCH  25  31
ENDBRANCH  22  24
ENDBRANCH  20  22
ENDBRANCH  18  20
ENDBRANCH  17  18
ENDBRANCH  15  17
ENDBRANCH  13  15
ENDBRANCH  11  13
ENDBRANCH   5  11
ENDBRANCH   2   4
TORSDOF 10
ENDMDL
MODEL      254
REMARK 921   NORMALIZED FREE ENERGY PREDICTED BY IDOCK:   -4.45 KCAL/MOL
REMARK 922        TOTAL FREE ENERGY PREDICTED BY IDOCK:   -9.05 KCAL/MOL
REMARK 923 INTER-LIGAND FREE ENERGY PREDICTED BY IDOCK:   -6.85 KCAL/MOL
REMARK 924 INTRA-LIGAND FREE ENERGY PREDICTED BY IDOCK:   -2.20 KCAL/MOL
REMARK 927      BINDING AFFINITY PREDICTED BY RF-SCORE:    0.00 PKD
ROOT
HETATM    1  O   UNL     1     -11.027  13.161  69.773  1.00  0.00    -0.459 OA 
HETATM    2  C   UNL     1     -11.739  11.987  69.465  1.00  0.00    -0.342 C  
HETATM    3  H   UNL     1     -10.980  13.707  68.997  1.00  0.00     0.000 HD 
ENDROOT
BRANCH   2   4
HETATM    4  N   UNL     1     -11.811  11.165  70.635  1.00  0.00    -0.337 N  
HETATM    5  C   UNL     1     -11.605   9.734  70.541  1.00  0.00    -0.292 C  
HETATM    6  O   UNL     1     -13.266  12.569  71.782  1.00  0.00    -0.435 OA 
HETATM    7  C   UNL     1     -12.690   9.256  71.532  1.00  0.00    -0.350 C  
HETATM    8  N   UNL     1     -13.146  10.339  72.217  1.00  0.00    -0.328 NA 
HETATM    9  O   UNL     1     -13.052   8.109  71.749  1.00  0.00    -0.332 OA 
HETATM   10  C   UNL     1     -12.761  11.474  71.592  1.00  0.00    -0.290 C  
BRANCH   5  11
HETATM   11  N   UNL     1     -10.300   9.362  71.030  1.00  0.00    -0.308 N  
HETATM   12  H   UNL     1     -10.166   9.193  72.026  1.00  0.00     0.000 HD 
BRANCH  11  13
HETATM   13  C   UNL     1      -9.243   9.232  70.177  1.00  0.00    -0.225 C  
HETATM   14  O   UNL     1      -8.074   9.328  70.525  1.00  0.00    -0.142 OA 
BRANCH  13  15
HETATM   15  N   UNL     1      -9.634   8.903  68.906  1.00  0.00    -0.158 N  
HETATM   16  H   UNL     1     -10.395   9.415  68.458  1.00  0.00     0.000 HD 
BRANCH  15  17
HETATM   17  C   UNL     1      -8.976   7.840  68.207  1.00  0.00    -0.131 C  
BRANCH  17  18
HETATM   18  N   UNL     1      -8.626   8.208  66.861  1.00  0.00    -0.122 N  
HETATM   19  H   UNL     1      -7.794   7.817  66.419  1.00  0.00     0.000 HD 
BRANCH  18  20
HETATM   20  C   UNL     1      -9.421   9.090  66.176  1.00  0.00    -0.253 C  
HETATM   21  O   UNL     1     -10.627   9.197  66.351  1.00  0.00    -0.144 OA 
BRANCH  20  22
HETATM   22  N   UNL     1      -8.710   9.851  65.278  1.00  0.00    -0.150 N  
HETATM   23  H   UNL     1      -8.236   9.435  64.476  1.00  0.00     0.000 HD 
BRANCH  22  24
HETATM   24  C   UNL     1      -8.673  11.265  65.533  1.00  0.00    -0.036 C  
HETATM   25  N   UNL     1      -9.904  11.987  65.323  1.00  0.00    -0.239 N  
HETATM   26  O   UNL     1      -7.776  11.069  67.850  1.00  0.00    -0.100 OA 
HETATM   27  C   UNL     1     -10.061  12.989  66.259  1.00  0.00    -0.282 C  
HETATM   28  N   UNL     1      -9.153  12.798  67.249  1.00  0.00    -0.192 NA 
HETATM   29  O   UNL     1     -10.898  13.875  66.243  1.00  0.00    -0.288 OA 
HETATM   30  C   UNL     1      -8.453  11.651  67.016  1.00  0.00    -0.168 C  
BRANCH  25  31
HETATM   31  C   UNL     1     -10.694  11.876  64.139  1.00  0.00    -0.351 C  
HETATM   32  H   UNL     1     -10.358  11.642  62.249  1.00  0.00     0.000 HD 
HETATM   33  O   UNL     1      -9.833  11.716  63.037  1.00  0.00    -0.393 OA 
ENDBRANCH  25  31
ENDBRANCH  22  24
ENDBRANCH  20  22
ENDBRANCH  18  20
ENDBRANCH  17  18
ENDBRANCH  15  17
ENDBRANCH  13  15
ENDBRANCH  11  13
ENDBRANCH   5  11
ENDBRANCH   2   4
TORSDOF 10
ENDMDL
MODEL      255
REMARK 921   NORMALIZED FREE ENERGY PREDICTED BY IDOCK:   -4.44 KCAL/MOL
REMARK 922        TOTAL FREE ENERGY PREDICTED BY IDOCK:   -9.03 KCAL/MOL
REMARK 923 INTER-LIGAND FREE ENERGY PREDICTED BY IDOCK:   -7.96 KCAL/MOL
REMARK 924 INTRA-LIGAND FREE ENERGY PREDICTED BY IDOCK:   -1.07 KCAL/MOL
REMARK 927      BINDING AFFINITY PREDICTED BY RF-SCORE:    0.00 PKD
ROOT
HETATM    1  O   UNL     1      -9.023  13.079  68.615  1.00  0.00    -0.363 OA 
HETATM    2  C   UNL     1      -9.671  11.869  68.304  1.00  0.00    -0.200 C  
HETATM    3  H   UNL     1      -8.389  12.921  69.305  1.00  0.00     0.000 HD 
ENDROOT
BRANCH   2   4
HETATM    4  N   UNL     1     -10.627  12.107  67.265  1.00  0.00    -0.223 N  
HETATM    5  C   UNL     1     -10.202  12.195  65.882  1.00  0.00    -0.244 C  
HETATM    6  O   UNL     1     -12.127  13.248  68.625  1.00  0.00    -0.337 OA 
HETATM    7  C   UNL     1     -11.108  13.356  65.412  1.00  0.00    -0.287 C  
HETATM    8  N   UNL     1     -12.041  13.583  66.377  1.00  0.00    -0.415 NA 
HETATM    9  O   UNL     1     -11.077  13.943  64.341  1.00  0.00    -0.376 OA 
HETATM   10  C   UNL     1     -11.672  12.976  67.526  1.00  0.00    -0.370 C  
BRANCH   5  11
HETATM   11  N   UNL     1     -10.534  10.994  65.157  1.00  0.00    -0.279 N  
HETATM   12  H   UNL     1     -11.437  10.921  64.690  1.00  0.00     0.000 HD 
BRANCH  11  13
HETATM   13  C   UNL     1      -9.655   9.952  65.087  1.00  0.00    -0.300 C  
HETATM   14  O   UNL     1      -8.560  10.023  64.546  1.00  0.00    -0.161 OA 
BRANCH  13  15
HETATM   15  N   UNL     1     -10.102   8.845  65.759  1.00  0.00    -0.348 N  
HETATM   16  H   UNL     1     -10.781   8.222  65.321  1.00  0.00     0.000 HD 
BRANCH  15  17
HETATM   17  C   UNL     1      -9.617   8.565  67.077  1.00  0.00    -0.188 C  
BRANCH  17  18
HETATM   18  N   UNL     1     -10.680   8.228  67.988  1.00  0.00    -0.447 N  
HETATM   19  H   UNL     1     -11.617   8.607  67.848  1.00  0.00     0.000 HD 
BRANCH  18  20
HETATM   20  C   UNL     1     -10.423   7.395  69.044  1.00  0.00    -0.210 C  
HETATM   21  O   UNL     1      -9.307   7.213  69.514  1.00  0.00    -0.149 OA 
BRANCH  20  22
HETATM   22  N   UNL     1     -11.561   6.793  69.529  1.00  0.00    -0.620 N  
HETATM   23  H   UNL     1     -12.122   6.162  68.957  1.00  0.00     0.000 HD 
BRANCH  22  24
HETATM   24  C   UNL     1     -11.914   7.104  70.887  1.00  0.00    -0.334 C  
HETATM   25  N   UNL     1     -11.016   6.625  71.909  1.00  0.00    -0.236 N  
HETATM   26  O   UNL     1     -12.120   9.562  70.527  1.00  0.00    -0.208 OA 
HETATM   27  C   UNL     1     -10.909   7.530  72.945  1.00  0.00    -0.373 C  
HETATM   28  N   UNL     1     -11.456   8.706  72.545  1.00  0.00    -0.303 NA 
HETATM   29  O   UNL     1     -10.373   7.341  74.024  1.00  0.00    -0.308 OA 
HETATM   30  C   UNL     1     -11.855   8.610  71.245  1.00  0.00    -0.295 C  
BRANCH  25  31
HETATM   31  C   UNL     1     -10.545   5.278  71.980  1.00  0.00    -0.216 C  
HETATM   32  H   UNL     1     -11.056   3.664  72.915  1.00  0.00     0.000 HD 
HETATM   33  O   UNL     1     -11.369   4.560  72.867  1.00  0.00    -0.163 OA 
ENDBRANCH  25  31
ENDBRANCH  22  24
ENDBRANCH  20  22
ENDBRANCH  18  20
ENDBRANCH  17  18
ENDBRANCH  15  17
ENDBRANCH  13  15
ENDBRANCH  11  13
ENDBRANCH   5  11
ENDBRANCH   2   4
TORSDOF 10
ENDMDL
MODEL      256
REMARK 921   NORMALIZED FREE ENERGY PREDICTED BY IDOCK:   -4.42 KCAL/MOL
REMARK 922        TOTAL FREE ENERGY PREDICTED BY IDOCK:   -9.00 KCAL/MOL
REMARK 923 INTER-LIGAND FREE ENERGY PREDICTED BY IDOCK:   -7.95 KCAL/MOL
REMARK 924 INTRA-LIGAND FREE ENERGY PREDICTED BY IDOCK:   -1.05 KCAL/MOL
REMARK 927      BINDING AFFINITY PREDICTED BY RF-SCORE:    0.00 PKD
ROOT
HETATM    1  O   UNL     1      -7.781  19.181  68.108  1.00  0.00    -0.273 OA 
HETATM    2  C   UNL     1      -7.516  17.799  68.140  1.00  0.00    -0.237 C  
HETATM    3  H   UNL     1      -7.010  19.650  68.403  1.00  0.00     0.000 HD 
ENDROOT
BRANCH   2   4
HETATM    4  N   UNL     1      -8.680  17.091  67.696  1.00  0.00    -0.213 N  
HETATM    5  C   UNL     1      -8.728  16.519  66.366  1.00  0.00    -0.322 C  
HETATM    6  O   UNL     1     -10.157  18.247  69.069  1.00  0.00    -0.379 OA 
HETATM    7  C   UNL     1     -10.193  16.852  65.999  1.00  0.00    -0.336 C  
HETATM    8  N   UNL     1     -10.828  17.268  67.128  1.00  0.00    -0.167 NA 
HETATM    9  O   UNL     1     -10.745  16.710  64.918  1.00  0.00    -0.710 OA 
HETATM   10  C   UNL     1      -9.920  17.567  68.083  1.00  0.00    -0.321 C  
BRANCH   5  11
HETATM   11  N   UNL     1      -8.549  15.089  66.406  1.00  0.00    -0.453 N  
HETATM   12  H   UNL     1      -7.899  14.645  65.760  1.00  0.00     0.000 HD 
BRANCH  11  13
HETATM   13  C   UNL     1      -9.240  14.321  67.299  1.00  0.00    -0.214 C  
HETATM   14  O   UNL     1      -9.183  14.472  68.512  1.00  0.00    -0.187 OA 
BRANCH  13  15
HETATM   15  N   UNL     1     -10.064  13.417  66.682  1.00  0.00    -0.269 N  
HETATM   16  H   UNL     1      -9.670  12.701  66.072  1.00  0.00     0.000 HD 
BRANCH  15  17
HETATM   17  C   UNL     1     -11.480  13.479  66.894  1.00  0.00    -0.344 C  
BRANCH  17  18
HETATM   18  N   UNL     1     -12.014  12.228  67.363  1.00  0.00    -0.241 N  
HETATM   19  H   UNL     1     -12.551  11.629  66.735  1.00  0.00     0.000 HD 
BRANCH  18  20
HETATM   20  C   UNL     1     -11.796  11.847  68.661  1.00  0.00    -0.308 C  
HETATM   21  O   UNL     1     -11.655  12.634  69.588  1.00  0.00    -0.285 OA 
BRANCH  20  22
HETATM   22  N   UNL     1     -11.767  10.480  68.811  1.00  0.00    -0.512 N  
HETATM   23  H   UNL     1     -12.398   9.868  68.294  1.00  0.00     0.000 HD 
BRANCH  22  24
HETATM   24  C   UNL     1     -10.797   9.964  69.738  1.00  0.00    -0.269 C  
HETATM   25  N   UNL     1     -11.317   9.261  70.884  1.00  0.00    -0.285 N  
HETATM   26  O   UNL     1      -9.490   8.693  68.038  1.00  0.00    -0.139 OA 
HETATM   27  C   UNL     1     -10.507   8.196  71.226  1.00  0.00    -0.209 C  
HETATM   28  N   UNL     1      -9.636   7.976  70.209  1.00  0.00    -0.171 NA 
HETATM   29  O   UNL     1     -10.579   7.524  72.240  1.00  0.00    -0.214 OA 
HETATM   30  C   UNL     1      -9.906   8.829  69.179  1.00  0.00    -0.181 C  
BRANCH  25  31
HETATM   31  C   UNL     1     -12.351   9.773  71.725  1.00  0.00    -0.386 C  
HETATM   32  H   UNL     1     -14.255  10.077  71.575  1.00  0.00     0.000 HD 
HETATM   33  O   UNL     1     -13.566   9.736  71.016  1.00  0.00    -0.320 OA 
ENDBRANCH  25  31
ENDBRANCH  22  24
ENDBRANCH  20  22
ENDBRANCH  18  20
ENDBRANCH  17  18
ENDBRANCH  15  17
ENDBRANCH  13  15
ENDBRANCH  11  13
ENDBRANCH   5  11
ENDBRANCH   2   4
TORSDOF 10
ENDMDL
MODEL      257
REMARK 921   NORMALIZED FREE ENERGY PREDICTED BY IDOCK:   -4.41 KCAL/MOL
REMARK 922        TOTAL FREE ENERGY PREDICTED BY IDOCK:   -8.98 KCAL/MOL
REMARK 923 INTER-LIGAND FREE ENERGY PREDICTED BY IDOCK:   -7.91 KCAL/MOL
REMARK 924 INTRA-LIGAND FREE ENERGY PREDICTED BY IDOCK:   -1.07 KCAL/MOL
REMARK 927      BINDING AFFINITY PREDICTED BY RF-SCORE:    0.00 PKD
ROOT
HETATM    1  O   UNL     1      -8.152  10.894  64.083  1.00  0.00    -0.364 OA 
HETATM    2  C   UNL     1      -7.868   9.751  63.312  1.00  0.00    -0.139 C  
HETATM    3  H   UNL     1      -7.861  11.665  63.611  1.00  0.00     0.000 HD 
ENDROOT
BRANCH   2   4
HETATM    4  N   UNL     1      -8.306   8.588  64.025  1.00  0.00    -0.136 N  
HETATM    5  C   UNL     1      -8.474   8.629  65.464  1.00  0.00    -0.165 C  
HETATM    6  O   UNL     1      -7.446   7.071  62.488  1.00  0.00    -0.074 OA 
HETATM    7  C   UNL     1      -7.910   7.235  65.824  1.00  0.00    -0.108 C  
HETATM    8  N   UNL     1      -7.769   6.525  64.672  1.00  0.00    -0.101 NA 
HETATM    9  O   UNL     1      -7.689   6.783  66.937  1.00  0.00    -0.099 OA 
HETATM   10  C   UNL     1      -7.840   7.354  63.608  1.00  0.00    -0.108 C  
BRANCH   5  11
HETATM   11  N   UNL     1      -9.868   8.699  65.824  1.00  0.00    -0.447 N  
HETATM   12  H   UNL     1     -10.566   8.873  65.102  1.00  0.00     0.000 HD 
BRANCH  11  13
HETATM   13  C   UNL     1     -10.266   8.536  67.120  1.00  0.00    -0.284 C  
HETATM   14  O   UNL     1     -10.931   7.587  67.512  1.00  0.00    -0.186 OA 
BRANCH  13  15
HETATM   15  N   UNL     1      -9.770   9.511  67.944  1.00  0.00    -0.144 N  
HETATM   16  H   UNL     1      -8.764   9.662  68.008  1.00  0.00     0.000 HD 
BRANCH  15  17
HETATM   17  C   UNL     1     -10.667  10.318  68.718  1.00  0.00    -0.219 C  
BRANCH  17  18
HETATM   18  N   UNL     1     -10.447  11.725  68.512  1.00  0.00    -0.210 N  
HETATM   19  H   UNL     1      -9.568  12.157  68.800  1.00  0.00     0.000 HD 
BRANCH  18  20
HETATM   20  C   UNL     1     -11.427  12.482  67.926  1.00  0.00    -0.315 C  
HETATM   21  O   UNL     1     -12.419  12.889  68.517  1.00  0.00     0.106 OA 
BRANCH  20  22
HETATM   22  N   UNL     1     -11.168  12.744  66.601  1.00  0.00    -0.288 N  
HETATM   23  H   UNL     1     -10.469  12.220  66.075  1.00  0.00     0.000 HD 
BRANCH  22  24
HETATM   24  C   UNL     1     -11.938  13.799  66.001  1.00  0.00    -0.414 C  
HETATM   25  N   UNL     1     -11.214  14.989  65.627  1.00  0.00    -0.341 N  
HETATM   26  O   UNL     1     -12.932  12.383  64.207  1.00  0.00    -0.737 OA 
HETATM   27  C   UNL     1     -11.708  15.527  64.456  1.00  0.00    -0.253 C  
HETATM   28  N   UNL     1     -12.529  14.614  63.877  1.00  0.00    -0.792 NA 
HETATM   29  O   UNL     1     -11.430  16.614  63.980  1.00  0.00    -1.192 OA 
HETATM   30  C   UNL     1     -12.526  13.463  64.609  1.00  0.00    -0.331 C  
BRANCH  25  31
HETATM   31  C   UNL     1     -10.317  15.677  66.500  1.00  0.00    -0.291 C  
HETATM   32  H   UNL     1     -10.158  15.956  68.407  1.00  0.00     0.000 HD 
HETATM   33  O   UNL     1     -10.754  15.498  67.825  1.00  0.00    -0.281 OA 
ENDBRANCH  25  31
ENDBRANCH  22  24
ENDBRANCH  20  22
ENDBRANCH  18  20
ENDBRANCH  17  18
ENDBRANCH  15  17
ENDBRANCH  13  15
ENDBRANCH  11  13
ENDBRANCH   5  11
ENDBRANCH   2   4
TORSDOF 10
ENDMDL
MODEL      258
REMARK 921   NORMALIZED FREE ENERGY PREDICTED BY IDOCK:   -4.41 KCAL/MOL
REMARK 922        TOTAL FREE ENERGY PREDICTED BY IDOCK:   -8.98 KCAL/MOL
REMARK 923 INTER-LIGAND FREE ENERGY PREDICTED BY IDOCK:   -7.73 KCAL/MOL
REMARK 924 INTRA-LIGAND FREE ENERGY PREDICTED BY IDOCK:   -1.25 KCAL/MOL
REMARK 927      BINDING AFFINITY PREDICTED BY RF-SCORE:    0.00 PKD
ROOT
HETATM    1  O   UNL     1      -8.601   8.892  68.841  1.00  0.00    -0.132 OA 
HETATM    2  C   UNL     1      -9.072   9.890  69.715  1.00  0.00    -0.225 C  
HETATM    3  H   UNL     1      -7.675   9.032  68.683  1.00  0.00     0.000 HD 
ENDROOT
BRANCH   2   4
HETATM    4  N   UNL     1     -10.469   9.680  69.952  1.00  0.00    -0.233 N  
HETATM    5  C   UNL     1     -11.373  10.807  70.057  1.00  0.00    -0.319 C  
HETATM    6  O   UNL     1     -10.185   7.660  71.066  1.00  0.00    -0.194 OA 
HETATM    7  C   UNL     1     -12.269  10.307  71.212  1.00  0.00    -0.395 C  
HETATM    8  N   UNL     1     -11.996   8.991  71.421  1.00  0.00    -0.312 NA 
HETATM    9  O   UNL     1     -13.136  10.927  71.809  1.00  0.00    -0.464 OA 
HETATM   10  C   UNL     1     -10.839   8.658  70.808  1.00  0.00    -0.230 C  
BRANCH   5  11
HETATM   11  N   UNL     1     -12.161  10.957  68.859  1.00  0.00    -0.476 N  
HETATM   12  H   UNL     1     -12.936  10.319  68.684  1.00  0.00     0.000 HD 
BRANCH  11  13
HETATM   13  C   UNL     1     -11.883  11.942  67.955  1.00  0.00    -0.253 C  
HETATM   14  O   UNL     1     -11.932  11.785  66.743  1.00  0.00    -0.584 OA 
BRANCH  13  15
HETATM   15  N   UNL     1     -11.623  13.145  68.558  1.00  0.00    -0.303 N  
HETATM   16  H   UNL     1     -11.161  13.170  69.467  1.00  0.00     0.000 HD 
BRANCH  15  17
HETATM   17  C   UNL     1     -12.001  14.365  67.910  1.00  0.00    -0.313 C  
BRANCH  17  18
HETATM   18  N   UNL     1     -10.996  14.825  66.988  1.00  0.00    -0.316 N  
HETATM   19  H   UNL     1     -11.257  15.116  66.045  1.00  0.00     0.000 HD 
BRANCH  18  20
HETATM   20  C   UNL     1      -9.686  14.868  67.386  1.00  0.00    -0.217 C  
HETATM   21  O   UNL     1      -9.324  14.776  68.551  1.00  0.00    -0.187 OA 
BRANCH  20  22
HETATM   22  N   UNL     1      -8.819  15.014  66.328  1.00  0.00    -0.471 N  
HETATM   23  H   UNL     1      -8.791  14.346  65.558  1.00  0.00     0.000 HD 
BRANCH  22  24
HETATM   24  C   UNL     1      -7.953  16.161  66.371  1.00  0.00    -0.217 C  
HETATM   25  N   UNL     1      -8.550  17.398  66.813  1.00  0.00    -0.248 N  
HETATM   26  O   UNL     1      -6.206  15.095  67.793  1.00  0.00    -0.144 OA 
HETATM   27  C   UNL     1      -7.662  18.140  67.565  1.00  0.00    -0.218 C  
HETATM   28  N   UNL     1      -6.609  17.348  67.890  1.00  0.00    -0.162 NA 
HETATM   29  O   UNL     1      -7.804  19.294  67.929  1.00  0.00    -0.274 OA 
HETATM   30  C   UNL     1      -6.823  16.083  67.426  1.00  0.00    -0.189 C  
BRANCH  25  31
HETATM   31  C   UNL     1      -9.776  17.916  66.293  1.00  0.00    -0.269 C  
HETATM   32  H   UNL     1     -11.524  18.346  66.999  1.00  0.00     0.000 HD 
HETATM   33  O   UNL     1     -10.708  18.001  67.344  1.00  0.00    -0.390 OA 
ENDBRANCH  25  31
ENDBRANCH  22  24
ENDBRANCH  20  22
ENDBRANCH  18  20
ENDBRANCH  17  18
ENDBRANCH  15  17
ENDBRANCH  13  15
ENDBRANCH  11  13
ENDBRANCH   5  11
ENDBRANCH   2   4
TORSDOF 10
ENDMDL
MODEL      259
REMARK 921   NORMALIZED FREE ENERGY PREDICTED BY IDOCK:   -4.39 KCAL/MOL
REMARK 922        TOTAL FREE ENERGY PREDICTED BY IDOCK:   -8.94 KCAL/MOL
REMARK 923 INTER-LIGAND FREE ENERGY PREDICTED BY IDOCK:   -7.93 KCAL/MOL
REMARK 924 INTRA-LIGAND FREE ENERGY PREDICTED BY IDOCK:   -1.01 KCAL/MOL
REMARK 927      BINDING AFFINITY PREDICTED BY RF-SCORE:    0.00 PKD
ROOT
HETATM    1  O   UNL     1     -10.706  16.579  64.785  1.00  0.00    -0.719 OA 
HETATM    2  C   UNL     1      -9.826  15.673  65.405  1.00  0.00    -0.218 C  
HETATM    3  H   UNL     1     -10.229  17.370  64.563  1.00  0.00     0.000 HD 
ENDROOT
BRANCH   2   4
HETATM    4  N   UNL     1     -10.546  14.481  65.740  1.00  0.00    -0.302 N  
HETATM    5  C   UNL     1     -10.843  13.493  64.723  1.00  0.00    -0.381 C  
HETATM    6  O   UNL     1     -11.687  15.427  67.530  1.00  0.00    -0.241 OA 
HETATM    7  C   UNL     1     -12.279  13.111  65.152  1.00  0.00    -0.450 C  
HETATM    8  N   UNL     1     -12.508  13.643  66.383  1.00  0.00    -0.372 NA 
HETATM    9  O   UNL     1     -13.072  12.398  64.557  1.00  0.00    -0.823 OA 
HETATM   10  C   UNL     1     -11.572  14.576  66.664  1.00  0.00    -0.375 C  
BRANCH   5  11
HETATM   11  N   UNL     1      -9.978  12.345  64.842  1.00  0.00    -0.434 N  
HETATM   12  H   UNL     1      -9.534  11.962  64.008  1.00  0.00     0.000 HD 
BRANCH  11  13
HETATM   13  C   UNL     1      -9.745  11.765  66.055  1.00  0.00    -0.232 C  
HETATM   14  O   UNL     1      -8.845  12.106  66.810  1.00  0.00    -0.197 OA 
BRANCH  13  15
HETATM   15  N   UNL     1     -10.682  10.815  66.367  1.00  0.00    -0.205 N  
HETATM   16  H   UNL     1     -11.021  10.177  65.647  1.00  0.00     0.000 HD 
BRANCH  15  17
HETATM   17  C   UNL     1     -11.184  10.718  67.706  1.00  0.00    -0.316 C  
BRANCH  17  18
HETATM   18  N   UNL     1     -10.229  10.121  68.602  1.00  0.00    -0.168 N  
HETATM   19  H   UNL     1      -9.302  10.532  68.714  1.00  0.00     0.000 HD 
BRANCH  18  20
HETATM   20  C   UNL     1     -10.577   8.998  69.305  1.00  0.00    -0.213 C  
HETATM   21  O   UNL     1     -10.525   7.864  68.847  1.00  0.00    -0.214 OA 
BRANCH  20  22
HETATM   22  N   UNL     1     -10.979   9.283  70.589  1.00  0.00    -0.254 N  
HETATM   23  H   UNL     1     -11.860   9.758  70.785  1.00  0.00     0.000 HD 
BRANCH  22  24
HETATM   24  C   UNL     1     -10.086   8.875  71.639  1.00  0.00    -0.341 C  
HETATM   25  N   UNL     1     -10.205   7.510  72.088  1.00  0.00    -0.191 N  
HETATM   26  O   UNL     1      -8.000   9.578  70.470  1.00  0.00    -0.162 OA 
HETATM   27  C   UNL     1      -8.971   6.979  72.405  1.00  0.00    -0.128 C  
HETATM   28  N   UNL     1      -8.011   7.809  71.926  1.00  0.00    -0.098 NA 
HETATM   29  O   UNL     1      -8.759   5.921  72.972  1.00  0.00    -0.124 OA 
HETATM   30  C   UNL     1      -8.590   8.837  71.241  1.00  0.00    -0.203 C  
BRANCH  25  31
HETATM   31  C   UNL     1     -11.447   6.898  72.441  1.00  0.00    -0.259 C  
HETATM   32  H   UNL     1     -12.880   6.000  71.504  1.00  0.00     0.000 HD 
HETATM   33  O   UNL     1     -12.054   6.406  71.270  1.00  0.00    -0.310 OA 
ENDBRANCH  25  31
ENDBRANCH  22  24
ENDBRANCH  20  22
ENDBRANCH  18  20
ENDBRANCH  17  18
ENDBRANCH  15  17
ENDBRANCH  13  15
ENDBRANCH  11  13
ENDBRANCH   5  11
ENDBRANCH   2   4
TORSDOF 10
ENDMDL
MODEL      260
REMARK 921   NORMALIZED FREE ENERGY PREDICTED BY IDOCK:   -4.38 KCAL/MOL
REMARK 922        TOTAL FREE ENERGY PREDICTED BY IDOCK:   -8.93 KCAL/MOL
REMARK 923 INTER-LIGAND FREE ENERGY PREDICTED BY IDOCK:   -7.13 KCAL/MOL
REMARK 924 INTRA-LIGAND FREE ENERGY PREDICTED BY IDOCK:   -1.81 KCAL/MOL
REMARK 927      BINDING AFFINITY PREDICTED BY RF-SCORE:    0.00 PKD
ROOT
HETATM    1  O   UNL     1     -12.121  15.597  73.751  1.00  0.00    -0.475 OA 
HETATM    2  C   UNL     1     -12.296  16.034  72.425  1.00  0.00    -0.497 C  
HETATM    3  H   UNL     1     -12.385  16.292  74.343  1.00  0.00     0.000 HD 
ENDROOT
BRANCH   2   4
HETATM    4  N   UNL     1     -11.897  14.986  71.533  1.00  0.00    -0.351 N  
HETATM    5  C   UNL     1     -11.469  15.294  70.184  1.00  0.00    -0.292 C  
HETATM    6  O   UNL     1     -13.216  13.354  72.533  1.00  0.00    -0.486 OA 
HETATM    7  C   UNL     1     -12.139  14.122  69.431  1.00  0.00    -0.328 C  
HETATM    8  N   UNL     1     -12.580  13.224  70.353  1.00  0.00    -0.198 NA 
HETATM    9  O   UNL     1     -12.215  13.954  68.223  1.00  0.00    -0.332 OA 
HETATM   10  C   UNL     1     -12.591  13.790  71.579  1.00  0.00    -0.318 C  
BRANCH   5  11
HETATM   11  N   UNL     1     -10.036  15.199  70.057  1.00  0.00    -0.493 N  
HETATM   12  H   UNL     1      -9.510  14.623  70.714  1.00  0.00     0.000 HD 
BRANCH  11  13
HETATM   13  C   UNL     1      -9.373  15.869  69.069  1.00  0.00    -0.243 C  
HETATM   14  O   UNL     1      -9.931  16.536  68.209  1.00  0.00    -0.236 OA 
BRANCH  13  15
HETATM   15  N   UNL     1      -8.012  15.777  69.199  1.00  0.00    -0.217 N  
HETATM   16  H   UNL     1      -7.593  15.687  70.124  1.00  0.00     0.000 HD 
BRANCH  15  17
HETATM   17  C   UNL     1      -7.179  15.807  68.034  1.00  0.00    -0.130 C  
BRANCH  17  18
HETATM   18  N   UNL     1      -7.365  14.647  67.203  1.00  0.00    -0.277 N  
HETATM   19  H   UNL     1      -7.855  14.725  66.311  1.00  0.00     0.000 HD 
BRANCH  18  20
HETATM   20  C   UNL     1      -6.878  13.436  67.619  1.00  0.00    -0.165 C  
HETATM   21  O   UNL     1      -6.036  13.305  68.497  1.00  0.00    -0.073 OA 
BRANCH  20  22
HETATM   22  N   UNL     1      -7.450  12.380  66.948  1.00  0.00    -0.382 N  
HETATM   23  H   UNL     1      -7.051  12.010  66.085  1.00  0.00     0.000 HD 
BRANCH  22  24
HETATM   24  C   UNL     1      -8.640  11.827  67.534  1.00  0.00    -0.157 C  
HETATM   25  N   UNL     1      -9.462  11.015  66.670  1.00  0.00    -0.181 N  
HETATM   26  O   UNL     1      -7.484  10.743  69.458  1.00  0.00    -0.142 OA 
HETATM   27  C   UNL     1     -10.018   9.957  67.360  1.00  0.00    -0.189 C  
HETATM   28  N   UNL     1      -9.393   9.850  68.559  1.00  0.00    -0.140 NA 
HETATM   29  O   UNL     1     -10.889   9.204  66.958  1.00  0.00    -0.182 OA 
HETATM   30  C   UNL     1      -8.391  10.772  68.639  1.00  0.00    -0.141 C  
BRANCH  25  31
HETATM   31  C   UNL     1      -9.881  11.421  65.366  1.00  0.00    -0.236 C  
HETATM   32  H   UNL     1     -10.241  13.096  64.470  1.00  0.00     0.000 HD 
HETATM   33  O   UNL     1      -9.962  12.826  65.337  1.00  0.00    -0.265 OA 
ENDBRANCH  25  31
ENDBRANCH  22  24
ENDBRANCH  20  22
ENDBRANCH  18  20
ENDBRANCH  17  18
ENDBRANCH  15  17
ENDBRANCH  13  15
ENDBRANCH  11  13
ENDBRANCH   5  11
ENDBRANCH   2   4
TORSDOF 10
ENDMDL
MODEL      261
REMARK 921   NORMALIZED FREE ENERGY PREDICTED BY IDOCK:   -4.37 KCAL/MOL
REMARK 922        TOTAL FREE ENERGY PREDICTED BY IDOCK:   -8.92 KCAL/MOL
REMARK 923 INTER-LIGAND FREE ENERGY PREDICTED BY IDOCK:   -6.70 KCAL/MOL
REMARK 924 INTRA-LIGAND FREE ENERGY PREDICTED BY IDOCK:   -2.22 KCAL/MOL
REMARK 927      BINDING AFFINITY PREDICTED BY RF-SCORE:    0.00 PKD
ROOT
HETATM    1  O   UNL     1     -10.911   5.514  66.731  1.00  0.00    -0.486 OA 
HETATM    2  C   UNL     1     -11.175   6.871  66.991  1.00  0.00    -0.085 C  
HETATM    3  H   UNL     1     -11.701   5.104  66.398  1.00  0.00     0.000 HD 
ENDROOT
BRANCH   2   4
HETATM    4  N   UNL     1      -9.983   7.489  67.493  1.00  0.00    -0.160 N  
HETATM    5  C   UNL     1      -9.042   8.113  66.586  1.00  0.00    -0.165 C  
HETATM    6  O   UNL     1      -9.837   6.144  69.383  1.00  0.00    -0.150 OA 
HETATM    7  C   UNL     1      -7.718   7.665  67.246  1.00  0.00    -0.113 C  
HETATM    8  N   UNL     1      -8.010   7.143  68.468  1.00  0.00    -0.122 NA 
HETATM    9  O   UNL     1      -6.583   7.804  66.816  1.00  0.00    -0.055 OA 
HETATM   10  C   UNL     1      -9.333   6.885  68.555  1.00  0.00    -0.134 C  
BRANCH   5  11
HETATM   11  N   UNL     1      -9.147   9.550  66.632  1.00  0.00    -0.145 N  
HETATM   12  H   UNL     1      -9.487  10.002  67.480  1.00  0.00     0.000 HD 
BRANCH  11  13
HETATM   13  C   UNL     1      -8.799  10.314  65.556  1.00  0.00    -0.172 C  
HETATM   14  O   UNL     1      -8.374   9.854  64.505  1.00  0.00    -0.145 OA 
BRANCH  13  15
HETATM   15  N   UNL     1      -9.056  11.645  65.755  1.00  0.00    -0.360 N  
HETATM   16  H   UNL     1      -9.476  12.201  65.011  1.00  0.00     0.000 HD 
BRANCH  15  17
HETATM   17  C   UNL     1      -8.734  12.255  67.011  1.00  0.00    -0.199 C  
BRANCH  17  18
HETATM   18  N   UNL     1      -9.847  12.981  67.564  1.00  0.00    -0.205 N  
HETATM   19  H   UNL     1      -9.828  14.000  67.602  1.00  0.00     0.000 HD 
BRANCH  18  20
HETATM   20  C   UNL     1     -10.932  12.292  68.039  1.00  0.00    -0.225 C  
HETATM   21  O   UNL     1     -11.665  11.608  67.337  1.00  0.00    -0.556 OA 
BRANCH  20  22
HETATM   22  N   UNL     1     -11.099  12.443  69.395  1.00  0.00    -0.443 N  
HETATM   23  H   UNL     1     -10.431  12.961  69.966  1.00  0.00     0.000 HD 
BRANCH  22  24
HETATM   24  C   UNL     1     -12.270  11.831  69.962  1.00  0.00    -0.242 C  
HETATM   25  N   UNL     1     -12.070  10.578  70.648  1.00  0.00    -0.325 N  
HETATM   26  O   UNL     1     -12.971  13.825  71.283  1.00  0.00    -0.338 OA 
HETATM   27  C   UNL     1     -12.892  10.476  71.752  1.00  0.00    -0.454 C  
HETATM   28  N   UNL     1     -13.422  11.699  72.006  1.00  0.00    -0.344 NA 
HETATM   29  O   UNL     1     -13.084   9.479  72.426  1.00  0.00    -0.413 OA 
HETATM   30  C   UNL     1     -12.908  12.614  71.135  1.00  0.00    -0.220 C  
BRANCH  25  31
HETATM   31  C   UNL     1     -11.346   9.479  70.093  1.00  0.00    -0.199 C  
HETATM   32  H   UNL     1      -9.487   9.018  69.830  1.00  0.00     0.000 HD 
HETATM   33  O   UNL     1      -9.969   9.749  70.199  1.00  0.00    -0.241 OA 
ENDBRANCH  25  31
ENDBRANCH  22  24
ENDBRANCH  20  22
ENDBRANCH  18  20
ENDBRANCH  17  18
ENDBRANCH  15  17
ENDBRANCH  13  15
ENDBRANCH  11  13
ENDBRANCH   5  11
ENDBRANCH   2   4
TORSDOF 10
ENDMDL
MODEL      262
REMARK 921   NORMALIZED FREE ENERGY PREDICTED BY IDOCK:   -4.36 KCAL/MOL
REMARK 922        TOTAL FREE ENERGY PREDICTED BY IDOCK:   -8.91 KCAL/MOL
REMARK 923 INTER-LIGAND FREE ENERGY PREDICTED BY IDOCK:   -7.89 KCAL/MOL
REMARK 924 INTRA-LIGAND FREE ENERGY PREDICTED BY IDOCK:   -1.02 KCAL/MOL
REMARK 927      BINDING AFFINITY PREDICTED BY RF-SCORE:    0.00 PKD
ROOT
HETATM    1  O   UNL     1     -10.385  10.303  70.574  1.00  0.00    -0.410 OA 
HETATM    2  C   UNL     1     -10.945  11.225  69.671  1.00  0.00    -0.151 C  
HETATM    3  H   UNL     1      -9.610   9.919  70.183  1.00  0.00     0.000 HD 
ENDROOT
BRANCH   2   4
HETATM    4  N   UNL     1     -12.115  11.804  70.261  1.00  0.00    -0.351 N  
HETATM    5  C   UNL     1     -12.044  13.094  70.916  1.00  0.00    -0.119 C  
HETATM    6  O   UNL     1     -13.155   9.770  70.690  1.00  0.00    -0.191 OA 
HETATM    7  C   UNL     1     -12.967  12.815  72.125  1.00  0.00    -0.239 C  
HETATM    8  N   UNL     1     -13.613  11.639  71.902  1.00  0.00    -0.156 NA 
HETATM    9  O   UNL     1     -13.168  13.533  73.093  1.00  0.00    -0.442 OA 
HETATM   10  C   UNL     1     -13.006  10.962  70.903  1.00  0.00    -0.257 C  
BRANCH   5  11
HETATM   11  N   UNL     1     -12.619  14.129  70.093  1.00  0.00    -0.392 N  
HETATM   12  H   UNL     1     -13.363  13.894  69.437  1.00  0.00     0.000 HD 
BRANCH  11  13
HETATM   13  C   UNL     1     -12.181  15.419  70.180  1.00  0.00    -0.375 C  
HETATM   14  O   UNL     1     -12.207  16.077  71.211  1.00  0.00    -0.423 OA 
BRANCH  13  15
HETATM   15  N   UNL     1     -11.634  15.864  69.005  1.00  0.00    -0.390 N  
HETATM   16  H   UNL     1     -11.847  16.803  68.667  1.00  0.00     0.000 HD 
BRANCH  15  17
HETATM   17  C   UNL     1     -10.764  15.011  68.252  1.00  0.00    -0.253 C  
BRANCH  17  18
HETATM   18  N   UNL     1     -10.601  15.462  66.895  1.00  0.00    -0.304 N  
HETATM   19  H   UNL     1     -11.218  15.117  66.160  1.00  0.00     0.000 HD 
BRANCH  18  20
HETATM   20  C   UNL     1      -9.609  16.360  66.599  1.00  0.00    -0.256 C  
HETATM   21  O   UNL     1      -9.665  17.155  65.671  1.00  0.00    -0.545 OA 
BRANCH  20  22
HETATM   22  N   UNL     1      -8.548  16.277  67.470  1.00  0.00    -0.175 N  
HETATM   23  H   UNL     1      -8.192  15.381  67.802  1.00  0.00     0.000 HD 
BRANCH  22  24
HETATM   24  C   UNL     1      -7.968  17.526  67.883  1.00  0.00    -0.227 C  
HETATM   25  N   UNL     1      -7.420  18.356  66.839  1.00  0.00    -0.210 N  
HETATM   26  O   UNL     1      -9.976  18.326  69.124  1.00  0.00    -0.316 OA 
HETATM   27  C   UNL     1      -7.639  19.694  67.098  1.00  0.00    -0.252 C  
HETATM   28  N   UNL     1      -8.544  19.794  68.103  1.00  0.00    -0.312 NA 
HETATM   29  O   UNL     1      -7.150  20.639  66.503  1.00  0.00    -0.264 OA 
HETATM   30  C   UNL     1      -8.976  18.550  68.459  1.00  0.00    -0.323 C  
BRANCH  25  31
HETATM   31  C   UNL     1      -6.519  17.878  65.839  1.00  0.00    -0.259 C  
HETATM   32  H   UNL     1      -5.000  16.683  65.780  1.00  0.00     0.000 HD 
HETATM   33  O   UNL     1      -5.600  17.001  66.445  1.00  0.00    -0.305 OA 
ENDBRANCH  25  31
ENDBRANCH  22  24
ENDBRANCH  20  22
ENDBRANCH  18  20
ENDBRANCH  17  18
ENDBRANCH  15  17
ENDBRANCH  13  15
ENDBRANCH  11  13
ENDBRANCH   5  11
ENDBRANCH   2   4
TORSDOF 10
ENDMDL
MODEL      263
REMARK 921   NORMALIZED FREE ENERGY PREDICTED BY IDOCK:   -4.36 KCAL/MOL
REMARK 922        TOTAL FREE ENERGY PREDICTED BY IDOCK:   -8.91 KCAL/MOL
REMARK 923 INTER-LIGAND FREE ENERGY PREDICTED BY IDOCK:   -6.83 KCAL/MOL
REMARK 924 INTRA-LIGAND FREE ENERGY PREDICTED BY IDOCK:   -2.08 KCAL/MOL
REMARK 927      BINDING AFFINITY PREDICTED BY RF-SCORE:    0.00 PKD
ROOT
HETATM    1  O   UNL     1     -11.225  13.038  69.987  1.00  0.00    -0.483 OA 
HETATM    2  C   UNL     1     -11.742  11.782  69.618  1.00  0.00    -0.344 C  
HETATM    3  H   UNL     1     -11.144  13.579  69.211  1.00  0.00     0.000 HD 
ENDROOT
BRANCH   2   4
HETATM    4  N   UNL     1     -11.864  10.966  70.789  1.00  0.00    -0.337 N  
HETATM    5  C   UNL     1     -11.552   9.553  70.735  1.00  0.00    -0.308 C  
HETATM    6  O   UNL     1     -13.512  12.274  71.777  1.00  0.00    -0.338 OA 
HETATM    7  C   UNL     1     -12.688   9.007  71.629  1.00  0.00    -0.358 C  
HETATM    8  N   UNL     1     -13.279  10.062  72.254  1.00  0.00    -0.384 NA 
HETATM    9  O   UNL     1     -12.989   7.840  71.829  1.00  0.00    -0.322 OA 
HETATM   10  C   UNL     1     -12.917  11.215  71.651  1.00  0.00    -0.443 C  
BRANCH   5  11
HETATM   11  N   UNL     1     -10.275   9.276  71.346  1.00  0.00    -0.324 N  
HETATM   12  H   UNL     1     -10.201   9.245  72.362  1.00  0.00     0.000 HD 
BRANCH  11  13
HETATM   13  C   UNL     1      -9.165   9.057  70.583  1.00  0.00    -0.231 C  
HETATM   14  O   UNL     1      -8.051   9.476  70.868  1.00  0.00    -0.297 OA 
BRANCH  13  15
HETATM   15  N   UNL     1      -9.422   8.249  69.507  1.00  0.00    -0.161 N  
HETATM   16  H   UNL     1     -10.129   8.520  68.823  1.00  0.00     0.000 HD 
BRANCH  15  17
HETATM   17  C   UNL     1      -8.699   7.023  69.345  1.00  0.00    -0.133 C  
BRANCH  17  18
HETATM   18  N   UNL     1      -8.728   6.551  67.985  1.00  0.00    -0.117 N  
HETATM   19  H   UNL     1      -7.894   6.138  67.566  1.00  0.00     0.000 HD 
BRANCH  18  20
HETATM   20  C   UNL     1      -9.884   6.662  67.258  1.00  0.00    -0.146 C  
HETATM   21  O   UNL     1     -10.994   6.397  67.699  1.00  0.00    -0.310 OA 
BRANCH  20  22
HETATM   22  N   UNL     1      -9.660   7.116  65.980  1.00  0.00    -0.405 N  
HETATM   23  H   UNL     1     -10.075   6.663  65.166  1.00  0.00     0.000 HD 
BRANCH  22  24
HETATM   24  C   UNL     1      -8.807   8.267  65.856  1.00  0.00    -0.160 C  
HETATM   25  N   UNL     1      -8.346   8.583  64.526  1.00  0.00    -0.154 N  
HETATM   26  O   UNL     1     -10.364   9.846  66.994  1.00  0.00    -0.222 OA 
HETATM   27  C   UNL     1      -8.280   9.948  64.332  1.00  0.00    -0.164 C  
HETATM   28  N   UNL     1      -8.937  10.558  65.349  1.00  0.00    -0.178 NA 
HETATM   29  O   UNL     1      -7.766  10.523  63.388  1.00  0.00    -0.110 OA 
HETATM   30  C   UNL     1      -9.493   9.619  66.168  1.00  0.00    -0.217 C  
BRANCH  25  31
HETATM   31  C   UNL     1      -7.755   7.626  63.645  1.00  0.00    -0.123 C  
HETATM   32  H   UNL     1      -6.867   5.918  63.826  1.00  0.00     0.000 HD 
HETATM   33  O   UNL     1      -7.260   6.555  64.412  1.00  0.00    -0.060 OA 
ENDBRANCH  25  31
ENDBRANCH  22  24
ENDBRANCH  20  22
ENDBRANCH  18  20
ENDBRANCH  17  18
ENDBRANCH  15  17
ENDBRANCH  13  15
ENDBRANCH  11  13
ENDBRANCH   5  11
ENDBRANCH   2   4
TORSDOF 10
ENDMDL
MODEL      264
REMARK 921   NORMALIZED FREE ENERGY PREDICTED BY IDOCK:   -4.35 KCAL/MOL
REMARK 922        TOTAL FREE ENERGY PREDICTED BY IDOCK:   -8.89 KCAL/MOL
REMARK 923 INTER-LIGAND FREE ENERGY PREDICTED BY IDOCK:   -7.65 KCAL/MOL
REMARK 924 INTRA-LIGAND FREE ENERGY PREDICTED BY IDOCK:   -1.24 KCAL/MOL
REMARK 927      BINDING AFFINITY PREDICTED BY RF-SCORE:    0.00 PKD
ROOT
HETATM    1  O   UNL     1     -10.048   5.895  68.760  1.00  0.00    -0.147 OA 
HETATM    2  C   UNL     1     -11.195   6.686  68.954  1.00  0.00    -0.200 C  
HETATM    3  H   UNL     1     -10.266   5.171  68.185  1.00  0.00     0.000 HD 
ENDROOT
BRANCH   2   4
HETATM    4  N   UNL     1     -10.867   7.777  69.822  1.00  0.00    -0.239 N  
HETATM    5  C   UNL     1      -9.929   8.797  69.398  1.00  0.00    -0.196 C  
HETATM    6  O   UNL     1     -11.282   6.607  71.787  1.00  0.00    -0.239 OA 
HETATM    7  C   UNL     1      -9.164   9.006  70.725  1.00  0.00    -0.245 C  
HETATM    8  N   UNL     1      -9.851   8.373  71.714  1.00  0.00    -0.217 NA 
HETATM    9  O   UNL     1      -8.159   9.676  70.912  1.00  0.00    -0.293 OA 
HETATM   10  C   UNL     1     -10.751   7.521  71.177  1.00  0.00    -0.227 C  
BRANCH   5  11
HETATM   11  N   UNL     1     -10.611  10.013  69.032  1.00  0.00    -0.204 N  
HETATM   12  H   UNL     1     -10.948  10.640  69.762  1.00  0.00     0.000 HD 
BRANCH  11  13
HETATM   13  C   UNL     1     -10.811  10.337  67.721  1.00  0.00    -0.292 C  
HETATM   14  O   UNL     1     -10.691   9.543  66.799  1.00  0.00    -0.174 OA 
BRANCH  13  15
HETATM   15  N   UNL     1     -11.240  11.629  67.563  1.00  0.00    -0.273 N  
HETATM   16  H   UNL     1     -11.729  11.904  66.712  1.00  0.00     0.000 HD 
BRANCH  15  17
HETATM   17  C   UNL     1     -10.998  12.594  68.594  1.00  0.00    -0.256 C  
BRANCH  17  18
HETATM   18  N   UNL     1     -10.359  13.781  68.090  1.00  0.00    -0.245 N  
HETATM   19  H   UNL     1      -9.922  13.778  67.168  1.00  0.00     0.000 HD 
BRANCH  18  20
HETATM   20  C   UNL     1     -10.344  14.915  68.858  1.00  0.00    -0.244 C  
HETATM   21  O   UNL     1     -10.810  14.980  69.987  1.00  0.00    -0.251 OA 
BRANCH  20  22
HETATM   22  N   UNL     1      -9.733  15.972  68.223  1.00  0.00    -0.212 N  
HETATM   23  H   UNL     1      -8.729  16.136  68.295  1.00  0.00     0.000 HD 
BRANCH  22  24
HETATM   24  C   UNL     1     -10.591  16.831  67.454  1.00  0.00    -0.291 C  
HETATM   25  N   UNL     1     -10.177  18.207  67.330  1.00  0.00    -0.355 N  
HETATM   26  O   UNL     1     -10.609  15.395  65.417  1.00  0.00    -0.350 OA 
HETATM   27  C   UNL     1     -10.477  18.709  66.080  1.00  0.00    -0.430 C  
HETATM   28  N   UNL     1     -10.808  17.672  65.270  1.00  0.00    -0.561 NA 
HETATM   29  O   UNL     1     -10.415  19.875  65.730  1.00  0.00    -0.504 OA 
HETATM   30  C   UNL     1     -10.661  16.496  65.944  1.00  0.00    -0.270 C  
BRANCH  25  31
HETATM   31  C   UNL     1      -9.788  19.019  68.439  1.00  0.00    -0.392 C  
HETATM   32  H   UNL     1      -8.131  19.487  69.318  1.00  0.00     0.000 HD 
HETATM   33  O   UNL     1      -8.390  18.947  68.581  1.00  0.00    -0.345 OA 
ENDBRANCH  25  31
ENDBRANCH  22  24
ENDBRANCH  20  22
ENDBRANCH  18  20
ENDBRANCH  17  18
ENDBRANCH  15  17
ENDBRANCH  13  15
ENDBRANCH  11  13
ENDBRANCH   5  11
ENDBRANCH   2   4
TORSDOF 10
ENDMDL
MODEL      265
REMARK 921   NORMALIZED FREE ENERGY PREDICTED BY IDOCK:   -4.35 KCAL/MOL
REMARK 922        TOTAL FREE ENERGY PREDICTED BY IDOCK:   -8.89 KCAL/MOL
REMARK 923 INTER-LIGAND FREE ENERGY PREDICTED BY IDOCK:   -7.98 KCAL/MOL
REMARK 924 INTRA-LIGAND FREE ENERGY PREDICTED BY IDOCK:   -0.91 KCAL/MOL
REMARK 927      BINDING AFFINITY PREDICTED BY RF-SCORE:    0.00 PKD
ROOT
HETATM    1  O   UNL     1      -8.140  19.658  69.299  1.00  0.00    -0.244 OA 
HETATM    2  C   UNL     1      -8.079  20.079  67.957  1.00  0.00    -0.235 C  
HETATM    3  H   UNL     1      -8.230  20.420  69.858  1.00  0.00     0.000 HD 
ENDROOT
BRANCH   2   4
HETATM    4  N   UNL     1      -7.943  18.930  67.113  1.00  0.00    -0.239 N  
HETATM    5  C   UNL     1      -7.615  17.638  67.680  1.00  0.00    -0.204 C  
HETATM    6  O   UNL     1      -7.311  20.134  65.229  1.00  0.00    -0.283 OA 
HETATM    7  C   UNL     1      -6.635  17.128  66.599  1.00  0.00    -0.237 C  
HETATM    8  N   UNL     1      -6.723  17.957  65.523  1.00  0.00    -0.364 NA 
HETATM    9  O   UNL     1      -5.942  16.122  66.631  1.00  0.00    -0.245 OA 
HETATM   10  C   UNL     1      -7.357  19.098  65.872  1.00  0.00    -0.252 C  
BRANCH   5  11
HETATM   11  N   UNL     1      -8.773  16.781  67.731  1.00  0.00    -0.207 N  
HETATM   12  H   UNL     1      -8.763  15.956  68.331  1.00  0.00     0.000 HD 
BRANCH  11  13
HETATM   13  C   UNL     1      -9.884  17.058  66.987  1.00  0.00    -0.270 C  
HETATM   14  O   UNL     1     -10.780  17.803  67.357  1.00  0.00    -0.357 OA 
BRANCH  13  15
HETATM   15  N   UNL     1      -9.842  16.471  65.750  1.00  0.00    -0.285 N  
HETATM   16  H   UNL     1      -9.029  16.605  65.149  1.00  0.00     0.000 HD 
BRANCH  15  17
HETATM   17  C   UNL     1     -10.942  15.671  65.300  1.00  0.00    -0.364 C  
BRANCH  17  18
HETATM   18  N   UNL     1     -10.514  14.580  64.465  1.00  0.00    -0.538 N  
HETATM   19  H   UNL     1     -10.113  14.762  63.545  1.00  0.00     0.000 HD 
BRANCH  18  20
HETATM   20  C   UNL     1     -10.651  13.293  64.915  1.00  0.00    -0.366 C  
HETATM   21  O   UNL     1     -11.676  12.635  64.798  1.00  0.00    -0.322 OA 
BRANCH  20  22
HETATM   22  N   UNL     1      -9.503  12.817  65.504  1.00  0.00    -0.462 N  
HETATM   23  H   UNL     1      -8.577  13.092  65.179  1.00  0.00     0.000 HD 
BRANCH  22  24
HETATM   24  C   UNL     1      -9.684  11.909  66.604  1.00  0.00    -0.205 C  
HETATM   25  N   UNL     1     -10.736  12.233  67.536  1.00  0.00    -0.220 N  
HETATM   26  O   UNL     1      -9.912   9.865  65.197  1.00  0.00    -0.318 OA 
HETATM   27  C   UNL     1     -11.366  11.093  67.993  1.00  0.00    -0.312 C  
HETATM   28  N   UNL     1     -10.989  10.052  67.211  1.00  0.00    -0.226 NA 
HETATM   29  O   UNL     1     -12.166  11.023  68.911  1.00  0.00    -0.519 OA 
HETATM   30  C   UNL     1     -10.181  10.498  66.207  1.00  0.00    -0.235 C  
BRANCH  25  31
HETATM   31  C   UNL     1     -10.900  13.523  68.129  1.00  0.00    -0.254 C  
HETATM   32  H   UNL     1      -9.737  14.893  68.841  1.00  0.00     0.000 HD 
HETATM   33  O   UNL     1      -9.628  14.035  68.447  1.00  0.00    -0.216 OA 
ENDBRANCH  25  31
ENDBRANCH  22  24
ENDBRANCH  20  22
ENDBRANCH  18  20
ENDBRANCH  17  18
ENDBRANCH  15  17
ENDBRANCH  13  15
ENDBRANCH  11  13
ENDBRANCH   5  11
ENDBRANCH   2   4
TORSDOF 10
ENDMDL
MODEL      266
REMARK 921   NORMALIZED FREE ENERGY PREDICTED BY IDOCK:   -4.34 KCAL/MOL
REMARK 922        TOTAL FREE ENERGY PREDICTED BY IDOCK:   -8.88 KCAL/MOL
REMARK 923 INTER-LIGAND FREE ENERGY PREDICTED BY IDOCK:   -6.97 KCAL/MOL
REMARK 924 INTRA-LIGAND FREE ENERGY PREDICTED BY IDOCK:   -1.91 KCAL/MOL
REMARK 927      BINDING AFFINITY PREDICTED BY RF-SCORE:    0.00 PKD
ROOT
HETATM    1  O   UNL     1     -13.276  11.604  71.934  1.00  0.00    -0.485 OA 
HETATM    2  C   UNL     1     -13.521  12.892  72.445  1.00  0.00    -0.471 C  
HETATM    3  H   UNL     1     -13.522  10.960  72.587  1.00  0.00     0.000 HD 
ENDROOT
BRANCH   2   4
HETATM    4  N   UNL     1     -13.149  13.863  71.460  1.00  0.00    -0.353 N  
HETATM    5  C   UNL     1     -11.889  13.748  70.754  1.00  0.00    -0.135 C  
HETATM    6  O   UNL     1     -14.380  15.593  72.404  1.00  0.00    -0.546 OA 
HETATM    7  C   UNL     1     -11.480  15.238  70.722  1.00  0.00    -0.325 C  
HETATM    8  N   UNL     1     -12.553  15.980  71.106  1.00  0.00    -0.314 NA 
HETATM    9  O   UNL     1     -10.418  15.714  70.350  1.00  0.00    -0.315 OA 
HETATM   10  C   UNL     1     -13.475  15.187  71.693  1.00  0.00    -0.443 C  
BRANCH   5  11
HETATM   11  N   UNL     1     -12.086  13.267  69.409  1.00  0.00    -0.283 N  
HETATM   12  H   UNL     1     -12.542  13.867  68.723  1.00  0.00     0.000 HD 
BRANCH  11  13
HETATM   13  C   UNL     1     -11.671  12.019  69.043  1.00  0.00    -0.325 C  
HETATM   14  O   UNL     1     -11.347  11.149  69.840  1.00  0.00    -0.273 OA 
BRANCH  13  15
HETATM   15  N   UNL     1     -11.734  11.825  67.688  1.00  0.00    -0.287 N  
HETATM   16  H   UNL     1     -12.473  12.269  67.143  1.00  0.00     0.000 HD 
BRANCH  15  17
HETATM   17  C   UNL     1     -10.762  10.999  67.038  1.00  0.00    -0.270 C  
BRANCH  17  18
HETATM   18  N   UNL     1      -9.505  10.982  67.740  1.00  0.00    -0.160 N  
HETATM   19  H   UNL     1      -9.448  10.601  68.684  1.00  0.00     0.000 HD 
BRANCH  18  20
HETATM   20  C   UNL     1      -8.386  11.484  67.129  1.00  0.00    -0.160 C  
HETATM   21  O   UNL     1      -8.003  11.139  66.019  1.00  0.00    -0.134 OA 
BRANCH  20  22
HETATM   22  N   UNL     1      -7.746  12.429  67.896  1.00  0.00    -0.123 N  
HETATM   23  H   UNL     1      -7.565  12.284  68.889  1.00  0.00     0.000 HD 
BRANCH  22  24
HETATM   24  C   UNL     1      -7.348  13.633  67.218  1.00  0.00    -0.007 C  
HETATM   25  N   UNL     1      -8.392  14.590  66.944  1.00  0.00    -0.163 N  
HETATM   26  O   UNL     1      -5.554  14.241  68.838  1.00  0.00    -0.080 OA 
HETATM   27  C   UNL     1      -7.930  15.884  67.078  1.00  0.00    -0.235 C  
HETATM   28  N   UNL     1      -6.724  15.847  67.697  1.00  0.00    -0.154 NA 
HETATM   29  O   UNL     1      -8.513  16.902  66.746  1.00  0.00    -0.199 OA 
HETATM   30  C   UNL     1      -6.419  14.562  68.037  1.00  0.00    -0.150 C  
BRANCH  25  31
HETATM   31  C   UNL     1      -9.636  14.250  66.331  1.00  0.00    -0.298 C  
HETATM   32  H   UNL     1     -11.507  14.363  66.807  1.00  0.00     0.000 HD 
HETATM   33  O   UNL     1     -10.679  14.589  67.214  1.00  0.00    -0.280 OA 
ENDBRANCH  25  31
ENDBRANCH  22  24
ENDBRANCH  20  22
ENDBRANCH  18  20
ENDBRANCH  17  18
ENDBRANCH  15  17
ENDBRANCH  13  15
ENDBRANCH  11  13
ENDBRANCH   5  11
ENDBRANCH   2   4
TORSDOF 10
ENDMDL
MODEL      267
REMARK 921   NORMALIZED FREE ENERGY PREDICTED BY IDOCK:   -4.33 KCAL/MOL
REMARK 922        TOTAL FREE ENERGY PREDICTED BY IDOCK:   -8.86 KCAL/MOL
REMARK 923 INTER-LIGAND FREE ENERGY PREDICTED BY IDOCK:   -6.91 KCAL/MOL
REMARK 924 INTRA-LIGAND FREE ENERGY PREDICTED BY IDOCK:   -1.95 KCAL/MOL
REMARK 927      BINDING AFFINITY PREDICTED BY RF-SCORE:    0.00 PKD
ROOT
HETATM    1  O   UNL     1     -12.869  11.886  71.225  1.00  0.00    -0.380 OA 
HETATM    2  C   UNL     1     -13.210  12.999  72.015  1.00  0.00    -0.444 C  
HETATM    3  H   UNL     1     -13.087  11.092  71.699  1.00  0.00     0.000 HD 
ENDROOT
BRANCH   2   4
HETATM    4  N   UNL     1     -12.880  14.196  71.301  1.00  0.00    -0.340 N  
HETATM    5  C   UNL     1     -11.872  14.176  70.260  1.00  0.00    -0.303 C  
HETATM    6  O   UNL     1     -13.461  15.634  73.033  1.00  0.00    -0.517 OA 
HETATM    7  C   UNL     1     -11.175  15.523  70.557  1.00  0.00    -0.342 C  
HETATM    8  N   UNL     1     -11.947  16.215  71.438  1.00  0.00    -0.442 NA 
HETATM    9  O   UNL     1     -10.152  15.963  70.054  1.00  0.00    -0.253 OA 
HETATM   10  C   UNL     1     -12.854  15.388  72.003  1.00  0.00    -0.388 C  
BRANCH   5  11
HETATM   11  N   UNL     1     -12.474  14.216  68.951  1.00  0.00    -0.490 N  
HETATM   12  H   UNL     1     -13.082  14.995  68.700  1.00  0.00     0.000 HD 
BRANCH  11  13
HETATM   13  C   UNL     1     -12.241  13.226  68.041  1.00  0.00    -0.077 C  
HETATM   14  O   UNL     1     -11.817  12.117  68.338  1.00  0.00    -0.319 OA 
BRANCH  13  15
HETATM   15  N   UNL     1     -12.610  13.585  66.772  1.00  0.00    -0.234 N  
HETATM   16  H   UNL     1     -13.487  14.082  66.617  1.00  0.00     0.000 HD 
BRANCH  15  17
HETATM   17  C   UNL     1     -11.764  13.262  65.662  1.00  0.00    -0.356 C  
BRANCH  17  18
HETATM   18  N   UNL     1     -11.369  11.878  65.664  1.00  0.00    -0.313 N  
HETATM   19  H   UNL     1     -12.074  11.142  65.718  1.00  0.00     0.000 HD 
BRANCH  18  20
HETATM   20  C   UNL     1     -10.039  11.556  65.593  1.00  0.00    -0.237 C  
HETATM   21  O   UNL     1      -9.442  11.354  64.545  1.00  0.00    -0.213 OA 
BRANCH  20  22
HETATM   22  N   UNL     1      -9.445  11.498  66.832  1.00  0.00    -0.179 N  
HETATM   23  H   UNL     1      -9.916  11.084  67.637  1.00  0.00     0.000 HD 
BRANCH  22  24
HETATM   24  C   UNL     1      -8.123  12.055  66.928  1.00  0.00    -0.127 C  
HETATM   25  N   UNL     1      -7.989  13.256  67.715  1.00  0.00    -0.151 N  
HETATM   26  O   UNL     1      -7.038   9.962  67.737  1.00  0.00    -0.085 OA 
HETATM   27  C   UNL     1      -6.795  13.268  68.408  1.00  0.00    -0.098 C  
HETATM   28  N   UNL     1      -6.256  12.025  68.355  1.00  0.00    -0.050 NA 
HETATM   29  O   UNL     1      -6.315  14.211  69.013  1.00  0.00    -0.088 OA 
HETATM   30  C   UNL     1      -7.106  11.181  67.702  1.00  0.00    -0.089 C  
BRANCH  25  31
HETATM   31  C   UNL     1      -8.829  14.401  67.561  1.00  0.00    -0.193 C  
HETATM   32  H   UNL     1      -8.929  15.912  66.359  1.00  0.00     0.000 HD 
HETATM   33  O   UNL     1      -8.370  15.150  66.461  1.00  0.00    -0.203 OA 
ENDBRANCH  25  31
ENDBRANCH  22  24
ENDBRANCH  20  22
ENDBRANCH  18  20
ENDBRANCH  17  18
ENDBRANCH  15  17
ENDBRANCH  13  15
ENDBRANCH  11  13
ENDBRANCH   5  11
ENDBRANCH   2   4
TORSDOF 10
ENDMDL
MODEL      268
REMARK 921   NORMALIZED FREE ENERGY PREDICTED BY IDOCK:   -4.33 KCAL/MOL
REMARK 922        TOTAL FREE ENERGY PREDICTED BY IDOCK:   -8.85 KCAL/MOL
REMARK 923 INTER-LIGAND FREE ENERGY PREDICTED BY IDOCK:   -7.06 KCAL/MOL
REMARK 924 INTRA-LIGAND FREE ENERGY PREDICTED BY IDOCK:   -1.79 KCAL/MOL
REMARK 927      BINDING AFFINITY PREDICTED BY RF-SCORE:    0.00 PKD
ROOT
HETATM    1  O   UNL     1      -8.333  12.692  69.033  1.00  0.00    -0.336 OA 
HETATM    2  C   UNL     1      -9.279  11.674  68.811  1.00  0.00    -0.033 C  
HETATM    3  H   UNL     1      -7.632  12.350  69.575  1.00  0.00     0.000 HD 
ENDROOT
BRANCH   2   4
HETATM    4  N   UNL     1     -10.337  12.190  67.995  1.00  0.00    -0.199 N  
HETATM    5  C   UNL     1     -10.056  12.705  66.669  1.00  0.00    -0.241 C  
HETATM    6  O   UNL     1     -11.682  12.827  69.780  1.00  0.00    -0.308 OA 
HETATM    7  C   UNL     1     -10.999  13.929  66.668  1.00  0.00    -0.301 C  
HETATM    8  N   UNL     1     -11.826  13.829  67.744  1.00  0.00    -0.357 NA 
HETATM    9  O   UNL     1     -11.075  14.814  65.828  1.00  0.00    -0.324 OA 
HETATM   10  C   UNL     1     -11.344  12.912  68.611  1.00  0.00    -0.289 C  
BRANCH   5  11
HETATM   11  N   UNL     1     -10.468  11.771  65.650  1.00  0.00    -0.255 N  
HETATM   12  H   UNL     1     -11.384  11.873  65.216  1.00  0.00     0.000 HD 
BRANCH  11  13
HETATM   13  C   UNL     1      -9.647  10.753  65.259  1.00  0.00    -0.229 C  
HETATM   14  O   UNL     1      -8.543  10.925  64.761  1.00  0.00    -0.124 OA 
BRANCH  13  15
HETATM   15  N   UNL     1     -10.164   9.521  65.561  1.00  0.00    -0.253 N  
HETATM   16  H   UNL     1     -10.975   9.170  65.053  1.00  0.00     0.000 HD 
BRANCH  15  17
HETATM   17  C   UNL     1      -9.563   8.727  66.591  1.00  0.00    -0.220 C  
BRANCH  17  18
HETATM   18  N   UNL     1     -10.531   8.252  67.545  1.00  0.00    -0.329 N  
HETATM   19  H   UNL     1     -10.950   8.896  68.217  1.00  0.00     0.000 HD 
BRANCH  18  20
HETATM   20  C   UNL     1     -10.884   6.928  67.544  1.00  0.00    -0.292 C  
HETATM   21  O   UNL     1     -10.697   6.174  66.599  1.00  0.00    -0.273 OA 
BRANCH  20  22
HETATM   22  N   UNL     1     -11.462   6.537  68.729  1.00  0.00    -0.589 N  
HETATM   23  H   UNL     1     -12.454   6.309  68.795  1.00  0.00     0.000 HD 
BRANCH  22  24
HETATM   24  C   UNL     1     -10.589   6.468  69.868  1.00  0.00    -0.233 C  
HETATM   25  N   UNL     1     -11.149   6.880  71.132  1.00  0.00    -0.250 N  
HETATM   26  O   UNL     1      -9.967   4.075  69.553  1.00  0.00    -0.145 OA 
HETATM   27  C   UNL     1     -10.671   6.103  72.167  1.00  0.00    -0.236 C  
HETATM   28  N   UNL     1     -10.049   5.020  71.639  1.00  0.00    -0.190 NA 
HETATM   29  O   UNL     1     -10.817   6.310  73.360  1.00  0.00    -0.258 OA 
HETATM   30  C   UNL     1     -10.171   5.035  70.280  1.00  0.00    -0.258 C  
BRANCH  25  31
HETATM   31  C   UNL     1     -11.859   8.105  71.321  1.00  0.00    -0.287 C  
HETATM   32  H   UNL     1     -11.736   9.913  70.645  1.00  0.00     0.000 HD 
HETATM   33  O   UNL     1     -11.264   9.097  70.520  1.00  0.00    -0.252 OA 
ENDBRANCH  25  31
ENDBRANCH  22  24
ENDBRANCH  20  22
ENDBRANCH  18  20
ENDBRANCH  17  18
ENDBRANCH  15  17
ENDBRANCH  13  15
ENDBRANCH  11  13
ENDBRANCH   5  11
ENDBRANCH   2   4
TORSDOF 10
ENDMDL
MODEL      269
REMARK 921   NORMALIZED FREE ENERGY PREDICTED BY IDOCK:   -4.32 KCAL/MOL
REMARK 922        TOTAL FREE ENERGY PREDICTED BY IDOCK:   -8.85 KCAL/MOL
REMARK 923 INTER-LIGAND FREE ENERGY PREDICTED BY IDOCK:   -7.52 KCAL/MOL
REMARK 924 INTRA-LIGAND FREE ENERGY PREDICTED BY IDOCK:   -1.33 KCAL/MOL
REMARK 927      BINDING AFFINITY PREDICTED BY RF-SCORE:    0.00 PKD
ROOT
HETATM    1  O   UNL     1     -12.545  11.507  62.930  1.00  0.00    -0.946 OA 
HETATM    2  C   UNL     1     -11.213  11.903  63.156  1.00  0.00    -0.161 C  
HETATM    3  H   UNL     1     -12.589  11.026  62.112  1.00  0.00     0.000 HD 
ENDROOT
BRANCH   2   4
HETATM    4  N   UNL     1     -11.147  12.630  64.388  1.00  0.00    -0.323 N  
HETATM    5  C   UNL     1     -10.879  11.940  65.634  1.00  0.00    -0.286 C  
HETATM    6  O   UNL     1     -12.569  14.334  63.698  1.00  0.00    -0.831 OA 
HETATM    7  C   UNL     1     -11.854  12.702  66.561  1.00  0.00    -0.396 C  
HETATM    8  N   UNL     1     -12.303  13.798  65.893  1.00  0.00    -0.462 NA 
HETATM    9  O   UNL     1     -12.139  12.444  67.720  1.00  0.00    -0.447 OA 
HETATM   10  C   UNL     1     -12.028  13.680  64.575  1.00  0.00    -0.418 C  
BRANCH   5  11
HETATM   11  N   UNL     1      -9.522  12.157  66.069  1.00  0.00    -0.307 N  
HETATM   12  H   UNL     1      -9.054  13.033  65.838  1.00  0.00     0.000 HD 
BRANCH  11  13
HETATM   13  C   UNL     1      -8.854  11.207  66.786  1.00  0.00    -0.161 C  
HETATM   14  O   UNL     1      -7.642  11.049  66.741  1.00  0.00    -0.126 OA 
BRANCH  13  15
HETATM   15  N   UNL     1      -9.684  10.504  67.620  1.00  0.00    -0.163 N  
HETATM   16  H   UNL     1      -9.924  10.882  68.537  1.00  0.00     0.000 HD 
BRANCH  15  17
HETATM   17  C   UNL     1     -10.213   9.240  67.205  1.00  0.00    -0.257 C  
BRANCH  17  18
HETATM   18  N   UNL     1     -10.232   8.279  68.277  1.00  0.00    -0.203 N  
HETATM   19  H   UNL     1     -10.467   7.304  68.090  1.00  0.00     0.000 HD 
BRANCH  18  20
HETATM   20  C   UNL     1      -9.931   8.686  69.550  1.00  0.00    -0.196 C  
HETATM   21  O   UNL     1     -10.560   9.541  70.159  1.00  0.00    -0.217 OA 
BRANCH  20  22
HETATM   22  N   UNL     1      -8.850   8.017  70.074  1.00  0.00    -0.142 N  
HETATM   23  H   UNL     1      -7.981   7.904  69.553  1.00  0.00     0.000 HD 
BRANCH  22  24
HETATM   24  C   UNL     1      -9.015   7.485  71.400  1.00  0.00    -0.133 C  
HETATM   25  N   UNL     1      -8.930   6.051  71.530  1.00  0.00    -0.143 N  
HETATM   26  O   UNL     1      -7.248   8.894  72.449  1.00  0.00    -0.329 OA 
HETATM   27  C   UNL     1      -8.309   5.693  72.710  1.00  0.00    -0.120 C  
HETATM   28  N   UNL     1      -7.723   6.797  73.238  1.00  0.00    -0.090 NA 
HETATM   29  O   UNL     1      -8.244   4.573  73.187  1.00  0.00    -0.098 OA 
HETATM   30  C   UNL     1      -7.887   7.855  72.393  1.00  0.00    -0.115 C  
BRANCH  25  31
HETATM   31  C   UNL     1      -9.652   5.136  70.704  1.00  0.00    -0.180 C  
HETATM   32  H   UNL     1     -11.443   5.013  69.987  1.00  0.00     0.000 HD 
HETATM   33  O   UNL     1     -10.962   5.621  70.536  1.00  0.00    -0.273 OA 
ENDBRANCH  25  31
ENDBRANCH  22  24
ENDBRANCH  20  22
ENDBRANCH  18  20
ENDBRANCH  17  18
ENDBRANCH  15  17
ENDBRANCH  13  15
ENDBRANCH  11  13
ENDBRANCH   5  11
ENDBRANCH   2   4
TORSDOF 10
ENDMDL
MODEL      270
REMARK 921   NORMALIZED FREE ENERGY PREDICTED BY IDOCK:   -4.32 KCAL/MOL
REMARK 922        TOTAL FREE ENERGY PREDICTED BY IDOCK:   -8.84 KCAL/MOL
REMARK 923 INTER-LIGAND FREE ENERGY PREDICTED BY IDOCK:   -7.11 KCAL/MOL
REMARK 924 INTRA-LIGAND FREE ENERGY PREDICTED BY IDOCK:   -1.73 KCAL/MOL
REMARK 927      BINDING AFFINITY PREDICTED BY RF-SCORE:    0.00 PKD
ROOT
HETATM    1  O   UNL     1     -10.750  16.330  64.458  1.00  0.00    -0.830 OA 
HETATM    2  C   UNL     1     -10.729  15.540  65.622  1.00  0.00    -0.366 C  
HETATM    3  H   UNL     1     -10.576  17.234  64.694  1.00  0.00     0.000 HD 
ENDROOT
BRANCH   2   4
HETATM    4  N   UNL     1     -10.992  14.178  65.265  1.00  0.00    -0.319 N  
HETATM    5  C   UNL     1      -9.901  13.278  64.949  1.00  0.00    -0.016 C  
HETATM    6  O   UNL     1     -13.110  14.598  64.404  1.00  0.00    -0.281 OA 
HETATM    7  C   UNL     1     -10.538  12.514  63.765  1.00  0.00    -0.436 C  
HETATM    8  N   UNL     1     -11.862  12.821  63.726  1.00  0.00    -0.458 NA 
HETATM    9  O   UNL     1     -10.001  11.708  63.020  1.00  0.00    -0.383 OA 
HETATM   10  C   UNL     1     -12.105  13.911  64.487  1.00  0.00    -0.443 C  
BRANCH   5  11
HETATM   11  N   UNL     1      -9.645  12.367  66.036  1.00  0.00    -0.312 N  
HETATM   12  H   UNL     1     -10.285  11.591  66.203  1.00  0.00     0.000 HD 
BRANCH  11  13
HETATM   13  C   UNL     1      -8.558  12.529  66.846  1.00  0.00    -0.158 C  
HETATM   14  O   UNL     1      -8.183  13.613  67.271  1.00  0.00    -0.175 OA 
BRANCH  13  15
HETATM   15  N   UNL     1      -7.985  11.335  67.195  1.00  0.00    -0.143 N  
HETATM   16  H   UNL     1      -7.513  11.238  68.094  1.00  0.00     0.000 HD 
BRANCH  15  17
HETATM   17  C   UNL     1      -8.048  10.221  66.295  1.00  0.00    -0.129 C  
BRANCH  17  18
HETATM   18  N   UNL     1      -8.406   9.000  66.966  1.00  0.00    -0.115 N  
HETATM   19  H   UNL     1      -9.187   8.437  66.629  1.00  0.00     0.000 HD 
BRANCH  18  20
HETATM   20  C   UNL     1      -7.688   8.598  68.061  1.00  0.00    -0.102 C  
HETATM   21  O   UNL     1      -6.540   8.954  68.292  1.00  0.00    -0.059 OA 
BRANCH  20  22
HETATM   22  N   UNL     1      -8.405   7.758  68.881  1.00  0.00    -0.127 N  
HETATM   23  H   UNL     1      -8.126   6.790  69.037  1.00  0.00     0.000 HD 
BRANCH  22  24
HETATM   24  C   UNL     1      -9.569   8.324  69.507  1.00  0.00    -0.171 C  
HETATM   25  N   UNL     1     -10.536   7.389  70.027  1.00  0.00    -0.220 N  
HETATM   26  O   UNL     1      -8.310   9.766  71.104  1.00  0.00    -0.095 OA 
HETATM   27  C   UNL     1     -11.099   7.854  71.199  1.00  0.00    -0.255 C  
HETATM   28  N   UNL     1     -10.365   8.905  71.640  1.00  0.00    -0.319 NA 
HETATM   29  O   UNL     1     -12.062   7.383  71.779  1.00  0.00    -0.289 OA 
HETATM   30  C   UNL     1      -9.291   9.094  70.821  1.00  0.00    -0.264 C  
BRANCH  25  31
HETATM   31  C   UNL     1     -11.053   6.287  69.280  1.00  0.00    -0.393 C  
HETATM   32  H   UNL     1     -11.519   5.942  67.436  1.00  0.00     0.000 HD 
HETATM   33  O   UNL     1     -11.175   6.675  67.933  1.00  0.00    -0.251 OA 
ENDBRANCH  25  31
ENDBRANCH  22  24
ENDBRANCH  20  22
ENDBRANCH  18  20
ENDBRANCH  17  18
ENDBRANCH  15  17
ENDBRANCH  13  15
ENDBRANCH  11  13
ENDBRANCH   5  11
ENDBRANCH   2   4
TORSDOF 10
ENDMDL
MODEL      271
REMARK 921   NORMALIZED FREE ENERGY PREDICTED BY IDOCK:   -4.31 KCAL/MOL
REMARK 922        TOTAL FREE ENERGY PREDICTED BY IDOCK:   -8.82 KCAL/MOL
REMARK 923 INTER-LIGAND FREE ENERGY PREDICTED BY IDOCK:   -7.27 KCAL/MOL
REMARK 924 INTRA-LIGAND FREE ENERGY PREDICTED BY IDOCK:   -1.55 KCAL/MOL
REMARK 927      BINDING AFFINITY PREDICTED BY RF-SCORE:    0.00 PKD
ROOT
HETATM    1  O   UNL     1      -7.413   4.856  68.480  1.00  0.00    -0.068 OA 
HETATM    2  C   UNL     1      -7.544   5.212  69.835  1.00  0.00    -0.064 C  
HETATM    3  H   UNL     1      -6.505   4.954  68.221  1.00  0.00     0.000 HD 
ENDROOT
BRANCH   2   4
HETATM    4  N   UNL     1      -8.914   5.065  70.225  1.00  0.00    -0.113 N  
HETATM    5  C   UNL     1      -9.682   6.215  70.657  1.00  0.00    -0.174 C  
HETATM    6  O   UNL     1      -8.696   2.854  70.906  1.00  0.00    -0.067 OA 
HETATM    7  C   UNL     1     -10.472   5.570  71.819  1.00  0.00    -0.228 C  
HETATM    8  N   UNL     1     -10.307   4.222  71.747  1.00  0.00    -0.101 NA 
HETATM    9  O   UNL     1     -11.193   6.127  72.634  1.00  0.00    -0.260 OA 
HETATM   10  C   UNL     1      -9.274   3.928  70.926  1.00  0.00    -0.129 C  
BRANCH   5  11
HETATM   11  N   UNL     1     -10.595   6.650  69.629  1.00  0.00    -0.218 N  
HETATM   12  H   UNL     1     -11.501   6.193  69.535  1.00  0.00     0.000 HD 
BRANCH  11  13
HETATM   13  C   UNL     1     -10.262   7.664  68.779  1.00  0.00    -0.199 C  
HETATM   14  O   UNL     1     -10.650   7.735  67.621  1.00  0.00    -0.239 OA 
BRANCH  13  15
HETATM   15  N   UNL     1      -9.511   8.633  69.391  1.00  0.00    -0.160 N  
HETATM   16  H   UNL     1      -8.563   8.423  69.702  1.00  0.00     0.000 HD 
BRANCH  15  17
HETATM   17  C   UNL     1     -10.059   9.941  69.595  1.00  0.00    -0.230 C  
BRANCH  17  18
HETATM   18  N   UNL     1     -10.143  10.692  68.370  1.00  0.00    -0.160 N  
HETATM   19  H   UNL     1      -9.302  10.883  67.825  1.00  0.00     0.000 HD 
BRANCH  18  20
HETATM   20  C   UNL     1     -11.362  11.148  67.942  1.00  0.00    -0.309 C  
HETATM   21  O   UNL     1     -12.365  11.172  68.643  1.00  0.00    -0.549 OA 
BRANCH  20  22
HETATM   22  N   UNL     1     -11.332  11.588  66.639  1.00  0.00    -0.279 N  
HETATM   23  H   UNL     1     -11.054  10.978  65.871  1.00  0.00     0.000 HD 
BRANCH  22  24
HETATM   24  C   UNL     1     -11.713  12.957  66.423  1.00  0.00    -0.395 C  
HETATM   25  N   UNL     1     -10.639  13.901  66.237  1.00  0.00    -0.286 N  
HETATM   26  O   UNL     1     -13.242  12.484  64.513  1.00  0.00    -0.832 OA 
HETATM   27  C   UNL     1     -10.977  14.866  65.310  1.00  0.00    -0.380 C  
HETATM   28  N   UNL     1     -12.098  14.463  64.661  1.00  0.00    -0.453 NA 
HETATM   29  O   UNL     1     -10.360  15.889  65.068  1.00  0.00    -0.508 OA 
HETATM   30  C   UNL     1     -12.459  13.221  65.093  1.00  0.00    -0.470 C  
BRANCH  25  31
HETATM   31  C   UNL     1      -9.509  13.996  67.106  1.00  0.00    -0.241 C  
HETATM   32  H   UNL     1      -7.822  13.074  67.314  1.00  0.00     0.000 HD 
HETATM   33  O   UNL     1      -8.574  13.011  66.736  1.00  0.00    -0.162 OA 
ENDBRANCH  25  31
ENDBRANCH  22  24
ENDBRANCH  20  22
ENDBRANCH  18  20
ENDBRANCH  17  18
ENDBRANCH  15  17
ENDBRANCH  13  15
ENDBRANCH  11  13
ENDBRANCH   5  11
ENDBRANCH   2   4
TORSDOF 10
ENDMDL
MODEL      272
REMARK 921   NORMALIZED FREE ENERGY PREDICTED BY IDOCK:   -4.31 KCAL/MOL
REMARK 922        TOTAL FREE ENERGY PREDICTED BY IDOCK:   -8.82 KCAL/MOL
REMARK 923 INTER-LIGAND FREE ENERGY PREDICTED BY IDOCK:   -7.22 KCAL/MOL
REMARK 924 INTRA-LIGAND FREE ENERGY PREDICTED BY IDOCK:   -1.59 KCAL/MOL
REMARK 927      BINDING AFFINITY PREDICTED BY RF-SCORE:    0.00 PKD
ROOT
HETATM    1  O   UNL     1     -12.449  10.734  69.006  1.00  0.00    -0.757 OA 
HETATM    2  C   UNL     1     -12.434  10.608  70.408  1.00  0.00    -0.338 C  
HETATM    3  H   UNL     1     -12.904  11.534  68.772  1.00  0.00     0.000 HD 
ENDROOT
BRANCH   2   4
HETATM    4  N   UNL     1     -11.749   9.401  70.760  1.00  0.00    -0.283 N  
HETATM    5  C   UNL     1     -11.097   8.602  69.742  1.00  0.00    -0.067 C  
HETATM    6  O   UNL     1     -13.048   8.970  72.639  1.00  0.00    -0.426 OA 
HETATM    7  C   UNL     1     -11.467   7.191  70.251  1.00  0.00    -0.247 C  
HETATM    8  N   UNL     1     -11.979   7.313  71.506  1.00  0.00    -0.298 NA 
HETATM    9  O   UNL     1     -11.280   6.121  69.691  1.00  0.00    -0.384 OA 
HETATM   10  C   UNL     1     -12.299   8.603  71.748  1.00  0.00    -0.346 C  
BRANCH   5  11
HETATM   11  N   UNL     1      -9.666   8.775  69.780  1.00  0.00    -0.174 N  
HETATM   12  H   UNL     1      -9.177   8.722  70.673  1.00  0.00     0.000 HD 
BRANCH  11  13
HETATM   13  C   UNL     1      -8.957   9.009  68.637  1.00  0.00    -0.137 C  
HETATM   14  O   UNL     1      -7.948   8.392  68.326  1.00  0.00    -0.115 OA 
BRANCH  13  15
HETATM   15  N   UNL     1      -9.548   9.955  67.841  1.00  0.00    -0.138 N  
HETATM   16  H   UNL     1     -10.347   9.704  67.260  1.00  0.00     0.000 HD 
BRANCH  15  17
HETATM   17  C   UNL     1      -9.041  11.295  67.826  1.00  0.00    -0.152 C  
BRANCH  17  18
HETATM   18  N   UNL     1      -9.836  12.185  68.630  1.00  0.00    -0.369 N  
HETATM   19  H   UNL     1     -10.086  11.932  69.586  1.00  0.00     0.000 HD 
BRANCH  18  20
HETATM   20  C   UNL     1     -10.256  13.377  68.100  1.00  0.00    -0.246 C  
HETATM   21  O   UNL     1     -11.214  14.010  68.520  1.00  0.00    -0.241 OA 
BRANCH  20  22
HETATM   22  N   UNL     1      -9.471  13.791  67.049  1.00  0.00    -0.246 N  
HETATM   23  H   UNL     1      -9.463  13.298  66.156  1.00  0.00     0.000 HD 
BRANCH  22  24
HETATM   24  C   UNL     1      -8.663  14.957  67.281  1.00  0.00    -0.207 C  
HETATM   25  N   UNL     1      -9.369  16.202  67.458  1.00  0.00    -0.216 N  
HETATM   26  O   UNL     1      -7.409  14.002  69.212  1.00  0.00    -0.086 OA 
HETATM   27  C   UNL     1      -8.746  17.000  68.397  1.00  0.00    -0.247 C  
HETATM   28  N   UNL     1      -7.833  16.248  69.061  1.00  0.00    -0.228 NA 
HETATM   29  O   UNL     1      -8.995  18.168  68.637  1.00  0.00    -0.311 OA 
HETATM   30  C   UNL     1      -7.895  14.957  68.625  1.00  0.00    -0.134 C  
BRANCH  25  31
HETATM   31  C   UNL     1     -10.389  16.666  66.572  1.00  0.00    -0.299 C  
HETATM   32  H   UNL     1     -10.473  17.315  64.753  1.00  0.00     0.000 HD 
HETATM   33  O   UNL     1      -9.795  17.006  65.342  1.00  0.00    -0.531 OA 
ENDBRANCH  25  31
ENDBRANCH  22  24
ENDBRANCH  20  22
ENDBRANCH  18  20
ENDBRANCH  17  18
ENDBRANCH  15  17
ENDBRANCH  13  15
ENDBRANCH  11  13
ENDBRANCH   5  11
ENDBRANCH   2   4
TORSDOF 10
ENDMDL
MODEL      273
REMARK 921   NORMALIZED FREE ENERGY PREDICTED BY IDOCK:   -4.30 KCAL/MOL
REMARK 922        TOTAL FREE ENERGY PREDICTED BY IDOCK:   -8.81 KCAL/MOL
REMARK 923 INTER-LIGAND FREE ENERGY PREDICTED BY IDOCK:   -7.21 KCAL/MOL
REMARK 924 INTRA-LIGAND FREE ENERGY PREDICTED BY IDOCK:   -1.60 KCAL/MOL
REMARK 927      BINDING AFFINITY PREDICTED BY RF-SCORE:    0.00 PKD
ROOT
HETATM    1  O   UNL     1     -10.238  10.363  63.895  1.00  0.00    -0.423 OA 
HETATM    2  C   UNL     1      -8.905  10.354  64.347  1.00  0.00    -0.206 C  
HETATM    3  H   UNL     1     -10.242  10.335  62.946  1.00  0.00     0.000 HD 
ENDROOT
BRANCH   2   4
HETATM    4  N   UNL     1      -8.899  10.396  65.779  1.00  0.00    -0.163 N  
HETATM    5  C   UNL     1      -9.523  11.498  66.484  1.00  0.00    -0.204 C  
HETATM    6  O   UNL     1      -6.943   9.162  66.010  1.00  0.00    -0.083 OA 
HETATM    7  C   UNL     1      -8.485  11.697  67.612  1.00  0.00    -0.142 C  
HETATM    8  N   UNL     1      -7.637  10.633  67.600  1.00  0.00    -0.092 NA 
HETATM    9  O   UNL     1      -8.443  12.595  68.440  1.00  0.00    -0.168 OA 
HETATM   10  C   UNL     1      -7.766   9.954  66.439  1.00  0.00    -0.104 C  
BRANCH   5  11
HETATM   11  N   UNL     1     -10.789  11.104  67.050  1.00  0.00    -0.272 N  
HETATM   12  H   UNL     1     -11.086  10.131  66.989  1.00  0.00     0.000 HD 
BRANCH  11  13
HETATM   13  C   UNL     1     -11.596  12.017  67.666  1.00  0.00    -0.321 C  
HETATM   14  O   UNL     1     -12.395  11.731  68.546  1.00  0.00    -0.348 OA 
BRANCH  13  15
HETATM   15  N   UNL     1     -11.351  13.298  67.245  1.00  0.00    -0.299 N  
HETATM   16  H   UNL     1     -10.922  13.462  66.334  1.00  0.00     0.000 HD 
BRANCH  15  17
HETATM   17  C   UNL     1     -11.698  14.405  68.085  1.00  0.00    -0.342 C  
BRANCH  17  18
HETATM   18  N   UNL     1     -10.669  14.702  69.046  1.00  0.00    -0.244 N  
HETATM   19  H   UNL     1     -10.555  14.119  69.875  1.00  0.00     0.000 HD 
BRANCH  18  20
HETATM   20  C   UNL     1      -9.842  15.774  68.837  1.00  0.00    -0.224 C  
HETATM   21  O   UNL     1      -8.630  15.682  68.693  1.00  0.00    -0.167 OA 
BRANCH  20  22
HETATM   22  N   UNL     1     -10.526  16.966  68.793  1.00  0.00    -0.322 N  
HETATM   23  H   UNL     1     -11.392  17.109  69.312  1.00  0.00     0.000 HD 
BRANCH  22  24
HETATM   24  C   UNL     1      -9.950  17.999  67.975  1.00  0.00    -0.343 C  
HETATM   25  N   UNL     1     -10.551  18.199  66.679  1.00  0.00    -0.324 N  
HETATM   26  O   UNL     1     -10.149  19.802  69.684  1.00  0.00    -0.276 OA 
HETATM   27  C   UNL     1     -10.566  19.537  66.338  1.00  0.00    -0.472 C  
HETATM   28  N   UNL     1     -10.272  20.265  67.444  1.00  0.00    -0.391 NA 
HETATM   29  O   UNL     1     -10.842  20.006  65.247  1.00  0.00    -0.310 OA 
HETATM   30  C   UNL     1     -10.135  19.436  68.518  1.00  0.00    -0.437 C  
BRANCH  25  31
HETATM   31  C   UNL     1     -10.815  17.141  65.756  1.00  0.00    -0.039 C  
HETATM   32  H   UNL     1      -9.824  15.661  65.004  1.00  0.00     0.000 HD 
HETATM   33  O   UNL     1      -9.649  16.365  65.618  1.00  0.00    -0.495 OA 
ENDBRANCH  25  31
ENDBRANCH  22  24
ENDBRANCH  20  22
ENDBRANCH  18  20
ENDBRANCH  17  18
ENDBRANCH  15  17
ENDBRANCH  13  15
ENDBRANCH  11  13
ENDBRANCH   5  11
ENDBRANCH   2   4
TORSDOF 10
ENDMDL
MODEL      274
REMARK 921   NORMALIZED FREE ENERGY PREDICTED BY IDOCK:   -4.30 KCAL/MOL
REMARK 922        TOTAL FREE ENERGY PREDICTED BY IDOCK:   -8.81 KCAL/MOL
REMARK 923 INTER-LIGAND FREE ENERGY PREDICTED BY IDOCK:   -7.18 KCAL/MOL
REMARK 924 INTRA-LIGAND FREE ENERGY PREDICTED BY IDOCK:   -1.62 KCAL/MOL
REMARK 927      BINDING AFFINITY PREDICTED BY RF-SCORE:    0.00 PKD
ROOT
HETATM    1  O   UNL     1      -6.309  18.927  64.463  1.00  0.00    -0.486 OA 
HETATM    2  C   UNL     1      -6.037  18.385  65.733  1.00  0.00    -0.225 C  
HETATM    3  H   UNL     1      -5.816  18.445  63.810  1.00  0.00     0.000 HD 
ENDROOT
BRANCH   2   4
HETATM    4  N   UNL     1      -6.780  19.112  66.719  1.00  0.00    -0.193 N  
HETATM    5  C   UNL     1      -8.188  18.841  66.925  1.00  0.00    -0.265 C  
HETATM    6  O   UNL     1      -5.445  21.012  66.619  1.00  0.00    -0.179 OA 
HETATM    7  C   UNL     1      -8.698  20.286  67.129  1.00  0.00    -0.339 C  
HETATM    8  N   UNL     1      -7.618  21.098  67.287  1.00  0.00    -0.361 NA 
HETATM    9  O   UNL     1      -9.856  20.665  67.217  1.00  0.00    -0.471 OA 
HETATM   10  C   UNL     1      -6.497  20.456  66.888  1.00  0.00    -0.225 C  
BRANCH   5  11
HETATM   11  N   UNL     1      -8.401  18.074  68.127  1.00  0.00    -0.261 N  
HETATM   12  H   UNL     1      -8.146  18.473  69.030  1.00  0.00     0.000 HD 
BRANCH  11  13
HETATM   13  C   UNL     1      -8.940  16.821  68.073  1.00  0.00    -0.217 C  
HETATM   14  O   UNL     1      -9.808  16.421  68.838  1.00  0.00    -0.238 OA 
BRANCH  13  15
HETATM   15  N   UNL     1      -8.458  16.091  67.019  1.00  0.00    -0.195 N  
HETATM   16  H   UNL     1      -7.481  16.180  66.741  1.00  0.00     0.000 HD 
BRANCH  15  17
HETATM   17  C   UNL     1      -9.328  15.202  66.308  1.00  0.00    -0.313 C  
BRANCH  17  18
HETATM   18  N   UNL     1      -8.921  13.827  66.433  1.00  0.00    -0.471 N  
HETATM   19  H   UNL     1      -9.177  13.147  65.718  1.00  0.00     0.000 HD 
BRANCH  18  20
HETATM   20  C   UNL     1      -8.185  13.439  67.522  1.00  0.00    -0.185 C  
HETATM   21  O   UNL     1      -6.967  13.325  67.516  1.00  0.00    -0.152 OA 
BRANCH  20  22
HETATM   22  N   UNL     1      -8.967  13.203  68.629  1.00  0.00    -0.379 N  
HETATM   23  H   UNL     1      -8.834  13.714  69.501  1.00  0.00     0.000 HD 
BRANCH  22  24
HETATM   24  C   UNL     1      -9.982  12.196  68.485  1.00  0.00    -0.175 C  
HETATM   25  N   UNL     1      -9.736  10.938  69.146  1.00  0.00    -0.167 N  
HETATM   26  O   UNL     1     -11.860  13.627  69.285  1.00  0.00    -0.303 OA 
HETATM   27  C   UNL     1     -10.903  10.403  69.653  1.00  0.00    -0.277 C  
HETATM   28  N   UNL     1     -11.864  11.360  69.618  1.00  0.00    -0.331 NA 
HETATM   29  O   UNL     1     -11.052   9.281  70.105  1.00  0.00    -0.238 OA 
HETATM   30  C   UNL     1     -11.331  12.531  69.166  1.00  0.00    -0.274 C  
BRANCH  25  31
HETATM   31  C   UNL     1      -8.513  10.208  69.029  1.00  0.00    -0.151 C  
HETATM   32  H   UNL     1      -7.562   9.288  67.619  1.00  0.00     0.000 HD 
HETATM   33  O   UNL     1      -8.375   9.774  67.698  1.00  0.00    -0.114 OA 
ENDBRANCH  25  31
ENDBRANCH  22  24
ENDBRANCH  20  22
ENDBRANCH  18  20
ENDBRANCH  17  18
ENDBRANCH  15  17
ENDBRANCH  13  15
ENDBRANCH  11  13
ENDBRANCH   5  11
ENDBRANCH   2   4
TORSDOF 10
ENDMDL
MODEL      275
REMARK 921   NORMALIZED FREE ENERGY PREDICTED BY IDOCK:   -4.30 KCAL/MOL
REMARK 922        TOTAL FREE ENERGY PREDICTED BY IDOCK:   -8.80 KCAL/MOL
REMARK 923 INTER-LIGAND FREE ENERGY PREDICTED BY IDOCK:   -7.56 KCAL/MOL
REMARK 924 INTRA-LIGAND FREE ENERGY PREDICTED BY IDOCK:   -1.24 KCAL/MOL
REMARK 927      BINDING AFFINITY PREDICTED BY RF-SCORE:    0.00 PKD
ROOT
HETATM    1  O   UNL     1      -9.429   8.240  67.415  1.00  0.00    -0.144 OA 
HETATM    2  C   UNL     1     -10.478   8.726  66.613  1.00  0.00    -0.170 C  
HETATM    3  H   UNL     1      -9.729   7.468  67.881  1.00  0.00     0.000 HD 
ENDROOT
BRANCH   2   4
HETATM    4  N   UNL     1     -10.026   9.890  65.910  1.00  0.00    -0.278 N  
HETATM    5  C   UNL     1     -10.903  11.030  65.738  1.00  0.00    -0.097 C  
HETATM    6  O   UNL     1      -8.497   8.746  64.584  1.00  0.00    -0.169 OA 
HETATM    7  C   UNL     1     -10.538  11.414  64.286  1.00  0.00    -0.355 C  
HETATM    8  N   UNL     1      -9.424  10.718  63.931  1.00  0.00    -0.249 NA 
HETATM    9  O   UNL     1     -11.080  12.245  63.573  1.00  0.00    -0.427 OA 
HETATM   10  C   UNL     1      -9.213   9.710  64.805  1.00  0.00    -0.238 C  
BRANCH   5  11
HETATM   11  N   UNL     1     -10.543  12.104  66.631  1.00  0.00    -0.230 N  
HETATM   12  H   UNL     1      -9.563  12.368  66.731  1.00  0.00     0.000 HD 
BRANCH  11  13
HETATM   13  C   UNL     1     -11.495  12.772  67.345  1.00  0.00    -0.340 C  
HETATM   14  O   UNL     1     -11.889  12.420  68.448  1.00  0.00    -0.322 OA 
BRANCH  13  15
HETATM   15  N   UNL     1     -11.902  13.923  66.723  1.00  0.00    -0.400 N  
HETATM   16  H   UNL     1     -12.554  13.877  65.940  1.00  0.00     0.000 HD 
BRANCH  15  17
HETATM   17  C   UNL     1     -11.408  15.191  67.172  1.00  0.00    -0.290 C  
BRANCH  17  18
HETATM   18  N   UNL     1     -10.543  15.812  66.203  1.00  0.00    -0.311 N  
HETATM   19  H   UNL     1     -10.831  15.883  65.227  1.00  0.00     0.000 HD 
BRANCH  18  20
HETATM   20  C   UNL     1      -9.330  16.307  66.603  1.00  0.00    -0.248 C  
HETATM   21  O   UNL     1      -8.468  16.704  65.831  1.00  0.00    -0.451 OA 
BRANCH  20  22
HETATM   22  N   UNL     1      -9.193  16.320  67.972  1.00  0.00    -0.195 N  
HETATM   23  H   UNL     1      -9.225  15.464  68.525  1.00  0.00     0.000 HD 
BRANCH  22  24
HETATM   24  C   UNL     1      -9.000  17.610  68.577  1.00  0.00    -0.289 C  
HETATM   25  N   UNL     1      -7.716  18.232  68.367  1.00  0.00    -0.290 N  
HETATM   26  O   UNL     1     -11.022  18.658  67.565  1.00  0.00    -0.392 OA 
HETATM   27  C   UNL     1      -7.841  19.599  68.222  1.00  0.00    -0.320 C  
HETATM   28  N   UNL     1      -9.152  19.893  68.040  1.00  0.00    -0.323 NA 
HETATM   29  O   UNL     1      -6.935  20.414  68.209  1.00  0.00    -0.279 OA 
HETATM   30  C   UNL     1      -9.880  18.740  67.991  1.00  0.00    -0.343 C  
BRANCH  25  31
HETATM   31  C   UNL     1      -6.470  17.567  68.580  1.00  0.00    -0.194 C  
HETATM   32  H   UNL     1      -5.815  16.157  69.730  1.00  0.00     0.000 HD 
HETATM   33  O   UNL     1      -6.644  16.599  69.588  1.00  0.00    -0.221 OA 
ENDBRANCH  25  31
ENDBRANCH  22  24
ENDBRANCH  20  22
ENDBRANCH  18  20
ENDBRANCH  17  18
ENDBRANCH  15  17
ENDBRANCH  13  15
ENDBRANCH  11  13
ENDBRANCH   5  11
ENDBRANCH   2   4
TORSDOF 10
ENDMDL
MODEL      276
REMARK 921   NORMALIZED FREE ENERGY PREDICTED BY IDOCK:   -4.29 KCAL/MOL
REMARK 922        TOTAL FREE ENERGY PREDICTED BY IDOCK:   -8.80 KCAL/MOL
REMARK 923 INTER-LIGAND FREE ENERGY PREDICTED BY IDOCK:   -7.65 KCAL/MOL
REMARK 924 INTRA-LIGAND FREE ENERGY PREDICTED BY IDOCK:   -1.16 KCAL/MOL
REMARK 927      BINDING AFFINITY PREDICTED BY RF-SCORE:    0.00 PKD
ROOT
HETATM    1  O   UNL     1      -9.112  20.414  66.531  1.00  0.00    -0.544 OA 
HETATM    2  C   UNL     1      -7.718  20.485  66.713  1.00  0.00    -0.224 C  
HETATM    3  H   UNL     1      -9.434  21.270  66.276  1.00  0.00     0.000 HD 
ENDROOT
BRANCH   2   4
HETATM    4  N   UNL     1      -7.232  19.194  67.096  1.00  0.00    -0.208 N  
HETATM    5  C   UNL     1      -7.673  18.580  68.332  1.00  0.00    -0.298 C  
HETATM    6  O   UNL     1      -5.213  19.390  65.960  1.00  0.00    -0.150 OA 
HETATM    7  C   UNL     1      -6.337  17.959  68.799  1.00  0.00    -0.217 C  
HETATM    8  N   UNL     1      -5.454  18.029  67.766  1.00  0.00    -0.148 NA 
HETATM    9  O   UNL     1      -6.095  17.421  69.869  1.00  0.00    -0.247 OA 
HETATM   10  C   UNL     1      -5.909  18.889  66.829  1.00  0.00    -0.161 C  
BRANCH   5  11
HETATM   11  N   UNL     1      -8.635  17.536  68.081  1.00  0.00    -0.250 N  
HETATM   12  H   UNL     1      -8.333  16.672  67.632  1.00  0.00     0.000 HD 
BRANCH  11  13
HETATM   13  C   UNL     1      -9.944  17.687  68.437  1.00  0.00    -0.356 C  
HETATM   14  O   UNL     1     -10.780  18.237  67.733  1.00  0.00    -0.411 OA 
BRANCH  13  15
HETATM   15  N   UNL     1     -10.233  17.085  69.633  1.00  0.00    -0.096 N  
HETATM   16  H   UNL     1      -9.683  17.306  70.462  1.00  0.00     0.000 HD 
BRANCH  15  17
HETATM   17  C   UNL     1     -11.309  16.142  69.717  1.00  0.00    -0.323 C  
BRANCH  17  18
HETATM   18  N   UNL     1     -10.846  14.781  69.647  1.00  0.00    -0.335 N  
HETATM   19  H   UNL     1      -9.849  14.572  69.715  1.00  0.00     0.000 HD 
BRANCH  18  20
HETATM   20  C   UNL     1     -11.754  13.767  69.490  1.00  0.00    -0.323 C  
HETATM   21  O   UNL     1     -12.073  12.993  70.383  1.00  0.00    -0.359 OA 
BRANCH  20  22
HETATM   22  N   UNL     1     -12.280  13.724  68.220  1.00  0.00    -0.444 N  
HETATM   23  H   UNL     1     -13.065  14.312  67.941  1.00  0.00     0.000 HD 
BRANCH  22  24
HETATM   24  C   UNL     1     -11.659  12.802  67.308  1.00  0.00    -0.360 C  
HETATM   25  N   UNL     1     -10.268  13.037  67.007  1.00  0.00    -0.243 N  
HETATM   26  O   UNL     1     -12.283  10.749  68.576  1.00  0.00    -0.470 OA 
HETATM   27  C   UNL     1      -9.580  11.849  66.865  1.00  0.00    -0.200 C  
HETATM   28  N   UNL     1     -10.361  10.843  67.333  1.00  0.00    -0.201 NA 
HETATM   29  O   UNL     1      -8.445  11.712  66.441  1.00  0.00    -0.176 OA 
HETATM   30  C   UNL     1     -11.517  11.356  67.843  1.00  0.00    -0.291 C  
BRANCH  25  31
HETATM   31  C   UNL     1      -9.747  14.308  66.613  1.00  0.00    -0.287 C  
HETATM   32  H   UNL     1     -10.479  15.999  66.025  1.00  0.00     0.000 HD 
HETATM   33  O   UNL     1     -10.824  15.153  66.287  1.00  0.00    -0.324 OA 
ENDBRANCH  25  31
ENDBRANCH  22  24
ENDBRANCH  20  22
ENDBRANCH  18  20
ENDBRANCH  17  18
ENDBRANCH  15  17
ENDBRANCH  13  15
ENDBRANCH  11  13
ENDBRANCH   5  11
ENDBRANCH   2   4
TORSDOF 10
ENDMDL
MODEL      277
REMARK 921   NORMALIZED FREE ENERGY PREDICTED BY IDOCK:   -4.29 KCAL/MOL
REMARK 922        TOTAL FREE ENERGY PREDICTED BY IDOCK:   -8.80 KCAL/MOL
REMARK 923 INTER-LIGAND FREE ENERGY PREDICTED BY IDOCK:   -7.66 KCAL/MOL
REMARK 924 INTRA-LIGAND FREE ENERGY PREDICTED BY IDOCK:   -1.13 KCAL/MOL
REMARK 927      BINDING AFFINITY PREDICTED BY RF-SCORE:    0.00 PKD
ROOT
HETATM    1  O   UNL     1     -10.328  15.196  70.027  1.00  0.00    -0.415 OA 
HETATM    2  C   UNL     1     -11.530  15.265  69.297  1.00  0.00    -0.320 C  
HETATM    3  H   UNL     1     -10.492  14.751  70.850  1.00  0.00     0.000 HD 
ENDROOT
BRANCH   2   4
HETATM    4  N   UNL     1     -11.283  15.936  68.056  1.00  0.00    -0.340 N  
HETATM    5  C   UNL     1     -10.901  15.185  66.878  1.00  0.00    -0.317 C  
HETATM    6  O   UNL     1     -10.639  17.944  69.035  1.00  0.00    -0.204 OA 
HETATM    7  C   UNL     1      -9.841  16.147  66.295  1.00  0.00    -0.307 C  
HETATM    8  N   UNL     1      -9.930  17.329  66.963  1.00  0.00    -0.279 NA 
HETATM    9  O   UNL     1      -9.089  15.950  65.353  1.00  0.00    -0.204 OA 
HETATM   10  C   UNL     1     -10.650  17.166  68.095  1.00  0.00    -0.380 C  
BRANCH   5  11
HETATM   11  N   UNL     1     -12.005  15.060  65.959  1.00  0.00    -0.043 N  
HETATM   12  H   UNL     1     -12.951  14.949  66.321  1.00  0.00     0.000 HD 
BRANCH  11  13
HETATM   13  C   UNL     1     -11.800  15.090  64.609  1.00  0.00    -0.375 C  
HETATM   14  O   UNL     1     -12.168  16.006  63.886  1.00  0.00    -0.883 OA 
BRANCH  13  15
HETATM   15  N   UNL     1     -11.066  14.020  64.169  1.00  0.00    -0.584 N  
HETATM   16  H   UNL     1     -10.108  14.156  63.849  1.00  0.00     0.000 HD 
BRANCH  15  17
HETATM   17  C   UNL     1     -11.648  12.710  64.159  1.00  0.00    -0.394 C  
BRANCH  17  18
HETATM   18  N   UNL     1     -10.938  11.794  65.012  1.00  0.00    -0.306 N  
HETATM   19  H   UNL     1     -10.334  11.077  64.608  1.00  0.00     0.000 HD 
BRANCH  18  20
HETATM   20  C   UNL     1     -11.080  11.892  66.371  1.00  0.00    -0.309 C  
HETATM   21  O   UNL     1     -12.095  12.295  66.923  1.00  0.00    -0.583 OA 
BRANCH  20  22
HETATM   22  N   UNL     1      -9.958  11.475  67.048  1.00  0.00    -0.198 N  
HETATM   23  H   UNL     1     -10.019  10.927  67.906  1.00  0.00     0.000 HD 
BRANCH  22  24
HETATM   24  C   UNL     1      -8.694  11.855  66.478  1.00  0.00    -0.158 C  
HETATM   25  N   UNL     1      -7.733  12.439  67.381  1.00  0.00    -0.162 N  
HETATM   26  O   UNL     1      -8.201   9.629  65.473  1.00  0.00    -0.119 OA 
HETATM   27  C   UNL     1      -6.449  12.043  67.067  1.00  0.00    -0.114 C  
HETATM   28  N   UNL     1      -6.521  11.010  66.190  1.00  0.00    -0.114 NA 
HETATM   29  O   UNL     1      -5.415  12.497  67.526  1.00  0.00    -0.112 OA 
HETATM   30  C   UNL     1      -7.826  10.675  65.979  1.00  0.00    -0.156 C  
BRANCH  25  31
HETATM   31  C   UNL     1      -8.037  13.508  68.278  1.00  0.00    -0.155 C  
HETATM   32  H   UNL     1      -7.637  15.397  68.391  1.00  0.00     0.000 HD 
HETATM   33  O   UNL     1      -7.436  14.685  67.795  1.00  0.00    -0.132 OA 
ENDBRANCH  25  31
ENDBRANCH  22  24
ENDBRANCH  20  22
ENDBRANCH  18  20
ENDBRANCH  17  18
ENDBRANCH  15  17
ENDBRANCH  13  15
ENDBRANCH  11  13
ENDBRANCH   5  11
ENDBRANCH   2   4
TORSDOF 10
ENDMDL
MODEL      278
REMARK 921   NORMALIZED FREE ENERGY PREDICTED BY IDOCK:   -4.29 KCAL/MOL
REMARK 922        TOTAL FREE ENERGY PREDICTED BY IDOCK:   -8.79 KCAL/MOL
REMARK 923 INTER-LIGAND FREE ENERGY PREDICTED BY IDOCK:   -8.04 KCAL/MOL
REMARK 924 INTRA-LIGAND FREE ENERGY PREDICTED BY IDOCK:   -0.75 KCAL/MOL
REMARK 927      BINDING AFFINITY PREDICTED BY RF-SCORE:    0.00 PKD
ROOT
HETATM    1  O   UNL     1      -6.313  20.143  70.345  1.00  0.00    -0.366 OA 
HETATM    2  C   UNL     1      -5.966  20.594  69.058  1.00  0.00    -0.344 C  
HETATM    3  H   UNL     1      -5.903  20.706  70.991  1.00  0.00     0.000 HD 
ENDROOT
BRANCH   2   4
HETATM    4  N   UNL     1      -6.583  19.743  68.084  1.00  0.00    -0.252 N  
HETATM    5  C   UNL     1      -7.287  18.546  68.496  1.00  0.00    -0.295 C  
HETATM    6  O   UNL     1      -5.127  20.314  66.364  1.00  0.00    -0.160 OA 
HETATM    7  C   UNL     1      -6.834  17.586  67.373  1.00  0.00    -0.164 C  
HETATM    8  N   UNL     1      -6.229  18.324  66.403  1.00  0.00    -0.174 NA 
HETATM    9  O   UNL     1      -7.031  16.383  67.292  1.00  0.00    -0.146 OA 
HETATM   10  C   UNL     1      -5.932  19.554  66.878  1.00  0.00    -0.173 C  
BRANCH   5  11
HETATM   11  N   UNL     1      -8.715  18.733  68.431  1.00  0.00    -0.328 N  
HETATM   12  H   UNL     1      -9.291  18.496  69.239  1.00  0.00     0.000 HD 
BRANCH  11  13
HETATM   13  C   UNL     1      -9.308  19.223  67.303  1.00  0.00    -0.306 C  
HETATM   14  O   UNL     1      -9.622  20.396  67.156  1.00  0.00    -0.412 OA 
BRANCH  13  15
HETATM   15  N   UNL     1      -9.436  18.271  66.326  1.00  0.00    -0.272 N  
HETATM   16  H   UNL     1      -8.663  18.090  65.686  1.00  0.00     0.000 HD 
BRANCH  15  17
HETATM   17  C   UNL     1     -10.657  17.532  66.204  1.00  0.00    -0.211 C  
BRANCH  17  18
HETATM   18  N   UNL     1     -10.425  16.147  65.888  1.00  0.00    -0.346 N  
HETATM   19  H   UNL     1     -10.073  15.881  64.968  1.00  0.00     0.000 HD 
BRANCH  18  20
HETATM   20  C   UNL     1     -10.679  15.189  66.834  1.00  0.00    -0.308 C  
HETATM   21  O   UNL     1      -9.829  14.730  67.585  1.00  0.00    -0.216 OA 
BRANCH  20  22
HETATM   22  N   UNL     1     -12.000  14.808  66.855  1.00  0.00    -0.341 N  
HETATM   23  H   UNL     1     -12.743  15.454  67.121  1.00  0.00     0.000 HD 
BRANCH  22  24
HETATM   24  C   UNL     1     -12.274  13.447  66.480  1.00  0.00    -0.356 C  
HETATM   25  N   UNL     1     -11.641  12.975  65.273  1.00  0.00    -0.315 N  
HETATM   26  O   UNL     1     -11.593  12.453  68.662  1.00  0.00    -0.273 OA 
HETATM   27  C   UNL     1     -11.264  11.652  65.392  1.00  0.00    -0.199 C  
HETATM   28  N   UNL     1     -11.349  11.298  66.699  1.00  0.00    -0.351 NA 
HETATM   29  O   UNL     1     -10.870  10.925  64.497  1.00  0.00    -0.279 OA 
HETATM   30  C   UNL     1     -11.706  12.380  67.448  1.00  0.00    -0.347 C  
BRANCH  25  31
HETATM   31  C   UNL     1     -11.675  13.682  64.033  1.00  0.00    -0.364 C  
HETATM   32  H   UNL     1     -12.721  15.117  63.268  1.00  0.00     0.000 HD 
HETATM   33  O   UNL     1     -12.698  14.646  64.093  1.00  0.00    -0.738 OA 
ENDBRANCH  25  31
ENDBRANCH  22  24
ENDBRANCH  20  22
ENDBRANCH  18  20
ENDBRANCH  17  18
ENDBRANCH  15  17
ENDBRANCH  13  15
ENDBRANCH  11  13
ENDBRANCH   5  11
ENDBRANCH   2   4
TORSDOF 10
ENDMDL
MODEL      279
REMARK 921   NORMALIZED FREE ENERGY PREDICTED BY IDOCK:   -4.28 KCAL/MOL
REMARK 922        TOTAL FREE ENERGY PREDICTED BY IDOCK:   -8.78 KCAL/MOL
REMARK 923 INTER-LIGAND FREE ENERGY PREDICTED BY IDOCK:   -7.06 KCAL/MOL
REMARK 924 INTRA-LIGAND FREE ENERGY PREDICTED BY IDOCK:   -1.71 KCAL/MOL
REMARK 927      BINDING AFFINITY PREDICTED BY RF-SCORE:    0.00 PKD
ROOT
HETATM    1  O   UNL     1      -8.852  13.549  67.499  1.00  0.00    -0.186 OA 
HETATM    2  C   UNL     1      -9.313  13.973  66.238  1.00  0.00    -0.175 C  
HETATM    3  H   UNL     1      -7.910  13.665  67.538  1.00  0.00     0.000 HD 
ENDROOT
BRANCH   2   4
HETATM    4  N   UNL     1     -10.733  13.798  66.179  1.00  0.00    -0.281 N  
HETATM    5  C   UNL     1     -11.301  12.495  65.899  1.00  0.00    -0.340 C  
HETATM    6  O   UNL     1     -11.182  15.986  65.534  1.00  0.00    -0.149 OA 
HETATM    7  C   UNL     1     -12.463  12.918  64.971  1.00  0.00    -0.492 C  
HETATM    8  N   UNL     1     -12.593  14.271  65.045  1.00  0.00    -0.606 NA 
HETATM    9  O   UNL     1     -13.208  12.195  64.327  1.00  0.00    -0.768 OA 
HETATM   10  C   UNL     1     -11.492  14.808  65.614  1.00  0.00    -0.327 C  
BRANCH   5  11
HETATM   11  N   UNL     1     -11.830  11.889  67.096  1.00  0.00    -0.229 N  
HETATM   12  H   UNL     1     -12.753  12.161  67.432  1.00  0.00     0.000 HD 
BRANCH  11  13
HETATM   13  C   UNL     1     -11.111  10.956  67.786  1.00  0.00    -0.309 C  
HETATM   14  O   UNL     1      -9.900  10.819  67.682  1.00  0.00    -0.167 OA 
BRANCH  13  15
HETATM   15  N   UNL     1     -11.885  10.248  68.667  1.00  0.00    -0.476 N  
HETATM   16  H   UNL     1     -12.760   9.828  68.354  1.00  0.00     0.000 HD 
BRANCH  15  17
HETATM   17  C   UNL     1     -11.465  10.099  70.029  1.00  0.00    -0.277 C  
BRANCH  17  18
HETATM   18  N   UNL     1     -11.367   8.717  70.419  1.00  0.00    -0.384 N  
HETATM   19  H   UNL     1     -11.908   8.366  71.210  1.00  0.00     0.000 HD 
BRANCH  18  20
HETATM   20  C   UNL     1     -10.542   7.876  69.720  1.00  0.00    -0.242 C  
HETATM   21  O   UNL     1     -10.843   7.356  68.654  1.00  0.00    -0.150 OA 
BRANCH  20  22
HETATM   22  N   UNL     1      -9.330   7.691  70.343  1.00  0.00    -0.160 N  
HETATM   23  H   UNL     1      -8.482   8.157  70.021  1.00  0.00     0.000 HD 
BRANCH  22  24
HETATM   24  C   UNL     1      -9.326   6.803  71.473  1.00  0.00    -0.153 C  
HETATM   25  N   UNL     1      -8.520   5.613  71.351  1.00  0.00    -0.127 N  
HETATM   26  O   UNL     1      -8.667   8.535  73.140  1.00  0.00    -0.345 OA 
HETATM   27  C   UNL     1      -7.927   5.287  72.554  1.00  0.00    -0.103 C  
HETATM   28  N   UNL     1      -8.058   6.341  73.397  1.00  0.00    -0.111 NA 
HETATM   29  O   UNL     1      -7.337   4.253  72.817  1.00  0.00    -0.069 OA 
HETATM   30  C   UNL     1      -8.662   7.378  72.748  1.00  0.00    -0.126 C  
BRANCH  25  31
HETATM   31  C   UNL     1      -8.574   4.733  70.227  1.00  0.00    -0.090 C  
HETATM   32  H   UNL     1      -9.958   3.857  69.200  1.00  0.00     0.000 HD 
HETATM   33  O   UNL     1      -9.922   4.443  69.947  1.00  0.00    -0.222 OA 
ENDBRANCH  25  31
ENDBRANCH  22  24
ENDBRANCH  20  22
ENDBRANCH  18  20
ENDBRANCH  17  18
ENDBRANCH  15  17
ENDBRANCH  13  15
ENDBRANCH  11  13
ENDBRANCH   5  11
ENDBRANCH   2   4
TORSDOF 10
ENDMDL
MODEL      280
REMARK 921   NORMALIZED FREE ENERGY PREDICTED BY IDOCK:   -4.27 KCAL/MOL
REMARK 922        TOTAL FREE ENERGY PREDICTED BY IDOCK:   -8.77 KCAL/MOL
REMARK 923 INTER-LIGAND FREE ENERGY PREDICTED BY IDOCK:   -7.96 KCAL/MOL
REMARK 924 INTRA-LIGAND FREE ENERGY PREDICTED BY IDOCK:   -0.81 KCAL/MOL
REMARK 927      BINDING AFFINITY PREDICTED BY RF-SCORE:    0.00 PKD
ROOT
HETATM    1  O   UNL     1     -10.673   5.433  71.644  1.00  0.00    -0.236 OA 
HETATM    2  C   UNL     1     -11.729   6.342  71.448  1.00  0.00    -0.306 C  
HETATM    3  H   UNL     1     -11.015   4.548  71.600  1.00  0.00     0.000 HD 
ENDROOT
BRANCH   2   4
HETATM    4  N   UNL     1     -11.214   7.677  71.515  1.00  0.00    -0.243 N  
HETATM    5  C   UNL     1     -10.801   8.365  70.308  1.00  0.00    -0.239 C  
HETATM    6  O   UNL     1     -10.396   7.472  73.681  1.00  0.00    -0.344 OA 
HETATM    7  C   UNL     1      -9.533   9.071  70.840  1.00  0.00    -0.267 C  
HETATM    8  N   UNL     1      -9.522   8.957  72.196  1.00  0.00    -0.351 NA 
HETATM    9  O   UNL     1      -8.702   9.698  70.201  1.00  0.00    -0.211 OA 
HETATM   10  C   UNL     1     -10.404   8.011  72.586  1.00  0.00    -0.329 C  
BRANCH   5  11
HETATM   11  N   UNL     1     -11.776   9.350  69.911  1.00  0.00    -0.445 N  
HETATM   12  H   UNL     1     -12.326   9.201  69.065  1.00  0.00     0.000 HD 
BRANCH  11  13
HETATM   13  C   UNL     1     -11.974  10.480  70.650  1.00  0.00    -0.357 C  
HETATM   14  O   UNL     1     -12.501  10.485  71.754  1.00  0.00    -0.373 OA 
BRANCH  13  15
HETATM   15  N   UNL     1     -11.444  11.594  70.054  1.00  0.00    -0.484 N  
HETATM   16  H   UNL     1     -11.021  12.325  70.625  1.00  0.00     0.000 HD 
BRANCH  15  17
HETATM   17  C   UNL     1     -11.484  11.729  68.628  1.00  0.00    -0.288 C  
BRANCH  17  18
HETATM   18  N   UNL     1     -11.448  13.106  68.212  1.00  0.00    -0.292 N  
HETATM   19  H   UNL     1     -12.314  13.637  68.112  1.00  0.00     0.000 HD 
BRANCH  18  20
HETATM   20  C   UNL     1     -10.241  13.700  67.952  1.00  0.00    -0.250 C  
HETATM   21  O   UNL     1      -9.793  13.866  66.825  1.00  0.00    -0.258 OA 
BRANCH  20  22
HETATM   22  N   UNL     1      -9.594  14.101  69.097  1.00  0.00    -0.409 N  
HETATM   23  H   UNL     1      -9.171  13.431  69.739  1.00  0.00     0.000 HD 
BRANCH  22  24
HETATM   24  C   UNL     1      -9.549  15.518  69.337  1.00  0.00    -0.279 C  
HETATM   25  N   UNL     1      -8.762  16.299  68.415  1.00  0.00    -0.197 N  
HETATM   26  O   UNL     1     -12.020  15.836  69.379  1.00  0.00    -0.370 OA 
HETATM   27  C   UNL     1      -9.349  17.525  68.172  1.00  0.00    -0.276 C  
HETATM   28  N   UNL     1     -10.617  17.496  68.653  1.00  0.00    -0.330 NA 
HETATM   29  O   UNL     1      -8.847  18.468  67.584  1.00  0.00    -0.267 OA 
HETATM   30  C   UNL     1     -10.897  16.253  69.141  1.00  0.00    -0.314 C  
BRANCH  25  31
HETATM   31  C   UNL     1      -7.421  15.974  68.044  1.00  0.00    -0.126 C  
HETATM   32  H   UNL     1      -5.885  15.177  68.907  1.00  0.00     0.000 HD 
HETATM   33  O   UNL     1      -6.777  15.394  69.153  1.00  0.00    -0.120 OA 
ENDBRANCH  25  31
ENDBRANCH  22  24
ENDBRANCH  20  22
ENDBRANCH  18  20
ENDBRANCH  17  18
ENDBRANCH  15  17
ENDBRANCH  13  15
ENDBRANCH  11  13
ENDBRANCH   5  11
ENDBRANCH   2   4
TORSDOF 10
ENDMDL
MODEL      281
REMARK 921   NORMALIZED FREE ENERGY PREDICTED BY IDOCK:   -4.27 KCAL/MOL
REMARK 922        TOTAL FREE ENERGY PREDICTED BY IDOCK:   -8.76 KCAL/MOL
REMARK 923 INTER-LIGAND FREE ENERGY PREDICTED BY IDOCK:   -7.46 KCAL/MOL
REMARK 924 INTRA-LIGAND FREE ENERGY PREDICTED BY IDOCK:   -1.29 KCAL/MOL
REMARK 927      BINDING AFFINITY PREDICTED BY RF-SCORE:    0.00 PKD
ROOT
HETATM    1  O   UNL     1      -9.322   8.866  67.262  1.00  0.00    -0.135 OA 
HETATM    2  C   UNL     1     -10.311   7.894  67.019  1.00  0.00    -0.341 C  
HETATM    3  H   UNL     1      -9.091   9.283  66.441  1.00  0.00     0.000 HD 
ENDROOT
BRANCH   2   4
HETATM    4  N   UNL     1     -10.659   7.265  68.258  1.00  0.00    -0.195 N  
HETATM    5  C   UNL     1     -10.346   7.903  69.520  1.00  0.00    -0.217 C  
HETATM    6  O   UNL     1     -10.572   5.099  67.417  1.00  0.00    -0.153 OA 
HETATM    7  C   UNL     1      -9.906   6.662  70.330  1.00  0.00    -0.174 C  
HETATM    8  N   UNL     1     -10.249   5.551  69.623  1.00  0.00    -0.240 NA 
HETATM    9  O   UNL     1      -9.406   6.635  71.444  1.00  0.00    -0.152 OA 
HETATM   10  C   UNL     1     -10.538   5.889  68.347  1.00  0.00    -0.250 C  
BRANCH   5  11
HETATM   11  N   UNL     1     -11.523   8.483  70.117  1.00  0.00    -0.462 N  
HETATM   12  H   UNL     1     -12.345   7.900  70.277  1.00  0.00     0.000 HD 
BRANCH  11  13
HETATM   13  C   UNL     1     -11.554   9.801  70.472  1.00  0.00    -0.292 C  
HETATM   14  O   UNL     1     -11.989  10.207  71.541  1.00  0.00    -0.374 OA 
BRANCH  13  15
HETATM   15  N   UNL     1     -10.969  10.607  69.531  1.00  0.00    -0.254 N  
HETATM   16  H   UNL     1     -10.070  10.349  69.125  1.00  0.00     0.000 HD 
BRANCH  15  17
HETATM   17  C   UNL     1     -11.622  11.814  69.119  1.00  0.00    -0.310 C  
BRANCH  17  18
HETATM   18  N   UNL     1     -10.684  12.832  68.723  1.00  0.00    -0.320 N  
HETATM   19  H   UNL     1      -9.731  12.824  69.089  1.00  0.00     0.000 HD 
BRANCH  18  20
HETATM   20  C   UNL     1     -11.081  13.811  67.851  1.00  0.00    -0.264 C  
HETATM   21  O   UNL     1     -12.247  14.019  67.545  1.00  0.00    -0.366 OA 
BRANCH  20  22
HETATM   22  N   UNL     1     -10.023  14.543  67.365  1.00  0.00    -0.227 N  
HETATM   23  H   UNL     1      -9.174  14.098  67.018  1.00  0.00     0.000 HD 
BRANCH  22  24
HETATM   24  C   UNL     1     -10.183  15.972  67.374  1.00  0.00    -0.273 C  
HETATM   25  N   UNL     1      -9.064  16.739  67.862  1.00  0.00    -0.221 N  
HETATM   26  O   UNL     1     -10.814  16.161  64.970  1.00  0.00    -0.516 OA 
HETATM   27  C   UNL     1      -8.919  17.916  67.155  1.00  0.00    -0.251 C  
HETATM   28  N   UNL     1      -9.696  17.847  66.045  1.00  0.00    -0.539 NA 
HETATM   29  O   UNL     1      -8.186  18.848  67.437  1.00  0.00    -0.266 OA 
HETATM   30  C   UNL     1     -10.291  16.622  65.974  1.00  0.00    -0.340 C  
BRANCH  25  31
HETATM   31  C   UNL     1      -8.391  16.464  69.092  1.00  0.00    -0.182 C  
HETATM   32  H   UNL     1      -7.348  15.009  69.822  1.00  0.00     0.000 HD 
HETATM   33  O   UNL     1      -7.796  15.192  69.004  1.00  0.00    -0.152 OA 
ENDBRANCH  25  31
ENDBRANCH  22  24
ENDBRANCH  20  22
ENDBRANCH  18  20
ENDBRANCH  17  18
ENDBRANCH  15  17
ENDBRANCH  13  15
ENDBRANCH  11  13
ENDBRANCH   5  11
ENDBRANCH   2   4
TORSDOF 10
ENDMDL
MODEL      282
REMARK 921   NORMALIZED FREE ENERGY PREDICTED BY IDOCK:   -4.27 KCAL/MOL
REMARK 922        TOTAL FREE ENERGY PREDICTED BY IDOCK:   -8.75 KCAL/MOL
REMARK 923 INTER-LIGAND FREE ENERGY PREDICTED BY IDOCK:   -7.29 KCAL/MOL
REMARK 924 INTRA-LIGAND FREE ENERGY PREDICTED BY IDOCK:   -1.46 KCAL/MOL
REMARK 927      BINDING AFFINITY PREDICTED BY RF-SCORE:    0.00 PKD
ROOT
HETATM    1  O   UNL     1     -10.825   7.892  67.638  1.00  0.00    -0.472 OA 
HETATM    2  C   UNL     1     -10.080   7.836  68.831  1.00  0.00    -0.195 C  
HETATM    3  H   UNL     1     -10.322   8.359  66.982  1.00  0.00     0.000 HD 
ENDROOT
BRANCH   2   4
HETATM    4  N   UNL     1     -10.838   7.131  69.821  1.00  0.00    -0.239 N  
HETATM    5  C   UNL     1     -11.339   7.823  70.992  1.00  0.00    -0.271 C  
HETATM    6  O   UNL     1      -9.860   5.066  69.396  1.00  0.00    -0.166 OA 
HETATM    7  C   UNL     1     -11.085   6.733  72.058  1.00  0.00    -0.250 C  
HETATM    8  N   UNL     1     -10.774   5.575  71.415  1.00  0.00    -0.243 NA 
HETATM    9  O   UNL     1     -11.205   6.830  73.270  1.00  0.00    -0.189 OA 
HETATM   10  C   UNL     1     -10.468   5.833  70.125  1.00  0.00    -0.278 C  
BRANCH   5  11
HETATM   11  N   UNL     1     -12.754   8.076  70.881  1.00  0.00    -0.509 N  
HETATM   12  H   UNL     1     -13.353   7.394  70.418  1.00  0.00     0.000 HD 
BRANCH  11  13
HETATM   13  C   UNL     1     -13.304   9.218  71.389  1.00  0.00    -0.325 C  
HETATM   14  O   UNL     1     -13.764   9.306  72.520  1.00  0.00    -0.467 OA 
BRANCH  13  15
HETATM   15  N   UNL     1     -13.209  10.273  70.521  1.00  0.00    -0.526 N  
HETATM   16  H   UNL     1     -13.378  10.132  69.525  1.00  0.00     0.000 HD 
BRANCH  15  17
HETATM   17  C   UNL     1     -12.871  11.576  71.013  1.00  0.00    -0.263 C  
BRANCH  17  18
HETATM   18  N   UNL     1     -11.726  12.131  70.340  1.00  0.00    -0.532 N  
HETATM   19  H   UNL     1     -11.056  12.705  70.852  1.00  0.00     0.000 HD 
BRANCH  18  20
HETATM   20  C   UNL     1     -11.543  11.882  69.005  1.00  0.00    -0.317 C  
HETATM   21  O   UNL     1     -12.434  11.509  68.253  1.00  0.00    -0.295 OA 
BRANCH  20  22
HETATM   22  N   UNL     1     -10.249  12.108  68.600  1.00  0.00    -0.325 N  
HETATM   23  H   UNL     1      -9.810  13.025  68.688  1.00  0.00     0.000 HD 
BRANCH  22  24
HETATM   24  C   UNL     1      -9.551  10.980  68.046  1.00  0.00    -0.170 C  
HETATM   25  N   UNL     1      -9.357  10.985  66.617  1.00  0.00    -0.174 N  
HETATM   26  O   UNL     1      -7.558  11.176  69.530  1.00  0.00    -0.069 OA 
HETATM   27  C   UNL     1      -8.132  10.446  66.278  1.00  0.00    -0.136 C  
HETATM   28  N   UNL     1      -7.382  10.343  67.403  1.00  0.00    -0.092 NA 
HETATM   29  O   UNL     1      -7.753  10.152  65.157  1.00  0.00    -0.133 OA 
HETATM   30  C   UNL     1      -8.063  10.870  68.461  1.00  0.00    -0.137 C  
BRANCH  25  31
HETATM   31  C   UNL     1     -10.403  11.233  65.677  1.00  0.00    -0.256 C  
HETATM   32  H   UNL     1     -11.329  12.785  64.989  1.00  0.00     0.000 HD 
HETATM   33  O   UNL     1     -10.633  12.620  65.615  1.00  0.00    -0.264 OA 
ENDBRANCH  25  31
ENDBRANCH  22  24
ENDBRANCH  20  22
ENDBRANCH  18  20
ENDBRANCH  17  18
ENDBRANCH  15  17
ENDBRANCH  13  15
ENDBRANCH  11  13
ENDBRANCH   5  11
ENDBRANCH   2   4
TORSDOF 10
ENDMDL
MODEL      283
REMARK 921   NORMALIZED FREE ENERGY PREDICTED BY IDOCK:   -4.26 KCAL/MOL
REMARK 922        TOTAL FREE ENERGY PREDICTED BY IDOCK:   -8.74 KCAL/MOL
REMARK 923 INTER-LIGAND FREE ENERGY PREDICTED BY IDOCK:   -8.53 KCAL/MOL
REMARK 924 INTRA-LIGAND FREE ENERGY PREDICTED BY IDOCK:   -0.20 KCAL/MOL
REMARK 927      BINDING AFFINITY PREDICTED BY RF-SCORE:    0.00 PKD
ROOT
HETATM    1  O   UNL     1      -8.197  19.232  67.743  1.00  0.00    -0.275 OA 
HETATM    2  C   UNL     1      -8.620  18.693  66.514  1.00  0.00    -0.297 C  
HETATM    3  H   UNL     1      -7.700  20.025  67.578  1.00  0.00     0.000 HD 
ENDROOT
BRANCH   2   4
HETATM    4  N   UNL     1      -9.368  17.497  66.763  1.00  0.00    -0.257 N  
HETATM    5  C   UNL     1      -8.755  16.376  67.446  1.00  0.00    -0.182 C  
HETATM    6  O   UNL     1     -10.792  17.766  64.946  1.00  0.00    -0.815 OA 
HETATM    7  C   UNL     1      -9.355  15.216  66.619  1.00  0.00    -0.267 C  
HETATM    8  N   UNL     1     -10.347  15.722  65.838  1.00  0.00    -0.332 NA 
HETATM    9  O   UNL     1      -9.072  14.029  66.681  1.00  0.00    -0.250 OA 
HETATM   10  C   UNL     1     -10.255  17.069  65.791  1.00  0.00    -0.245 C  
BRANCH   5  11
HETATM   11  N   UNL     1      -9.208  16.287  68.812  1.00  0.00    -0.230 N  
HETATM   12  H   UNL     1      -8.605  16.618  69.564  1.00  0.00     0.000 HD 
BRANCH  11  13
HETATM   13  C   UNL     1     -10.433  15.765  69.112  1.00  0.00    -0.240 C  
HETATM   14  O   UNL     1     -11.476  16.401  69.051  1.00  0.00    -0.300 OA 
BRANCH  13  15
HETATM   15  N   UNL     1     -10.372  14.429  69.409  1.00  0.00    -0.424 N  
HETATM   16  H   UNL     1      -9.490  14.012  69.706  1.00  0.00     0.000 HD 
BRANCH  15  17
HETATM   17  C   UNL     1     -11.548  13.618  69.303  1.00  0.00    -0.311 C  
BRANCH  17  18
HETATM   18  N   UNL     1     -11.267  12.222  69.512  1.00  0.00    -0.457 N  
HETATM   19  H   UNL     1     -10.430  11.799  69.109  1.00  0.00     0.000 HD 
BRANCH  18  20
HETATM   20  C   UNL     1     -12.132  11.465  70.257  1.00  0.00    -0.374 C  
HETATM   21  O   UNL     1     -12.687  11.865  71.272  1.00  0.00    -0.382 OA 
BRANCH  20  22
HETATM   22  N   UNL     1     -12.319  10.208  69.731  1.00  0.00    -0.502 N  
HETATM   23  H   UNL     1     -12.799  10.062  68.843  1.00  0.00     0.000 HD 
BRANCH  22  24
HETATM   24  C   UNL     1     -11.799   9.113  70.504  1.00  0.00    -0.095 C  
HETATM   25  N   UNL     1     -10.471   9.282  71.042  1.00  0.00    -0.289 N  
HETATM   26  O   UNL     1     -13.727   8.992  72.079  1.00  0.00    -0.407 OA 
HETATM   27  C   UNL     1     -10.363   8.708  72.293  1.00  0.00    -0.306 C  
HETATM   28  N   UNL     1     -11.610   8.418  72.741  1.00  0.00    -0.296 NA 
HETATM   29  O   UNL     1      -9.336   8.530  72.924  1.00  0.00    -0.242 OA 
HETATM   30  C   UNL     1     -12.537   8.854  71.841  1.00  0.00    -0.377 C  
BRANCH  25  31
HETATM   31  C   UNL     1      -9.352   9.712  70.266  1.00  0.00    -0.242 C  
HETATM   32  H   UNL     1      -8.217   8.945  68.901  1.00  0.00     0.000 HD 
HETATM   33  O   UNL     1      -8.962   8.659  69.418  1.00  0.00    -0.142 OA 
ENDBRANCH  25  31
ENDBRANCH  22  24
ENDBRANCH  20  22
ENDBRANCH  18  20
ENDBRANCH  17  18
ENDBRANCH  15  17
ENDBRANCH  13  15
ENDBRANCH  11  13
ENDBRANCH   5  11
ENDBRANCH   2   4
TORSDOF 10
ENDMDL
MODEL      284
REMARK 921   NORMALIZED FREE ENERGY PREDICTED BY IDOCK:   -4.25 KCAL/MOL
REMARK 922        TOTAL FREE ENERGY PREDICTED BY IDOCK:   -8.74 KCAL/MOL
REMARK 923 INTER-LIGAND FREE ENERGY PREDICTED BY IDOCK:   -6.82 KCAL/MOL
REMARK 924 INTRA-LIGAND FREE ENERGY PREDICTED BY IDOCK:   -1.92 KCAL/MOL
REMARK 927      BINDING AFFINITY PREDICTED BY RF-SCORE:    0.00 PKD
ROOT
HETATM    1  O   UNL     1     -11.489  11.149  63.054  1.00  0.00    -0.812 OA 
HETATM    2  C   UNL     1     -12.217  12.307  63.382  1.00  0.00    -0.527 C  
HETATM    3  H   UNL     1     -11.966  10.660  62.395  1.00  0.00     0.000 HD 
ENDROOT
BRANCH   2   4
HETATM    4  N   UNL     1     -11.498  13.044  64.377  1.00  0.00    -0.346 N  
HETATM    5  C   UNL     1     -10.946  12.370  65.535  1.00  0.00    -0.293 C  
HETATM    6  O   UNL     1     -12.606  15.050  63.987  1.00  0.00    -0.817 OA 
HETATM    7  C   UNL     1     -11.260  13.426  66.618  1.00  0.00    -0.309 C  
HETATM    8  N   UNL     1     -11.647  14.571  65.993  1.00  0.00    -0.360 NA 
HETATM    9  O   UNL     1     -11.125  13.321  67.828  1.00  0.00    -0.250 OA 
HETATM   10  C   UNL     1     -11.946  14.312  64.701  1.00  0.00    -0.455 C  
BRANCH   5  11
HETATM   11  N   UNL     1      -9.519  12.207  65.412  1.00  0.00    -0.432 N  
HETATM   12  H   UNL     1      -8.970  12.920  64.932  1.00  0.00     0.000 HD 
BRANCH  11  13
HETATM   13  C   UNL     1      -8.891  11.110  65.930  1.00  0.00    -0.186 C  
HETATM   14  O   UNL     1      -9.466  10.230  66.555  1.00  0.00    -0.162 OA 
BRANCH  13  15
HETATM   15  N   UNL     1      -7.562  11.067  65.601  1.00  0.00    -0.365 N  
HETATM   16  H   UNL     1      -7.078  11.919  65.318  1.00  0.00     0.000 HD 
BRANCH  15  17
HETATM   17  C   UNL     1      -6.852   9.823  65.655  1.00  0.00    -0.096 C  
BRANCH  17  18
HETATM   18  N   UNL     1      -6.835   9.265  66.982  1.00  0.00    -0.079 N  
HETATM   19  H   UNL     1      -6.732   9.872  67.795  1.00  0.00     0.000 HD 
BRANCH  18  20
HETATM   20  C   UNL     1      -6.958   7.910  67.143  1.00  0.00    -0.074 C  
HETATM   21  O   UNL     1      -6.156   7.221  67.760  1.00  0.00    -0.032 OA 
BRANCH  20  22
HETATM   22  N   UNL     1      -8.092   7.410  66.546  1.00  0.00    -0.113 N  
HETATM   23  H   UNL     1      -8.965   7.937  66.520  1.00  0.00     0.000 HD 
BRANCH  22  24
HETATM   24  C   UNL     1      -7.977   6.102  65.962  1.00  0.00    -0.110 C  
HETATM   25  N   UNL     1      -9.044   5.175  66.248  1.00  0.00    -0.131 N  
HETATM   26  O   UNL     1      -7.681   6.908  63.622  1.00  0.00    -0.102 OA 
HETATM   27  C   UNL     1      -9.318   4.377  65.156  1.00  0.00    -0.165 C  
HETATM   28  N   UNL     1      -8.696   4.904  64.072  1.00  0.00    -0.140 NA 
HETATM   29  O   UNL     1     -10.035   3.391  65.138  1.00  0.00    -0.097 OA 
HETATM   30  C   UNL     1      -8.078   6.070  64.417  1.00  0.00    -0.119 C  
BRANCH  25  31
HETATM   31  C   UNL     1      -9.536   4.917  67.564  1.00  0.00    -0.151 C  
HETATM   32  H   UNL     1      -8.770   4.681  69.323  1.00  0.00     0.000 HD 
HETATM   33  O   UNL     1      -8.443   4.853  68.448  1.00  0.00    -0.094 OA 
ENDBRANCH  25  31
ENDBRANCH  22  24
ENDBRANCH  20  22
ENDBRANCH  18  20
ENDBRANCH  17  18
ENDBRANCH  15  17
ENDBRANCH  13  15
ENDBRANCH  11  13
ENDBRANCH   5  11
ENDBRANCH   2   4
TORSDOF 10
ENDMDL
MODEL      285
REMARK 921   NORMALIZED FREE ENERGY PREDICTED BY IDOCK:   -4.25 KCAL/MOL
REMARK 922        TOTAL FREE ENERGY PREDICTED BY IDOCK:   -8.74 KCAL/MOL
REMARK 923 INTER-LIGAND FREE ENERGY PREDICTED BY IDOCK:   -7.29 KCAL/MOL
REMARK 924 INTRA-LIGAND FREE ENERGY PREDICTED BY IDOCK:   -1.45 KCAL/MOL
REMARK 927      BINDING AFFINITY PREDICTED BY RF-SCORE:    0.00 PKD
ROOT
HETATM    1  O   UNL     1      -9.849  15.898  65.004  1.00  0.00    -0.339 OA 
HETATM    2  C   UNL     1     -11.074  15.816  65.691  1.00  0.00    -0.155 C  
HETATM    3  H   UNL     1     -10.021  16.065  64.085  1.00  0.00     0.000 HD 
ENDROOT
BRANCH   2   4
HETATM    4  N   UNL     1     -10.815  15.564  67.077  1.00  0.00    -0.323 N  
HETATM    5  C   UNL     1     -11.814  14.921  67.906  1.00  0.00    -0.259 C  
HETATM    6  O   UNL     1      -9.324  17.330  67.330  1.00  0.00    -0.232 OA 
HETATM    7  C   UNL     1     -11.640  15.747  69.201  1.00  0.00    -0.392 C  
HETATM    8  N   UNL     1     -10.505  16.487  69.082  1.00  0.00    -0.296 NA 
HETATM    9  O   UNL     1     -12.333  15.716  70.207  1.00  0.00    -0.400 OA 
HETATM   10  C   UNL     1     -10.106  16.514  67.791  1.00  0.00    -0.264 C  
BRANCH   5  11
HETATM   11  N   UNL     1     -11.473  13.543  68.159  1.00  0.00    -0.283 N  
HETATM   12  H   UNL     1     -11.280  13.239  69.112  1.00  0.00     0.000 HD 
BRANCH  11  13
HETATM   13  C   UNL     1     -11.404  12.639  67.138  1.00  0.00    -0.319 C  
HETATM   14  O   UNL     1     -12.360  12.328  66.440  1.00  0.00    -0.531 OA 
BRANCH  13  15
HETATM   15  N   UNL     1     -10.130  12.181  66.931  1.00  0.00    -0.205 N  
HETATM   16  H   UNL     1      -9.884  11.737  66.047  1.00  0.00     0.000 HD 
BRANCH  15  17
HETATM   17  C   UNL     1      -9.143  12.325  67.960  1.00  0.00    -0.191 C  
BRANCH  17  18
HETATM   18  N   UNL     1      -8.389  11.116  68.163  1.00  0.00    -0.130 N  
HETATM   19  H   UNL     1      -7.629  10.870  67.528  1.00  0.00     0.000 HD 
BRANCH  18  20
HETATM   20  C   UNL     1      -8.700  10.298  69.217  1.00  0.00    -0.174 C  
HETATM   21  O   UNL     1      -7.989  10.156  70.203  1.00  0.00    -0.160 OA 
BRANCH  20  22
HETATM   22  N   UNL     1      -9.907   9.661  69.050  1.00  0.00    -0.175 N  
HETATM   23  H   UNL     1     -10.713  10.133  68.640  1.00  0.00     0.000 HD 
BRANCH  22  24
HETATM   24  C   UNL     1      -9.968   8.292  69.486  1.00  0.00    -0.187 C  
HETATM   25  N   UNL     1     -10.795   8.022  70.637  1.00  0.00    -0.230 N  
HETATM   26  O   UNL     1     -10.646   7.363  67.275  1.00  0.00    -0.278 OA 
HETATM   27  C   UNL     1     -11.436   6.806  70.516  1.00  0.00    -0.360 C  
HETATM   28  N   UNL     1     -11.311   6.380  69.234  1.00  0.00    -0.378 NA 
HETATM   29  O   UNL     1     -12.057   6.222  71.388  1.00  0.00    -0.259 OA 
HETATM   30  C   UNL     1     -10.663   7.326  68.496  1.00  0.00    -0.126 C  
BRANCH  25  31
HETATM   31  C   UNL     1     -10.723   8.764  71.855  1.00  0.00    -0.359 C  
HETATM   32  H   UNL     1     -11.365  10.473  72.493  1.00  0.00     0.000 HD 
HETATM   33  O   UNL     1     -11.413   9.979  71.683  1.00  0.00    -0.282 OA 
ENDBRANCH  25  31
ENDBRANCH  22  24
ENDBRANCH  20  22
ENDBRANCH  18  20
ENDBRANCH  17  18
ENDBRANCH  15  17
ENDBRANCH  13  15
ENDBRANCH  11  13
ENDBRANCH   5  11
ENDBRANCH   2   4
TORSDOF 10
ENDMDL
MODEL      286
REMARK 921   NORMALIZED FREE ENERGY PREDICTED BY IDOCK:   -4.24 KCAL/MOL
REMARK 922        TOTAL FREE ENERGY PREDICTED BY IDOCK:   -8.72 KCAL/MOL
REMARK 923 INTER-LIGAND FREE ENERGY PREDICTED BY IDOCK:   -7.32 KCAL/MOL
REMARK 924 INTRA-LIGAND FREE ENERGY PREDICTED BY IDOCK:   -1.40 KCAL/MOL
REMARK 927      BINDING AFFINITY PREDICTED BY RF-SCORE:    0.00 PKD
ROOT
HETATM    1  O   UNL     1     -12.533  11.334  71.265  1.00  0.00    -0.368 OA 
HETATM    2  C   UNL     1     -13.106  12.546  71.691  1.00  0.00    -0.315 C  
HETATM    3  H   UNL     1     -12.734  10.657  71.901  1.00  0.00     0.000 HD 
ENDROOT
BRANCH   2   4
HETATM    4  N   UNL     1     -12.802  13.567  70.733  1.00  0.00    -0.222 N  
HETATM    5  C   UNL     1     -11.473  13.669  70.166  1.00  0.00    -0.041 C  
HETATM    6  O   UNL     1     -14.401  15.063  71.514  1.00  0.00    -0.477 OA 
HETATM    7  C   UNL     1     -11.321  15.207  70.151  1.00  0.00    -0.271 C  
HETATM    8  N   UNL     1     -12.539  15.756  70.408  1.00  0.00    -0.352 NA 
HETATM    9  O   UNL     1     -10.321  15.857  69.884  1.00  0.00    -0.288 OA 
HETATM   10  C   UNL     1     -13.370  14.816  70.909  1.00  0.00    -0.322 C  
BRANCH   5  11
HETATM   11  N   UNL     1     -11.442  13.162  68.816  1.00  0.00    -0.285 N  
HETATM   12  H   UNL     1     -12.138  12.479  68.520  1.00  0.00     0.000 HD 
BRANCH  11  13
HETATM   13  C   UNL     1     -10.493  13.585  67.930  1.00  0.00    -0.250 C  
HETATM   14  O   UNL     1      -9.327  13.216  67.956  1.00  0.00    -0.205 OA 
BRANCH  13  15
HETATM   15  N   UNL     1     -11.012  14.404  66.962  1.00  0.00    -0.298 N  
HETATM   16  H   UNL     1     -10.728  15.382  66.915  1.00  0.00     0.000 HD 
BRANCH  15  17
HETATM   17  C   UNL     1     -11.954  13.884  66.016  1.00  0.00    -0.412 C  
BRANCH  17  18
HETATM   18  N   UNL     1     -11.625  12.547  65.598  1.00  0.00    -0.370 N  
HETATM   19  H   UNL     1     -12.024  11.743  66.084  1.00  0.00     0.000 HD 
BRANCH  18  20
HETATM   20  C   UNL     1     -10.771  12.362  64.543  1.00  0.00    -0.321 C  
HETATM   21  O   UNL     1     -10.968  12.807  63.421  1.00  0.00    -0.380 OA 
BRANCH  20  22
HETATM   22  N   UNL     1      -9.658  11.630  64.888  1.00  0.00    -0.370 N  
HETATM   23  H   UNL     1      -8.787  12.077  65.174  1.00  0.00     0.000 HD 
BRANCH  22  24
HETATM   24  C   UNL     1      -9.794  10.201  64.824  1.00  0.00    -0.312 C  
HETATM   25  N   UNL     1      -8.675   9.474  64.277  1.00  0.00    -0.197 N  
HETATM   26  O   UNL     1     -10.360   9.902  67.233  1.00  0.00    -0.214 OA 
HETATM   27  C   UNL     1      -8.492   8.272  64.931  1.00  0.00    -0.096 C  
HETATM   28  N   UNL     1      -9.241   8.281  66.062  1.00  0.00    -0.188 NA 
HETATM   29  O   UNL     1      -7.751   7.366  64.592  1.00  0.00    -0.104 OA 
HETATM   30  C   UNL     1      -9.855   9.492  66.199  1.00  0.00    -0.272 C  
BRANCH  25  31
HETATM   31  C   UNL     1      -8.039   9.812  63.043  1.00  0.00    -0.146 C  
HETATM   32  H   UNL     1      -8.412  10.983  61.551  1.00  0.00     0.000 HD 
HETATM   33  O   UNL     1      -8.835  10.758  62.372  1.00  0.00    -0.243 OA 
ENDBRANCH  25  31
ENDBRANCH  22  24
ENDBRANCH  20  22
ENDBRANCH  18  20
ENDBRANCH  17  18
ENDBRANCH  15  17
ENDBRANCH  13  15
ENDBRANCH  11  13
ENDBRANCH   5  11
ENDBRANCH   2   4
TORSDOF 10
ENDMDL
MODEL      287
REMARK 921   NORMALIZED FREE ENERGY PREDICTED BY IDOCK:   -4.23 KCAL/MOL
REMARK 922        TOTAL FREE ENERGY PREDICTED BY IDOCK:   -8.70 KCAL/MOL
REMARK 923 INTER-LIGAND FREE ENERGY PREDICTED BY IDOCK:   -7.59 KCAL/MOL
REMARK 924 INTRA-LIGAND FREE ENERGY PREDICTED BY IDOCK:   -1.11 KCAL/MOL
REMARK 927      BINDING AFFINITY PREDICTED BY RF-SCORE:    0.00 PKD
ROOT
HETATM    1  O   UNL     1      -7.520   6.873  70.176  1.00  0.00    -0.085 OA 
HETATM    2  C   UNL     1      -8.220   7.078  68.973  1.00  0.00    -0.125 C  
HETATM    3  H   UNL     1      -6.790   6.288  70.013  1.00  0.00     0.000 HD 
ENDROOT
BRANCH   2   4
HETATM    4  N   UNL     1      -9.321   7.961  69.219  1.00  0.00    -0.149 N  
HETATM    5  C   UNL     1      -9.225   8.990  70.234  1.00  0.00    -0.202 C  
HETATM    6  O   UNL     1     -10.949   6.455  68.521  1.00  0.00    -0.290 OA 
HETATM    7  C   UNL     1     -10.648   8.896  70.828  1.00  0.00    -0.226 C  
HETATM    8  N   UNL     1     -11.402   8.122  70.001  1.00  0.00    -0.084 NA 
HETATM    9  O   UNL     1     -11.084   9.461  71.819  1.00  0.00    -0.370 OA 
HETATM   10  C   UNL     1     -10.602   7.440  69.152  1.00  0.00    -0.204 C  
BRANCH   5  11
HETATM   11  N   UNL     1      -9.029  10.290  69.640  1.00  0.00    -0.365 N  
HETATM   12  H   UNL     1      -8.197  10.830  69.875  1.00  0.00     0.000 HD 
BRANCH  11  13
HETATM   13  C   UNL     1      -9.944  10.808  68.769  1.00  0.00    -0.193 C  
HETATM   14  O   UNL     1     -10.034  10.468  67.597  1.00  0.00    -0.166 OA 
BRANCH  13  15
HETATM   15  N   UNL     1     -10.800  11.689  69.375  1.00  0.00    -0.430 N  
HETATM   16  H   UNL     1     -10.653  11.956  70.348  1.00  0.00     0.000 HD 
BRANCH  15  17
HETATM   17  C   UNL     1     -11.902  12.235  68.640  1.00  0.00    -0.305 C  
BRANCH  17  18
HETATM   18  N   UNL     1     -11.688  13.613  68.284  1.00  0.00    -0.343 N  
HETATM   19  H   UNL     1     -11.820  14.351  68.976  1.00  0.00     0.000 HD 
BRANCH  18  20
HETATM   20  C   UNL     1     -11.305  13.927  67.006  1.00  0.00    -0.326 C  
HETATM   21  O   UNL     1     -11.763  13.390  66.006  1.00  0.00    -0.333 OA 
BRANCH  20  22
HETATM   22  N   UNL     1     -10.358  14.923  66.970  1.00  0.00    -0.261 N  
HETATM   23  H   UNL     1      -9.360  14.719  67.020  1.00  0.00     0.000 HD 
BRANCH  22  24
HETATM   24  C   UNL     1     -10.855  16.267  66.856  1.00  0.00    -0.151 C  
HETATM   25  N   UNL     1     -10.050  17.301  67.459  1.00  0.00    -0.304 N  
HETATM   26  O   UNL     1     -11.098  16.227  64.376  1.00  0.00    -0.735 OA 
HETATM   27  C   UNL     1     -10.075  18.457  66.704  1.00  0.00    -0.380 C  
HETATM   28  N   UNL     1     -10.614  18.167  65.494  1.00  0.00    -0.590 NA 
HETATM   29  O   UNL     1      -9.645  19.549  67.033  1.00  0.00    -0.310 OA 
HETATM   30  C   UNL     1     -10.877  16.831  65.414  1.00  0.00    -0.141 C  
BRANCH  25  31
HETATM   31  C   UNL     1      -9.548  17.236  68.795  1.00  0.00    -0.269 C  
HETATM   32  H   UNL     1      -9.902  16.175  70.372  1.00  0.00     0.000 HD 
HETATM   33  O   UNL     1     -10.235  16.219  69.483  1.00  0.00    -0.257 OA 
ENDBRANCH  25  31
ENDBRANCH  22  24
ENDBRANCH  20  22
ENDBRANCH  18  20
ENDBRANCH  17  18
ENDBRANCH  15  17
ENDBRANCH  13  15
ENDBRANCH  11  13
ENDBRANCH   5  11
ENDBRANCH   2   4
TORSDOF 10
ENDMDL
MODEL      288
REMARK 921   NORMALIZED FREE ENERGY PREDICTED BY IDOCK:   -4.23 KCAL/MOL
REMARK 922        TOTAL FREE ENERGY PREDICTED BY IDOCK:   -8.70 KCAL/MOL
REMARK 923 INTER-LIGAND FREE ENERGY PREDICTED BY IDOCK:   -7.16 KCAL/MOL
REMARK 924 INTRA-LIGAND FREE ENERGY PREDICTED BY IDOCK:   -1.54 KCAL/MOL
REMARK 927      BINDING AFFINITY PREDICTED BY RF-SCORE:    0.00 PKD
ROOT
HETATM    1  O   UNL     1      -7.940   8.628  69.307  1.00  0.00    -0.099 OA 
HETATM    2  C   UNL     1      -8.281   9.993  69.339  1.00  0.00    -0.155 C  
HETATM    3  H   UNL     1      -6.995   8.545  69.343  1.00  0.00     0.000 HD 
ENDROOT
BRANCH   2   4
HETATM    4  N   UNL     1      -9.707  10.118  69.284  1.00  0.00    -0.213 N  
HETATM    5  C   UNL     1     -10.324  11.121  68.440  1.00  0.00    -0.186 C  
HETATM    6  O   UNL     1     -10.067   9.291  71.426  1.00  0.00    -0.314 OA 
HETATM    7  C   UNL     1     -11.464  11.577  69.379  1.00  0.00    -0.309 C  
HETATM    8  N   UNL     1     -11.541  10.694  70.411  1.00  0.00    -0.330 NA 
HETATM    9  O   UNL     1     -12.233  12.513  69.222  1.00  0.00    -0.195 OA 
HETATM   10  C   UNL     1     -10.423   9.937  70.454  1.00  0.00    -0.285 C  
BRANCH   5  11
HETATM   11  N   UNL     1     -10.880  10.529  67.249  1.00  0.00    -0.286 N  
HETATM   12  H   UNL     1     -11.507   9.729  67.331  1.00  0.00     0.000 HD 
BRANCH  11  13
HETATM   13  C   UNL     1     -10.581  11.025  66.013  1.00  0.00    -0.213 C  
HETATM   14  O   UNL     1     -10.357  10.324  65.036  1.00  0.00    -0.288 OA 
BRANCH  13  15
HETATM   15  N   UNL     1     -10.638  12.393  65.972  1.00  0.00    -0.250 N  
HETATM   16  H   UNL     1     -10.664  12.929  66.839  1.00  0.00     0.000 HD 
BRANCH  15  17
HETATM   17  C   UNL     1     -10.662  13.071  64.710  1.00  0.00    -0.352 C  
BRANCH  17  18
HETATM   18  N   UNL     1      -9.915  14.300  64.738  1.00  0.00    -0.557 N  
HETATM   19  H   UNL     1      -9.408  14.615  63.910  1.00  0.00     0.000 HD 
BRANCH  18  20
HETATM   20  C   UNL     1      -9.889  15.046  65.887  1.00  0.00    -0.338 C  
HETATM   21  O   UNL     1     -10.893  15.442  66.465  1.00  0.00    -0.309 OA 
BRANCH  20  22
HETATM   22  N   UNL     1      -8.610  15.291  66.328  1.00  0.00    -0.438 N  
HETATM   23  H   UNL     1      -7.821  14.713  66.039  1.00  0.00     0.000 HD 
BRANCH  22  24
HETATM   24  C   UNL     1      -8.448  16.408  67.218  1.00  0.00    -0.175 C  
HETATM   25  N   UNL     1      -7.603  16.195  68.367  1.00  0.00    -0.152 N  
HETATM   26  O   UNL     1      -7.706  18.013  65.462  1.00  0.00    -0.510 OA 
HETATM   27  C   UNL     1      -6.874  17.328  68.668  1.00  0.00    -0.207 C  
HETATM   28  N   UNL     1      -6.969  18.189  67.624  1.00  0.00    -0.200 NA 
HETATM   29  O   UNL     1      -6.212  17.521  69.673  1.00  0.00    -0.249 OA 
HETATM   30  C   UNL     1      -7.686  17.613  66.616  1.00  0.00    -0.249 C  
BRANCH  25  31
HETATM   31  C   UNL     1      -7.728  15.076  69.246  1.00  0.00    -0.194 C  
HETATM   32  H   UNL     1      -6.677  13.512  69.678  1.00  0.00     0.000 HD 
HETATM   33  O   UNL     1      -6.594  14.257  69.094  1.00  0.00    -0.101 OA 
ENDBRANCH  25  31
ENDBRANCH  22  24
ENDBRANCH  20  22
ENDBRANCH  18  20
ENDBRANCH  17  18
ENDBRANCH  15  17
ENDBRANCH  13  15
ENDBRANCH  11  13
ENDBRANCH   5  11
ENDBRANCH   2   4
TORSDOF 10
ENDMDL
MODEL      289
REMARK 921   NORMALIZED FREE ENERGY PREDICTED BY IDOCK:   -4.22 KCAL/MOL
REMARK 922        TOTAL FREE ENERGY PREDICTED BY IDOCK:   -8.68 KCAL/MOL
REMARK 923 INTER-LIGAND FREE ENERGY PREDICTED BY IDOCK:   -7.33 KCAL/MOL
REMARK 924 INTRA-LIGAND FREE ENERGY PREDICTED BY IDOCK:   -1.35 KCAL/MOL
REMARK 927      BINDING AFFINITY PREDICTED BY RF-SCORE:    0.00 PKD
ROOT
HETATM    1  O   UNL     1     -11.109  11.156  63.151  1.00  0.00    -0.811 OA 
HETATM    2  C   UNL     1     -11.697  12.355  63.594  1.00  0.00    -0.514 C  
HETATM    3  H   UNL     1     -11.385  10.989  62.257  1.00  0.00     0.000 HD 
ENDROOT
BRANCH   2   4
HETATM    4  N   UNL     1     -11.281  12.607  64.942  1.00  0.00    -0.288 N  
HETATM    5  C   UNL     1     -11.397  11.573  65.951  1.00  0.00    -0.108 C  
HETATM    6  O   UNL     1     -11.664  14.898  64.849  1.00  0.00    -0.382 OA 
HETATM    7  C   UNL     1     -11.866  12.436  67.145  1.00  0.00    -0.291 C  
HETATM    8  N   UNL     1     -11.707  13.745  66.809  1.00  0.00    -0.369 NA 
HETATM    9  O   UNL     1     -12.247  12.053  68.241  1.00  0.00    -0.398 OA 
HETATM   10  C   UNL     1     -11.523  13.860  65.476  1.00  0.00    -0.316 C  
BRANCH   5  11
HETATM   11  N   UNL     1     -10.114  10.988  66.247  1.00  0.00    -0.227 N  
HETATM   12  H   UNL     1      -9.265  11.527  66.082  1.00  0.00     0.000 HD 
BRANCH  11  13
HETATM   13  C   UNL     1     -10.020   9.720  66.745  1.00  0.00    -0.218 C  
HETATM   14  O   UNL     1     -10.748   9.280  67.625  1.00  0.00    -0.269 OA 
BRANCH  13  15
HETATM   15  N   UNL     1      -9.073   8.973  66.095  1.00  0.00    -0.183 N  
HETATM   16  H   UNL     1      -8.571   9.366  65.299  1.00  0.00     0.000 HD 
BRANCH  15  17
HETATM   17  C   UNL     1      -8.791   7.638  66.532  1.00  0.00    -0.147 C  
BRANCH  17  18
HETATM   18  N   UNL     1      -7.919   7.615  67.677  1.00  0.00    -0.119 N  
HETATM   19  H   UNL     1      -7.126   8.255  67.734  1.00  0.00     0.000 HD 
BRANCH  18  20
HETATM   20  C   UNL     1      -8.161   6.725  68.690  1.00  0.00    -0.120 C  
HETATM   21  O   UNL     1      -7.859   5.540  68.644  1.00  0.00    -0.089 OA 
BRANCH  20  22
HETATM   22  N   UNL     1      -8.772   7.314  69.773  1.00  0.00    -0.141 N  
HETATM   23  H   UNL     1      -8.829   8.327  69.874  1.00  0.00     0.000 HD 
BRANCH  22  24
HETATM   24  C   UNL     1      -9.324   6.420  70.754  1.00  0.00    -0.158 C  
HETATM   25  N   UNL     1      -9.246   6.849  72.128  1.00  0.00    -0.136 N  
HETATM   26  O   UNL     1     -11.565   6.235  69.678  1.00  0.00    -0.430 OA 
HETATM   27  C   UNL     1     -10.371   6.471  72.834  1.00  0.00    -0.210 C  
HETATM   28  N   UNL     1     -11.317   6.067  71.949  1.00  0.00    -0.284 NA 
HETATM   29  O   UNL     1     -10.526   6.530  74.042  1.00  0.00    -0.331 OA 
HETATM   30  C   UNL     1     -10.860   6.240  70.676  1.00  0.00    -0.280 C  
BRANCH  25  31
HETATM   31  C   UNL     1      -8.048   7.328  72.741  1.00  0.00    -0.106 C  
HETATM   32  H   UNL     1      -7.394   9.025  73.397  1.00  0.00     0.000 HD 
HETATM   33  O   UNL     1      -8.191   8.706  72.989  1.00  0.00    -0.402 OA 
ENDBRANCH  25  31
ENDBRANCH  22  24
ENDBRANCH  20  22
ENDBRANCH  18  20
ENDBRANCH  17  18
ENDBRANCH  15  17
ENDBRANCH  13  15
ENDBRANCH  11  13
ENDBRANCH   5  11
ENDBRANCH   2   4
TORSDOF 10
ENDMDL
MODEL      290
REMARK 921   NORMALIZED FREE ENERGY PREDICTED BY IDOCK:   -4.22 KCAL/MOL
REMARK 922        TOTAL FREE ENERGY PREDICTED BY IDOCK:   -8.68 KCAL/MOL
REMARK 923 INTER-LIGAND FREE ENERGY PREDICTED BY IDOCK:   -7.08 KCAL/MOL
REMARK 924 INTRA-LIGAND FREE ENERGY PREDICTED BY IDOCK:   -1.60 KCAL/MOL
REMARK 927      BINDING AFFINITY PREDICTED BY RF-SCORE:    0.00 PKD
ROOT
HETATM    1  O   UNL     1     -11.602   4.269  73.376  1.00  0.00    -0.257 OA 
HETATM    2  C   UNL     1     -11.019   5.548  73.306  1.00  0.00    -0.292 C  
HETATM    3  H   UNL     1     -12.109   4.204  74.176  1.00  0.00     0.000 HD 
ENDROOT
BRANCH   2   4
HETATM    4  N   UNL     1     -10.253   5.645  72.099  1.00  0.00    -0.196 N  
HETATM    5  C   UNL     1     -10.764   6.384  70.962  1.00  0.00    -0.251 C  
HETATM    6  O   UNL     1      -9.124   3.637  72.412  1.00  0.00    -0.101 OA 
HETATM    7  C   UNL     1     -10.310   5.443  69.823  1.00  0.00    -0.305 C  
HETATM    8  N   UNL     1      -9.445   4.532  70.345  1.00  0.00    -0.163 NA 
HETATM    9  O   UNL     1     -10.592   5.515  68.636  1.00  0.00    -0.196 OA 
HETATM   10  C   UNL     1      -9.531   4.536  71.694  1.00  0.00    -0.151 C  
BRANCH   5  11
HETATM   11  N   UNL     1     -10.106   7.660  70.832  1.00  0.00    -0.191 N  
HETATM   12  H   UNL     1      -9.088   7.707  70.863  1.00  0.00     0.000 HD 
BRANCH  11  13
HETATM   13  C   UNL     1     -10.827   8.807  70.667  1.00  0.00    -0.232 C  
HETATM   14  O   UNL     1     -11.066   9.595  71.572  1.00  0.00    -0.370 OA 
BRANCH  13  15
HETATM   15  N   UNL     1     -11.183   9.017  69.361  1.00  0.00    -0.439 N  
HETATM   16  H   UNL     1     -12.168   9.082  69.104  1.00  0.00     0.000 HD 
BRANCH  15  17
HETATM   17  C   UNL     1     -10.170   9.144  68.355  1.00  0.00    -0.200 C  
BRANCH  17  18
HETATM   18  N   UNL     1     -10.684   9.708  67.135  1.00  0.00    -0.228 N  
HETATM   19  H   UNL     1     -10.736   9.141  66.288  1.00  0.00     0.000 HD 
BRANCH  18  20
HETATM   20  C   UNL     1     -11.103  11.012  67.120  1.00  0.00    -0.267 C  
HETATM   21  O   UNL     1     -12.075  11.422  67.739  1.00  0.00    -0.637 OA 
BRANCH  20  22
HETATM   22  N   UNL     1     -10.303  11.813  66.340  1.00  0.00    -0.216 N  
HETATM   23  H   UNL     1      -9.728  11.432  65.588  1.00  0.00     0.000 HD 
BRANCH  22  24
HETATM   24  C   UNL     1     -10.322  13.218  66.645  1.00  0.00    -0.274 C  
HETATM   25  N   UNL     1      -9.058  13.814  67.002  1.00  0.00    -0.238 N  
HETATM   26  O   UNL     1     -11.419  13.913  64.517  1.00  0.00    -0.366 OA 
HETATM   27  C   UNL     1      -8.954  15.098  66.507  1.00  0.00    -0.291 C  
HETATM   28  N   UNL     1      -9.948  15.292  65.604  1.00  0.00    -0.351 NA 
HETATM   29  O   UNL     1      -8.094  15.916  66.784  1.00  0.00    -0.224 OA 
HETATM   30  C   UNL     1     -10.657  14.138  65.446  1.00  0.00    -0.346 C  
BRANCH  25  31
HETATM   31  C   UNL     1      -8.172  13.266  67.980  1.00  0.00    -0.162 C  
HETATM   32  H   UNL     1      -7.183  11.620  68.206  1.00  0.00     0.000 HD 
HETATM   33  O   UNL     1      -7.772  11.985  67.556  1.00  0.00    -0.135 OA 
ENDBRANCH  25  31
ENDBRANCH  22  24
ENDBRANCH  20  22
ENDBRANCH  18  20
ENDBRANCH  17  18
ENDBRANCH  15  17
ENDBRANCH  13  15
ENDBRANCH  11  13
ENDBRANCH   5  11
ENDBRANCH   2   4
TORSDOF 10
ENDMDL
MODEL      291
REMARK 921   NORMALIZED FREE ENERGY PREDICTED BY IDOCK:   -4.20 KCAL/MOL
REMARK 922        TOTAL FREE ENERGY PREDICTED BY IDOCK:   -8.65 KCAL/MOL
REMARK 923 INTER-LIGAND FREE ENERGY PREDICTED BY IDOCK:   -7.14 KCAL/MOL
REMARK 924 INTRA-LIGAND FREE ENERGY PREDICTED BY IDOCK:   -1.51 KCAL/MOL
REMARK 927      BINDING AFFINITY PREDICTED BY RF-SCORE:    0.00 PKD
ROOT
HETATM    1  O   UNL     1      -9.787  13.015  68.087  1.00  0.00    -0.218 OA 
HETATM    2  C   UNL     1      -9.718  13.551  66.787  1.00  0.00    -0.271 C  
HETATM    3  H   UNL     1      -8.994  13.241  68.557  1.00  0.00     0.000 HD 
ENDROOT
BRANCH   2   4
HETATM    4  N   UNL     1     -10.914  13.209  66.078  1.00  0.00    -0.277 N  
HETATM    5  C   UNL     1     -10.886  13.011  64.643  1.00  0.00    -0.354 C  
HETATM    6  O   UNL     1     -12.349  14.236  67.592  1.00  0.00    -0.265 OA 
HETATM    7  C   UNL     1     -12.221  13.694  64.266  1.00  0.00    -0.396 C  
HETATM    8  N   UNL     1     -12.918  13.923  65.412  1.00  0.00    -0.748 NA 
HETATM    9  O   UNL     1     -12.648  13.935  63.147  1.00  0.00    -0.775 OA 
HETATM   10  C   UNL     1     -12.101  13.795  66.481  1.00  0.00    -0.443 C  
BRANCH   5  11
HETATM   11  N   UNL     1     -10.944  11.610  64.309  1.00  0.00    -0.343 N  
HETATM   12  H   UNL     1     -11.835  11.116  64.365  1.00  0.00     0.000 HD 
BRANCH  11  13
HETATM   13  C   UNL     1      -9.824  10.934  63.919  1.00  0.00    -0.331 C  
HETATM   14  O   UNL     1      -9.364  10.979  62.786  1.00  0.00    -0.306 OA 
BRANCH  13  15
HETATM   15  N   UNL     1      -9.229  10.268  64.957  1.00  0.00    -0.193 N  
HETATM   16  H   UNL     1      -8.227  10.077  64.934  1.00  0.00     0.000 HD 
BRANCH  15  17
HETATM   17  C   UNL     1     -10.015   9.838  66.075  1.00  0.00    -0.272 C  
BRANCH  17  18
HETATM   18  N   UNL     1      -9.203   9.526  67.222  1.00  0.00    -0.133 N  
HETATM   19  H   UNL     1      -9.240  10.115  68.054  1.00  0.00     0.000 HD 
BRANCH  18  20
HETATM   20  C   UNL     1      -8.381   8.430  67.188  1.00  0.00    -0.122 C  
HETATM   21  O   UNL     1      -7.881   7.986  66.163  1.00  0.00    -0.088 OA 
BRANCH  20  22
HETATM   22  N   UNL     1      -8.171   7.891  68.435  1.00  0.00    -0.123 N  
HETATM   23  H   UNL     1      -7.232   7.726  68.799  1.00  0.00     0.000 HD 
BRANCH  22  24
HETATM   24  C   UNL     1      -9.348   7.571  69.195  1.00  0.00    -0.147 C  
HETATM   25  N   UNL     1      -9.494   6.196  69.605  1.00  0.00    -0.144 N  
HETATM   26  O   UNL     1      -8.989   9.313  70.941  1.00  0.00    -0.235 OA 
HETATM   27  C   UNL     1     -10.061   6.106  70.860  1.00  0.00    -0.192 C  
HETATM   28  N   UNL     1     -10.041   7.338  71.429  1.00  0.00    -0.188 NA 
HETATM   29  O   UNL     1     -10.471   5.094  71.402  1.00  0.00    -0.218 OA 
HETATM   30  C   UNL     1      -9.408   8.218  70.601  1.00  0.00    -0.156 C  
BRANCH  25  31
HETATM   31  C   UNL     1      -9.352   5.086  68.717  1.00  0.00    -0.130 C  
HETATM   32  H   UNL     1      -8.146   3.586  68.534  1.00  0.00     0.000 HD 
HETATM   33  O   UNL     1      -8.241   4.324  69.125  1.00  0.00    -0.070 OA 
ENDBRANCH  25  31
ENDBRANCH  22  24
ENDBRANCH  20  22
ENDBRANCH  18  20
ENDBRANCH  17  18
ENDBRANCH  15  17
ENDBRANCH  13  15
ENDBRANCH  11  13
ENDBRANCH   5  11
ENDBRANCH   2   4
TORSDOF 10
ENDMDL
MODEL      292
REMARK 921   NORMALIZED FREE ENERGY PREDICTED BY IDOCK:   -4.20 KCAL/MOL
REMARK 922        TOTAL FREE ENERGY PREDICTED BY IDOCK:   -8.65 KCAL/MOL
REMARK 923 INTER-LIGAND FREE ENERGY PREDICTED BY IDOCK:   -7.49 KCAL/MOL
REMARK 924 INTRA-LIGAND FREE ENERGY PREDICTED BY IDOCK:   -1.16 KCAL/MOL
REMARK 927      BINDING AFFINITY PREDICTED BY RF-SCORE:    0.00 PKD
ROOT
HETATM    1  O   UNL     1     -10.802   5.324  71.008  1.00  0.00    -0.178 OA 
HETATM    2  C   UNL     1     -11.713   6.132  71.715  1.00  0.00    -0.253 C  
HETATM    3  H   UNL     1     -11.122   4.430  71.004  1.00  0.00     0.000 HD 
ENDROOT
BRANCH   2   4
HETATM    4  N   UNL     1     -11.230   7.481  71.722  1.00  0.00    -0.241 N  
HETATM    5  C   UNL     1     -10.808   8.116  70.491  1.00  0.00    -0.240 C  
HETATM    6  O   UNL     1     -10.455   7.408  73.913  1.00  0.00    -0.314 OA 
HETATM    7  C   UNL     1      -9.568   8.879  71.011  1.00  0.00    -0.255 C  
HETATM    8  N   UNL     1      -9.584   8.835  72.371  1.00  0.00    -0.281 NA 
HETATM    9  O   UNL     1      -8.738   9.493  70.357  1.00  0.00    -0.217 OA 
HETATM   10  C   UNL     1     -10.452   7.889  72.791  1.00  0.00    -0.346 C  
BRANCH   5  11
HETATM   11  N   UNL     1     -11.797   9.055  70.022  1.00  0.00    -0.408 N  
HETATM   12  H   UNL     1     -12.365   8.822  69.208  1.00  0.00     0.000 HD 
BRANCH  11  13
HETATM   13  C   UNL     1     -11.983  10.251  70.653  1.00  0.00    -0.342 C  
HETATM   14  O   UNL     1     -12.585  10.374  71.711  1.00  0.00    -0.408 OA 
BRANCH  13  15
HETATM   15  N   UNL     1     -11.351  11.283  70.012  1.00  0.00    -0.447 N  
HETATM   16  H   UNL     1     -10.779  11.939  70.542  1.00  0.00     0.000 HD 
BRANCH  15  17
HETATM   17  C   UNL     1     -11.497  11.440  68.595  1.00  0.00    -0.296 C  
BRANCH  17  18
HETATM   18  N   UNL     1     -11.160  12.770  68.158  1.00  0.00    -0.242 N  
HETATM   19  H   UNL     1     -11.881  13.387  67.784  1.00  0.00     0.000 HD 
BRANCH  18  20
HETATM   20  C   UNL     1      -9.862  13.200  68.249  1.00  0.00    -0.227 C  
HETATM   21  O   UNL     1      -8.904  12.451  68.387  1.00  0.00    -0.182 OA 
BRANCH  20  22
HETATM   22  N   UNL     1      -9.753  14.568  68.155  1.00  0.00    -0.214 N  
HETATM   23  H   UNL     1     -10.353  15.194  68.692  1.00  0.00     0.000 HD 
BRANCH  22  24
HETATM   24  C   UNL     1      -8.745  15.064  67.258  1.00  0.00    -0.203 C  
HETATM   25  N   UNL     1      -9.085  16.244  66.503  1.00  0.00    -0.244 N  
HETATM   26  O   UNL     1      -6.944  15.212  68.975  1.00  0.00    -0.113 OA 
HETATM   27  C   UNL     1      -7.989  17.071  66.349  1.00  0.00    -0.307 C  
HETATM   28  N   UNL     1      -7.015  16.652  67.195  1.00  0.00    -0.171 NA 
HETATM   29  O   UNL     1      -7.910  18.044  65.620  1.00  0.00    -0.531 OA 
HETATM   30  C   UNL     1      -7.474  15.614  67.950  1.00  0.00    -0.133 C  
BRANCH  25  31
HETATM   31  C   UNL     1     -10.299  16.390  65.764  1.00  0.00    -0.369 C  
HETATM   32  H   UNL     1     -11.586  15.206  64.940  1.00  0.00     0.000 HD 
HETATM   33  O   UNL     1     -10.778  15.110  65.431  1.00  0.00    -0.327 OA 
ENDBRANCH  25  31
ENDBRANCH  22  24
ENDBRANCH  20  22
ENDBRANCH  18  20
ENDBRANCH  17  18
ENDBRANCH  15  17
ENDBRANCH  13  15
ENDBRANCH  11  13
ENDBRANCH   5  11
ENDBRANCH   2   4
TORSDOF 10
ENDMDL
MODEL      293
REMARK 921   NORMALIZED FREE ENERGY PREDICTED BY IDOCK:   -4.19 KCAL/MOL
REMARK 922        TOTAL FREE ENERGY PREDICTED BY IDOCK:   -8.64 KCAL/MOL
REMARK 923 INTER-LIGAND FREE ENERGY PREDICTED BY IDOCK:   -7.61 KCAL/MOL
REMARK 924 INTRA-LIGAND FREE ENERGY PREDICTED BY IDOCK:   -1.03 KCAL/MOL
REMARK 927      BINDING AFFINITY PREDICTED BY RF-SCORE:    0.00 PKD
ROOT
HETATM    1  O   UNL     1     -10.385   5.230  72.626  1.00  0.00    -0.186 OA 
HETATM    2  C   UNL     1     -10.403   6.573  72.205  1.00  0.00    -0.198 C  
HETATM    3  H   UNL     1     -10.649   5.189  73.537  1.00  0.00     0.000 HD 
ENDROOT
BRANCH   2   4
HETATM    4  N   UNL     1     -10.005   6.635  70.830  1.00  0.00    -0.187 N  
HETATM    5  C   UNL     1     -11.000   6.669  69.778  1.00  0.00    -0.313 C  
HETATM    6  O   UNL     1      -7.963   5.574  71.161  1.00  0.00    -0.105 OA 
HETATM    7  C   UNL     1     -10.313   5.743  68.749  1.00  0.00    -0.224 C  
HETATM    8  N   UNL     1      -9.030   5.540  69.152  1.00  0.00    -0.108 NA 
HETATM    9  O   UNL     1     -10.777   5.311  67.705  1.00  0.00    -0.121 OA 
HETATM   10  C   UNL     1      -8.887   5.917  70.442  1.00  0.00    -0.143 C  
BRANCH   5  11
HETATM   11  N   UNL     1     -11.133   7.996  69.229  1.00  0.00    -0.435 N  
HETATM   12  H   UNL     1     -12.056   8.343  68.971  1.00  0.00     0.000 HD 
BRANCH  11  13
HETATM   13  C   UNL     1     -10.039   8.792  69.048  1.00  0.00    -0.198 C  
HETATM   14  O   UNL     1      -9.215   8.624  68.159  1.00  0.00    -0.137 OA 
BRANCH  13  15
HETATM   15  N   UNL     1     -10.012   9.848  69.921  1.00  0.00    -0.243 N  
HETATM   16  H   UNL     1      -9.174  10.033  70.471  1.00  0.00     0.000 HD 
BRANCH  15  17
HETATM   17  C   UNL     1     -11.163  10.689  70.062  1.00  0.00    -0.309 C  
BRANCH  17  18
HETATM   18  N   UNL     1     -11.025  11.924  69.335  1.00  0.00    -0.434 N  
HETATM   19  H   UNL     1     -11.549  12.751  69.622  1.00  0.00     0.000 HD 
BRANCH  18  20
HETATM   20  C   UNL     1     -10.184  11.979  68.255  1.00  0.00    -0.206 C  
HETATM   21  O   UNL     1      -8.990  12.237  68.333  1.00  0.00    -0.188 OA 
BRANCH  20  22
HETATM   22  N   UNL     1     -10.828  11.701  67.072  1.00  0.00    -0.252 N  
HETATM   23  H   UNL     1     -11.211  10.778  66.871  1.00  0.00     0.000 HD 
BRANCH  22  24
HETATM   24  C   UNL     1     -10.930  12.787  66.135  1.00  0.00    -0.283 C  
HETATM   25  N   UNL     1     -11.376  12.446  64.806  1.00  0.00    -0.305 N  
HETATM   26  O   UNL     1     -12.395  14.207  67.567  1.00  0.00    -0.296 OA 
HETATM   27  C   UNL     1     -12.179  13.438  64.280  1.00  0.00    -0.392 C  
HETATM   28  N   UNL     1     -12.527  14.285  65.281  1.00  0.00    -0.448 NA 
HETATM   29  O   UNL     1     -12.562  13.527  63.126  1.00  0.00    -0.762 OA 
HETATM   30  C   UNL     1     -12.026  13.828  66.465  1.00  0.00    -0.434 C  
BRANCH  25  31
HETATM   31  C   UNL     1     -10.820  11.381  64.033  1.00  0.00    -0.383 C  
HETATM   32  H   UNL     1      -9.969   9.684  64.398  1.00  0.00     0.000 HD 
HETATM   33  O   UNL     1     -10.339  10.393  64.912  1.00  0.00    -0.317 OA 
ENDBRANCH  25  31
ENDBRANCH  22  24
ENDBRANCH  20  22
ENDBRANCH  18  20
ENDBRANCH  17  18
ENDBRANCH  15  17
ENDBRANCH  13  15
ENDBRANCH  11  13
ENDBRANCH   5  11
ENDBRANCH   2   4
TORSDOF 10
ENDMDL
MODEL      294
REMARK 921   NORMALIZED FREE ENERGY PREDICTED BY IDOCK:   -4.19 KCAL/MOL
REMARK 922        TOTAL FREE ENERGY PREDICTED BY IDOCK:   -8.64 KCAL/MOL
REMARK 923 INTER-LIGAND FREE ENERGY PREDICTED BY IDOCK:   -7.81 KCAL/MOL
REMARK 924 INTRA-LIGAND FREE ENERGY PREDICTED BY IDOCK:   -0.83 KCAL/MOL
REMARK 927      BINDING AFFINITY PREDICTED BY RF-SCORE:    0.00 PKD
ROOT
HETATM    1  O   UNL     1     -12.526  14.465  63.748  1.00  0.00    -1.002 OA 
HETATM    2  C   UNL     1     -13.035  13.969  64.963  1.00  0.00    -0.134 C  
HETATM    3  H   UNL     1     -13.217  14.927  63.289  1.00  0.00     0.000 HD 
ENDROOT
BRANCH   2   4
HETATM    4  N   UNL     1     -11.993  13.273  65.655  1.00  0.00    -0.387 N  
HETATM    5  C   UNL     1     -11.251  13.926  66.715  1.00  0.00    -0.318 C  
HETATM    6  O   UNL     1     -11.474  11.864  63.880  1.00  0.00    -0.381 OA 
HETATM    7  C   UNL     1      -9.835  13.392  66.401  1.00  0.00    -0.296 C  
HETATM    8  N   UNL     1      -9.954  12.389  65.489  1.00  0.00    -0.260 NA 
HETATM    9  O   UNL     1      -8.778  13.728  66.912  1.00  0.00    -0.219 OA 
HETATM   10  C   UNL     1     -11.182  12.420  64.927  1.00  0.00    -0.311 C  
BRANCH   5  11
HETATM   11  N   UNL     1     -11.672  13.458  68.012  1.00  0.00    -0.336 N  
HETATM   12  H   UNL     1     -12.153  14.096  68.645  1.00  0.00     0.000 HD 
BRANCH  11  13
HETATM   13  C   UNL     1     -11.437  12.171  68.403  1.00  0.00    -0.304 C  
HETATM   14  O   UNL     1     -12.225  11.253  68.227  1.00  0.00    -0.611 OA 
BRANCH  13  15
HETATM   15  N   UNL     1     -10.187  12.011  68.941  1.00  0.00    -0.407 N  
HETATM   16  H   UNL     1      -9.674  12.820  69.290  1.00  0.00     0.000 HD 
BRANCH  15  17
HETATM   17  C   UNL     1      -9.602  10.705  69.013  1.00  0.00    -0.195 C  
BRANCH  17  18
HETATM   18  N   UNL     1      -9.934  10.027  70.239  1.00  0.00    -0.395 N  
HETATM   19  H   UNL     1      -9.765  10.478  71.139  1.00  0.00     0.000 HD 
BRANCH  18  20
HETATM   20  C   UNL     1     -10.478   8.771  70.188  1.00  0.00    -0.213 C  
HETATM   21  O   UNL     1     -11.607   8.501  70.578  1.00  0.00    -0.240 OA 
BRANCH  20  22
HETATM   22  N   UNL     1      -9.621   7.847  69.639  1.00  0.00    -0.164 N  
HETATM   23  H   UNL     1      -8.665   8.089  69.376  1.00  0.00     0.000 HD 
BRANCH  22  24
HETATM   24  C   UNL     1     -10.147   6.522  69.456  1.00  0.00    -0.176 C  
HETATM   25  N   UNL     1     -10.176   6.025  68.103  1.00  0.00    -0.160 N  
HETATM   26  O   UNL     1      -8.633   5.429  71.106  1.00  0.00    -0.122 OA 
HETATM   27  C   UNL     1      -9.898   4.673  68.062  1.00  0.00    -0.113 C  
HETATM   28  N   UNL     1      -9.407   4.300  69.270  1.00  0.00    -0.147 NA 
HETATM   29  O   UNL     1     -10.018   3.935  67.099  1.00  0.00    -0.134 OA 
HETATM   30  C   UNL     1      -9.292   5.392  70.078  1.00  0.00    -0.148 C  
BRANCH  25  31
HETATM   31  C   UNL     1     -10.712   6.759  67.001  1.00  0.00    -0.365 C  
HETATM   32  H   UNL     1     -10.818   8.616  66.475  1.00  0.00     0.000 HD 
HETATM   33  O   UNL     1     -10.461   8.128  67.208  1.00  0.00    -0.274 OA 
ENDBRANCH  25  31
ENDBRANCH  22  24
ENDBRANCH  20  22
ENDBRANCH  18  20
ENDBRANCH  17  18
ENDBRANCH  15  17
ENDBRANCH  13  15
ENDBRANCH  11  13
ENDBRANCH   5  11
ENDBRANCH   2   4
TORSDOF 10
ENDMDL
MODEL      295
REMARK 921   NORMALIZED FREE ENERGY PREDICTED BY IDOCK:   -4.18 KCAL/MOL
REMARK 922        TOTAL FREE ENERGY PREDICTED BY IDOCK:   -8.62 KCAL/MOL
REMARK 923 INTER-LIGAND FREE ENERGY PREDICTED BY IDOCK:   -7.33 KCAL/MOL
REMARK 924 INTRA-LIGAND FREE ENERGY PREDICTED BY IDOCK:   -1.29 KCAL/MOL
REMARK 927      BINDING AFFINITY PREDICTED BY RF-SCORE:    0.00 PKD
ROOT
HETATM    1  O   UNL     1     -13.028  13.076  64.377  1.00  0.00    -0.686 OA 
HETATM    2  C   UNL     1     -12.565  14.156  65.151  1.00  0.00    -0.408 C  
HETATM    3  H   UNL     1     -13.679  13.392  63.763  1.00  0.00     0.000 HD 
ENDROOT
BRANCH   2   4
HETATM    4  N   UNL     1     -11.583  13.679  66.078  1.00  0.00    -0.326 N  
HETATM    5  C   UNL     1     -11.449  14.291  67.385  1.00  0.00    -0.347 C  
HETATM    6  O   UNL     1     -10.126  12.893  64.447  1.00  0.00    -0.326 OA 
HETATM    7  C   UNL     1      -9.908  14.285  67.510  1.00  0.00    -0.231 C  
HETATM    8  N   UNL     1      -9.405  13.506  66.515  1.00  0.00    -0.245 NA 
HETATM    9  O   UNL     1      -9.226  14.811  68.377  1.00  0.00    -0.177 OA 
HETATM   10  C   UNL     1     -10.355  13.281  65.581  1.00  0.00    -0.287 C  
BRANCH   5  11
HETATM   11  N   UNL     1     -12.024  13.458  68.412  1.00  0.00    -0.353 N  
HETATM   12  H   UNL     1     -12.634  13.875  69.114  1.00  0.00     0.000 HD 
BRANCH  11  13
HETATM   13  C   UNL     1     -11.763  12.119  68.458  1.00  0.00    -0.330 C  
HETATM   14  O   UNL     1     -12.148  11.323  67.612  1.00  0.00    -0.600 OA 
BRANCH  13  15
HETATM   15  N   UNL     1     -10.956  11.780  69.511  1.00  0.00    -0.454 N  
HETATM   16  H   UNL     1     -10.104  12.311  69.693  1.00  0.00     0.000 HD 
BRANCH  15  17
HETATM   17  C   UNL     1     -11.309  10.680  70.358  1.00  0.00    -0.304 C  
BRANCH  17  18
HETATM   18  N   UNL     1     -11.220   9.417  69.673  1.00  0.00    -0.416 N  
HETATM   19  H   UNL     1     -12.042   8.819  69.585  1.00  0.00     0.000 HD 
BRANCH  18  20
HETATM   20  C   UNL     1     -10.021   9.024  69.138  1.00  0.00    -0.185 C  
HETATM   21  O   UNL     1      -9.579   9.441  68.076  1.00  0.00    -0.136 OA 
BRANCH  20  22
HETATM   22  N   UNL     1      -9.362   8.117  69.935  1.00  0.00    -0.159 N  
HETATM   23  H   UNL     1      -9.019   8.364  70.863  1.00  0.00     0.000 HD 
BRANCH  22  24
HETATM   24  C   UNL     1      -9.184   6.801  69.384  1.00  0.00    -0.143 C  
HETATM   25  N   UNL     1      -8.207   5.961  70.033  1.00  0.00    -0.118 N  
HETATM   26  O   UNL     1     -11.589   6.160  69.505  1.00  0.00    -0.396 OA 
HETATM   27  C   UNL     1      -8.616   4.643  70.053  1.00  0.00    -0.077 C  
HETATM   28  N   UNL     1      -9.928   4.596  69.712  1.00  0.00    -0.230 NA 
HETATM   29  O   UNL     1      -7.942   3.677  70.368  1.00  0.00    -0.049 OA 
HETATM   30  C   UNL     1     -10.405   5.862  69.539  1.00  0.00    -0.248 C  
BRANCH  25  31
HETATM   31  C   UNL     1      -6.877   6.385  70.339  1.00  0.00    -0.058 C  
HETATM   32  H   UNL     1      -5.767   7.914  69.932  1.00  0.00     0.000 HD 
HETATM   33  O   UNL     1      -6.652   7.632  69.729  1.00  0.00    -0.037 OA 
ENDBRANCH  25  31
ENDBRANCH  22  24
ENDBRANCH  20  22
ENDBRANCH  18  20
ENDBRANCH  17  18
ENDBRANCH  15  17
ENDBRANCH  13  15
ENDBRANCH  11  13
ENDBRANCH   5  11
ENDBRANCH   2   4
TORSDOF 10
ENDMDL
MODEL      296
REMARK 921   NORMALIZED FREE ENERGY PREDICTED BY IDOCK:   -4.18 KCAL/MOL
REMARK 922        TOTAL FREE ENERGY PREDICTED BY IDOCK:   -8.62 KCAL/MOL
REMARK 923 INTER-LIGAND FREE ENERGY PREDICTED BY IDOCK:   -7.18 KCAL/MOL
REMARK 924 INTRA-LIGAND FREE ENERGY PREDICTED BY IDOCK:   -1.43 KCAL/MOL
REMARK 927      BINDING AFFINITY PREDICTED BY RF-SCORE:    0.00 PKD
ROOT
HETATM    1  O   UNL     1     -12.629  10.393  69.566  1.00  0.00    -0.644 OA 
HETATM    2  C   UNL     1     -11.620  11.238  70.064  1.00  0.00    -0.321 C  
HETATM    3  H   UNL     1     -12.264   9.528  69.422  1.00  0.00     0.000 HD 
ENDROOT
BRANCH   2   4
HETATM    4  N   UNL     1     -12.170  12.542  70.282  1.00  0.00    -0.310 N  
HETATM    5  C   UNL     1     -11.484  13.720  69.789  1.00  0.00    -0.199 C  
HETATM    6  O   UNL     1     -13.303  11.964  72.227  1.00  0.00    -0.471 OA 
HETATM    7  C   UNL     1     -11.722  14.670  70.984  1.00  0.00    -0.277 C  
HETATM    8  N   UNL     1     -12.648  14.100  71.802  1.00  0.00    -0.331 NA 
HETATM    9  O   UNL     1     -11.242  15.780  71.165  1.00  0.00    -0.347 OA 
HETATM   10  C   UNL     1     -12.794  12.794  71.491  1.00  0.00    -0.270 C  
BRANCH   5  11
HETATM   11  N   UNL     1     -12.131  14.245  68.612  1.00  0.00    -0.527 N  
HETATM   12  H   UNL     1     -13.125  14.468  68.642  1.00  0.00     0.000 HD 
BRANCH  11  13
HETATM   13  C   UNL     1     -11.430  14.448  67.459  1.00  0.00    -0.349 C  
HETATM   14  O   UNL     1     -10.859  15.495  67.186  1.00  0.00    -0.316 OA 
BRANCH  13  15
HETATM   15  N   UNL     1     -11.370  13.323  66.680  1.00  0.00    -0.310 N  
HETATM   16  H   UNL     1     -11.708  12.432  67.044  1.00  0.00     0.000 HD 
BRANCH  15  17
HETATM   17  C   UNL     1     -10.831  13.398  65.354  1.00  0.00    -0.294 C  
BRANCH  17  18
HETATM   18  N   UNL     1      -9.572  12.710  65.240  1.00  0.00    -0.464 N  
HETATM   19  H   UNL     1      -8.699  13.237  65.205  1.00  0.00     0.000 HD 
BRANCH  18  20
HETATM   20  C   UNL     1      -9.556  11.341  65.178  1.00  0.00    -0.235 C  
HETATM   21  O   UNL     1     -10.542  10.639  65.354  1.00  0.00    -0.220 OA 
BRANCH  20  22
HETATM   22  N   UNL     1      -8.308  10.843  64.884  1.00  0.00    -0.370 N  
HETATM   23  H   UNL     1      -7.873  10.982  63.972  1.00  0.00     0.000 HD 
BRANCH  22  24
HETATM   24  C   UNL     1      -7.652  10.115  65.936  1.00  0.00    -0.128 C  
HETATM   25  N   UNL     1      -7.399   8.717  65.687  1.00  0.00    -0.083 N  
HETATM   26  O   UNL     1      -5.715  11.670  66.136  1.00  0.00    -0.215 OA 
HETATM   27  C   UNL     1      -6.194   8.323  66.233  1.00  0.00    -0.046 C  
HETATM   28  N   UNL     1      -5.498   9.433  66.583  1.00  0.00    -0.045 NA 
HETATM   29  O   UNL     1      -5.785   7.180  66.344  1.00  0.00    -0.028 OA 
HETATM   30  C   UNL     1      -6.192  10.548  66.212  1.00  0.00    -0.105 C  
BRANCH  25  31
HETATM   31  C   UNL     1      -8.390   7.806  65.210  1.00  0.00    -0.122 C  
HETATM   32  H   UNL     1     -10.146   7.226  65.775  1.00  0.00     0.000 HD 
HETATM   33  O   UNL     1      -9.486   7.832  66.092  1.00  0.00    -0.157 OA 
ENDBRANCH  25  31
ENDBRANCH  22  24
ENDBRANCH  20  22
ENDBRANCH  18  20
ENDBRANCH  17  18
ENDBRANCH  15  17
ENDBRANCH  13  15
ENDBRANCH  11  13
ENDBRANCH   5  11
ENDBRANCH   2   4
TORSDOF 10
ENDMDL
MODEL      297
REMARK 921   NORMALIZED FREE ENERGY PREDICTED BY IDOCK:   -4.18 KCAL/MOL
REMARK 922        TOTAL FREE ENERGY PREDICTED BY IDOCK:   -8.61 KCAL/MOL
REMARK 923 INTER-LIGAND FREE ENERGY PREDICTED BY IDOCK:   -6.53 KCAL/MOL
REMARK 924 INTRA-LIGAND FREE ENERGY PREDICTED BY IDOCK:   -2.08 KCAL/MOL
REMARK 927      BINDING AFFINITY PREDICTED BY RF-SCORE:    0.00 PKD
ROOT
HETATM    1  O   UNL     1     -11.930  10.540  68.147  1.00  0.00    -0.788 OA 
HETATM    2  C   UNL     1     -11.893  11.737  68.887  1.00  0.00    -0.320 C  
HETATM    3  H   UNL     1     -11.859  10.747  67.222  1.00  0.00     0.000 HD 
ENDROOT
BRANCH   2   4
HETATM    4  N   UNL     1     -12.000  11.426  70.281  1.00  0.00    -0.352 N  
HETATM    5  C   UNL     1     -12.189  10.056  70.715  1.00  0.00    -0.315 C  
HETATM    6  O   UNL     1     -12.852  13.501  70.888  1.00  0.00    -0.294 OA 
HETATM    7  C   UNL     1     -13.201  10.291  71.860  1.00  0.00    -0.445 C  
HETATM    8  N   UNL     1     -13.252  11.627  72.113  1.00  0.00    -0.409 NA 
HETATM    9  O   UNL     1     -13.812   9.451  72.502  1.00  0.00    -0.444 OA 
HETATM   10  C   UNL     1     -12.683  12.310  71.096  1.00  0.00    -0.243 C  
BRANCH   5  11
HETATM   11  N   UNL     1     -10.969   9.505  71.249  1.00  0.00    -0.363 N  
HETATM   12  H   UNL     1     -10.436  10.036  71.936  1.00  0.00     0.000 HD 
BRANCH  11  13
HETATM   13  C   UNL     1     -10.518   8.281  70.847  1.00  0.00    -0.196 C  
HETATM   14  O   UNL     1     -11.130   7.238  71.028  1.00  0.00    -0.248 OA 
BRANCH  13  15
HETATM   15  N   UNL     1      -9.342   8.363  70.147  1.00  0.00    -0.162 N  
HETATM   16  H   UNL     1      -8.941   7.525  69.726  1.00  0.00     0.000 HD 
BRANCH  15  17
HETATM   17  C   UNL     1      -8.678   9.625  70.009  1.00  0.00    -0.231 C  
BRANCH  17  18
HETATM   18  N   UNL     1      -8.962  10.253  68.746  1.00  0.00    -0.147 N  
HETATM   19  H   UNL     1      -9.825  10.781  68.615  1.00  0.00     0.000 HD 
BRANCH  18  20
HETATM   20  C   UNL     1      -8.062  10.136  67.719  1.00  0.00    -0.109 C  
HETATM   21  O   UNL     1      -6.880   9.864  67.877  1.00  0.00    -0.074 OA 
BRANCH  20  22
HETATM   22  N   UNL     1      -8.639  10.345  66.488  1.00  0.00    -0.129 N  
HETATM   23  H   UNL     1      -8.851  11.282  66.145  1.00  0.00     0.000 HD 
BRANCH  22  24
HETATM   24  C   UNL     1      -8.924   9.169  65.713  1.00  0.00    -0.193 C  
HETATM   25  N   UNL     1      -7.787   8.398  65.274  1.00  0.00    -0.104 N  
HETATM   26  O   UNL     1     -10.492   8.162  67.368  1.00  0.00    -0.260 OA 
HETATM   27  C   UNL     1      -8.061   7.046  65.298  1.00  0.00    -0.134 C  
HETATM   28  N   UNL     1      -9.210   6.853  65.992  1.00  0.00    -0.081 NA 
HETATM   29  O   UNL     1      -7.375   6.156  64.824  1.00  0.00    -0.067 OA 
HETATM   30  C   UNL     1      -9.656   8.044  66.485  1.00  0.00    -0.226 C  
BRANCH  25  31
HETATM   31  C   UNL     1      -6.649   8.966  64.624  1.00  0.00    -0.066 C  
HETATM   32  H   UNL     1      -6.286  10.539  63.558  1.00  0.00     0.000 HD 
HETATM   33  O   UNL     1      -7.043  10.160  63.991  1.00  0.00    -0.133 OA 
ENDBRANCH  25  31
ENDBRANCH  22  24
ENDBRANCH  20  22
ENDBRANCH  18  20
ENDBRANCH  17  18
ENDBRANCH  15  17
ENDBRANCH  13  15
ENDBRANCH  11  13
ENDBRANCH   5  11
ENDBRANCH   2   4
TORSDOF 10
ENDMDL
MODEL      298
REMARK 921   NORMALIZED FREE ENERGY PREDICTED BY IDOCK:   -4.17 KCAL/MOL
REMARK 922        TOTAL FREE ENERGY PREDICTED BY IDOCK:   -8.60 KCAL/MOL
REMARK 923 INTER-LIGAND FREE ENERGY PREDICTED BY IDOCK:   -6.44 KCAL/MOL
REMARK 924 INTRA-LIGAND FREE ENERGY PREDICTED BY IDOCK:   -2.16 KCAL/MOL
REMARK 927      BINDING AFFINITY PREDICTED BY RF-SCORE:    0.00 PKD
ROOT
HETATM    1  O   UNL     1     -12.042  10.748  67.883  1.00  0.00    -0.702 OA 
HETATM    2  C   UNL     1     -11.912  11.868  68.725  1.00  0.00    -0.249 C  
HETATM    3  H   UNL     1     -12.007  11.036  66.979  1.00  0.00     0.000 HD 
ENDROOT
BRANCH   2   4
HETATM    4  N   UNL     1     -11.965  11.434  70.089  1.00  0.00    -0.352 N  
HETATM    5  C   UNL     1     -12.163  10.035  70.407  1.00  0.00    -0.170 C  
HETATM    6  O   UNL     1     -12.749  13.460  70.917  1.00  0.00    -0.325 OA 
HETATM    7  C   UNL     1     -13.120  10.182  71.612  1.00  0.00    -0.447 C  
HETATM    8  N   UNL     1     -13.133  11.490  71.986  1.00  0.00    -0.444 NA 
HETATM    9  O   UNL     1     -13.720   9.296  72.203  1.00  0.00    -0.427 OA 
HETATM   10  C   UNL     1     -12.595  12.253  71.010  1.00  0.00    -0.257 C  
BRANCH   5  11
HETATM   11  N   UNL     1     -10.932   9.418  70.835  1.00  0.00    -0.291 N  
HETATM   12  H   UNL     1     -10.465   9.758  71.674  1.00  0.00     0.000 HD 
BRANCH  11  13
HETATM   13  C   UNL     1     -10.384   8.385  70.131  1.00  0.00    -0.211 C  
HETATM   14  O   UNL     1     -11.012   7.396  69.777  1.00  0.00    -0.247 OA 
BRANCH  13  15
HETATM   15  N   UNL     1      -9.076   8.617  69.797  1.00  0.00    -0.148 N  
HETATM   16  H   UNL     1      -8.619   8.038  69.093  1.00  0.00     0.000 HD 
BRANCH  15  17
HETATM   17  C   UNL     1      -8.351   9.673  70.438  1.00  0.00    -0.151 C  
BRANCH  17  18
HETATM   18  N   UNL     1      -7.856  10.643  69.496  1.00  0.00    -0.309 N  
HETATM   19  H   UNL     1      -8.049  11.636  69.631  1.00  0.00     0.000 HD 
BRANCH  18  20
HETATM   20  C   UNL     1      -7.125  10.221  68.417  1.00  0.00    -0.078 C  
HETATM   21  O   UNL     1      -6.173   9.455  68.497  1.00  0.00    -0.048 OA 
BRANCH  20  22
HETATM   22  N   UNL     1      -7.586  10.744  67.232  1.00  0.00    -0.099 N  
HETATM   23  H   UNL     1      -8.034  11.659  67.185  1.00  0.00     0.000 HD 
BRANCH  22  24
HETATM   24  C   UNL     1      -7.400   9.927  66.064  1.00  0.00    -0.106 C  
HETATM   25  N   UNL     1      -8.498   9.885  65.130  1.00  0.00    -0.141 N  
HETATM   26  O   UNL     1      -5.262  10.997  65.358  1.00  0.00    -0.164 OA 
HETATM   27  C   UNL     1      -8.044   9.830  63.827  1.00  0.00    -0.149 C  
HETATM   28  N   UNL     1      -6.718  10.119  63.823  1.00  0.00    -0.131 NA 
HETATM   29  O   UNL     1      -8.713   9.610  62.832  1.00  0.00    -0.193 OA 
HETATM   30  C   UNL     1      -6.311  10.432  65.086  1.00  0.00    -0.103 C  
BRANCH  25  31
HETATM   31  C   UNL     1      -9.851   9.632  65.510  1.00  0.00    -0.281 C  
HETATM   32  H   UNL     1     -10.750   8.688  66.938  1.00  0.00     0.000 HD 
HETATM   33  O   UNL     1      -9.850   8.857  66.685  1.00  0.00    -0.215 OA 
ENDBRANCH  25  31
ENDBRANCH  22  24
ENDBRANCH  20  22
ENDBRANCH  18  20
ENDBRANCH  17  18
ENDBRANCH  15  17
ENDBRANCH  13  15
ENDBRANCH  11  13
ENDBRANCH   5  11
ENDBRANCH   2   4
TORSDOF 10
ENDMDL
MODEL      299
REMARK 921   NORMALIZED FREE ENERGY PREDICTED BY IDOCK:   -4.15 KCAL/MOL
REMARK 922        TOTAL FREE ENERGY PREDICTED BY IDOCK:   -8.58 KCAL/MOL
REMARK 923 INTER-LIGAND FREE ENERGY PREDICTED BY IDOCK:   -7.62 KCAL/MOL
REMARK 924 INTRA-LIGAND FREE ENERGY PREDICTED BY IDOCK:   -0.96 KCAL/MOL
REMARK 927      BINDING AFFINITY PREDICTED BY RF-SCORE:    0.00 PKD
ROOT
HETATM    1  O   UNL     1     -11.405   5.473  71.424  1.00  0.00    -0.109 OA 
HETATM    2  C   UNL     1     -11.825   6.682  72.010  1.00  0.00    -0.324 C  
HETATM    3  H   UNL     1     -11.925   4.762  71.777  1.00  0.00     0.000 HD 
ENDROOT
BRANCH   2   4
HETATM    4  N   UNL     1     -11.040   7.755  71.479  1.00  0.00    -0.234 N  
HETATM    5  C   UNL     1     -11.656   8.782  70.663  1.00  0.00    -0.205 C  
HETATM    6  O   UNL     1      -9.055   6.547  71.421  1.00  0.00    -0.148 OA 
HETATM    7  C   UNL     1     -10.546   8.964  69.603  1.00  0.00    -0.226 C  
HETATM    8  N   UNL     1      -9.433   8.313  70.039  1.00  0.00    -0.166 NA 
HETATM    9  O   UNL     1     -10.591   9.629  68.579  1.00  0.00    -0.212 OA 
HETATM   10  C   UNL     1      -9.757   7.472  71.046  1.00  0.00    -0.167 C  
BRANCH   5  11
HETATM   11  N   UNL     1     -11.827  10.006  71.406  1.00  0.00    -0.377 N  
HETATM   12  H   UNL     1     -11.147  10.258  72.122  1.00  0.00     0.000 HD 
BRANCH  11  13
HETATM   13  C   UNL     1     -12.887  10.831  71.164  1.00  0.00    -0.414 C  
HETATM   14  O   UNL     1     -13.659  10.688  70.225  1.00  0.00     0.233 OA 
BRANCH  13  15
HETATM   15  N   UNL     1     -13.036  11.787  72.134  1.00  0.00    -0.448 N  
HETATM   16  H   UNL     1     -13.078  11.515  73.116  1.00  0.00     0.000 HD 
BRANCH  15  17
HETATM   17  C   UNL     1     -13.134  13.168  71.767  1.00  0.00    -0.383 C  
BRANCH  17  18
HETATM   18  N   UNL     1     -11.875  13.703  71.319  1.00  0.00    -0.285 N  
HETATM   19  H   UNL     1     -10.998  13.326  71.679  1.00  0.00     0.000 HD 
BRANCH  18  20
HETATM   20  C   UNL     1     -11.864  14.722  70.403  1.00  0.00    -0.295 C  
HETATM   21  O   UNL     1     -12.538  15.738  70.506  1.00  0.00    -0.421 OA 
BRANCH  20  22
HETATM   22  N   UNL     1     -11.001  14.482  69.360  1.00  0.00    -0.264 N  
HETATM   23  H   UNL     1     -10.124  13.979  69.491  1.00  0.00     0.000 HD 
BRANCH  22  24
HETATM   24  C   UNL     1     -11.407  14.980  68.074  1.00  0.00    -0.327 C  
HETATM   25  N   UNL     1     -10.529  15.942  67.453  1.00  0.00    -0.300 N  
HETATM   26  O   UNL     1     -11.672  12.739  67.017  1.00  0.00    -0.342 OA 
HETATM   27  C   UNL     1     -10.481  15.765  66.085  1.00  0.00    -0.317 C  
HETATM   28  N   UNL     1     -11.049  14.569  65.788  1.00  0.00    -0.317 NA 
HETATM   29  O   UNL     1      -9.976  16.519  65.271  1.00  0.00    -0.531 OA 
HETATM   30  C   UNL     1     -11.402  13.928  66.938  1.00  0.00    -0.328 C  
BRANCH  25  31
HETATM   31  C   UNL     1     -10.023  17.099  68.122  1.00  0.00    -0.297 C  
HETATM   32  H   UNL     1     -10.373  19.000  68.089  1.00  0.00     0.000 HD 
HETATM   33  O   UNL     1     -10.710  18.230  67.645  1.00  0.00    -0.419 OA 
ENDBRANCH  25  31
ENDBRANCH  22  24
ENDBRANCH  20  22
ENDBRANCH  18  20
ENDBRANCH  17  18
ENDBRANCH  15  17
ENDBRANCH  13  15
ENDBRANCH  11  13
ENDBRANCH   5  11
ENDBRANCH   2   4
TORSDOF 10
ENDMDL
MODEL      300
REMARK 921   NORMALIZED FREE ENERGY PREDICTED BY IDOCK:   -4.14 KCAL/MOL
REMARK 922        TOTAL FREE ENERGY PREDICTED BY IDOCK:   -8.56 KCAL/MOL
REMARK 923 INTER-LIGAND FREE ENERGY PREDICTED BY IDOCK:   -7.73 KCAL/MOL
REMARK 924 INTRA-LIGAND FREE ENERGY PREDICTED BY IDOCK:   -0.83 KCAL/MOL
REMARK 927      BINDING AFFINITY PREDICTED BY RF-SCORE:    0.00 PKD
ROOT
HETATM    1  O   UNL     1     -13.021  13.156  64.886  1.00  0.00    -0.734 OA 
HETATM    2  C   UNL     1     -12.021  12.474  65.604  1.00  0.00    -0.433 C  
HETATM    3  H   UNL     1     -13.454  12.545  64.303  1.00  0.00     0.000 HD 
ENDROOT
BRANCH   2   4
HETATM    4  N   UNL     1     -11.367  13.396  66.483  1.00  0.00    -0.311 N  
HETATM    5  C   UNL     1     -11.837  13.575  67.841  1.00  0.00    -0.362 C  
HETATM    6  O   UNL     1     -10.602  14.788  64.785  1.00  0.00    -0.413 OA 
HETATM    7  C   UNL     1     -11.672  15.107  67.967  1.00  0.00    -0.285 C  
HETATM    8  N   UNL     1     -10.945  15.543  66.903  1.00  0.00    -0.302 NA 
HETATM    9  O   UNL     1     -12.045  15.827  68.880  1.00  0.00    -0.333 OA 
HETATM   10  C   UNL     1     -10.902  14.586  65.951  1.00  0.00    -0.308 C  
BRANCH   5  11
HETATM   11  N   UNL     1     -10.970  12.913  68.784  1.00  0.00    -0.251 N  
HETATM   12  H   UNL     1     -10.142  13.395  69.131  1.00  0.00     0.000 HD 
BRANCH  11  13
HETATM   13  C   UNL     1     -11.244  11.649  69.220  1.00  0.00    -0.265 C  
HETATM   14  O   UNL     1     -12.368  11.165  69.238  1.00  0.00    -0.381 OA 
BRANCH  13  15
HETATM   15  N   UNL     1     -10.111  10.957  69.559  1.00  0.00    -0.437 N  
HETATM   16  H   UNL     1      -9.245  11.459  69.751  1.00  0.00     0.000 HD 
BRANCH  15  17
HETATM   17  C   UNL     1     -10.144   9.527  69.640  1.00  0.00    -0.212 C  
BRANCH  17  18
HETATM   18  N   UNL     1     -11.009   9.062  70.693  1.00  0.00    -0.244 N  
HETATM   19  H   UNL     1     -11.876   9.558  70.904  1.00  0.00     0.000 HD 
BRANCH  18  20
HETATM   20  C   UNL     1     -10.658   7.949  71.411  1.00  0.00    -0.211 C  
HETATM   21  O   UNL     1     -10.240   6.916  70.905  1.00  0.00    -0.197 OA 
BRANCH  20  22
HETATM   22  N   UNL     1     -10.817   8.124  72.765  1.00  0.00    -0.358 N  
HETATM   23  H   UNL     1     -11.650   8.561  73.158  1.00  0.00     0.000 HD 
BRANCH  22  24
HETATM   24  C   UNL     1      -9.741   7.656  73.596  1.00  0.00    -0.255 C  
HETATM   25  N   UNL     1      -9.664   6.231  73.803  1.00  0.00    -0.168 N  
HETATM   26  O   UNL     1      -7.930   8.781  72.304  1.00  0.00    -0.350 OA 
HETATM   27  C   UNL     1      -8.353   5.803  73.851  1.00  0.00    -0.112 C  
HETATM   28  N   UNL     1      -7.557   6.808  73.406  1.00  0.00    -0.086 NA 
HETATM   29  O   UNL     1      -7.960   4.699  74.186  1.00  0.00    -0.098 OA 
HETATM   30  C   UNL     1      -8.326   7.859  73.001  1.00  0.00    -0.165 C  
BRANCH  25  31
HETATM   31  C   UNL     1     -10.776   5.429  74.203  1.00  0.00    -0.151 C  
HETATM   32  H   UNL     1     -12.226   4.505  73.318  1.00  0.00     0.000 HD 
HETATM   33  O   UNL     1     -11.486   5.038  73.052  1.00  0.00    -0.309 OA 
ENDBRANCH  25  31
ENDBRANCH  22  24
ENDBRANCH  20  22
ENDBRANCH  18  20
ENDBRANCH  17  18
ENDBRANCH  15  17
ENDBRANCH  13  15
ENDBRANCH  11  13
ENDBRANCH   5  11
ENDBRANCH   2   4
TORSDOF 10
ENDMDL
MODEL      301
REMARK 921   NORMALIZED FREE ENERGY PREDICTED BY IDOCK:   -4.14 KCAL/MOL
REMARK 922        TOTAL FREE ENERGY PREDICTED BY IDOCK:   -8.55 KCAL/MOL
REMARK 923 INTER-LIGAND FREE ENERGY PREDICTED BY IDOCK:   -6.66 KCAL/MOL
REMARK 924 INTRA-LIGAND FREE ENERGY PREDICTED BY IDOCK:   -1.89 KCAL/MOL
REMARK 927      BINDING AFFINITY PREDICTED BY RF-SCORE:    0.00 PKD
ROOT
HETATM    1  O   UNL     1      -8.863   5.953  62.755  1.00  0.00    -0.344 OA 
HETATM    2  C   UNL     1      -8.246   5.123  63.709  1.00  0.00    -0.126 C  
HETATM    3  H   UNL     1      -8.461   5.802  61.908  1.00  0.00     0.000 HD 
ENDROOT
BRANCH   2   4
HETATM    4  N   UNL     1      -8.853   5.351  64.986  1.00  0.00    -0.125 N  
HETATM    5  C   UNL     1      -8.037   5.675  66.139  1.00  0.00    -0.108 C  
HETATM    6  O   UNL     1     -10.701   4.002  64.578  1.00  0.00    -0.269 OA 
HETATM    7  C   UNL     1      -8.775   4.844  67.214  1.00  0.00    -0.103 C  
HETATM    8  N   UNL     1      -9.954   4.419  66.685  1.00  0.00    -0.226 NA 
HETATM    9  O   UNL     1      -8.432   4.643  68.369  1.00  0.00    -0.090 OA 
HETATM   10  C   UNL     1      -9.937   4.568  65.342  1.00  0.00    -0.192 C  
BRANCH   5  11
HETATM   11  N   UNL     1      -8.125   7.077  66.462  1.00  0.00    -0.108 N  
HETATM   12  H   UNL     1      -7.760   7.412  67.353  1.00  0.00     0.000 HD 
BRANCH  11  13
HETATM   13  C   UNL     1      -8.691   7.963  65.591  1.00  0.00    -0.116 C  
HETATM   14  O   UNL     1      -8.124   8.394  64.596  1.00  0.00    -0.142 OA 
BRANCH  13  15
HETATM   15  N   UNL     1      -9.991   8.253  65.913  1.00  0.00    -0.392 N  
HETATM   16  H   UNL     1     -10.692   8.337  65.177  1.00  0.00     0.000 HD 
BRANCH  15  17
HETATM   17  C   UNL     1     -10.364   8.440  67.283  1.00  0.00    -0.299 C  
BRANCH  17  18
HETATM   18  N   UNL     1     -11.142   9.635  67.477  1.00  0.00    -0.421 N  
HETATM   19  H   UNL     1     -12.136   9.645  67.246  1.00  0.00     0.000 HD 
BRANCH  18  20
HETATM   20  C   UNL     1     -10.538  10.759  67.975  1.00  0.00    -0.207 C  
HETATM   21  O   UNL     1     -10.379  10.975  69.169  1.00  0.00    -0.214 OA 
BRANCH  20  22
HETATM   22  N   UNL     1     -10.118  11.614  66.983  1.00  0.00    -0.207 N  
HETATM   23  H   UNL     1      -9.139  11.878  66.878  1.00  0.00     0.000 HD 
BRANCH  22  24
HETATM   24  C   UNL     1     -11.139  12.113  66.102  1.00  0.00    -0.312 C  
HETATM   25  N   UNL     1     -11.201  13.545  65.940  1.00  0.00    -0.299 N  
HETATM   26  O   UNL     1     -10.481  10.710  64.149  1.00  0.00    -0.336 OA 
HETATM   27  C   UNL     1     -11.534  13.887  64.645  1.00  0.00    -0.377 C  
HETATM   28  N   UNL     1     -11.419  12.782  63.866  1.00  0.00    -0.411 NA 
HETATM   29  O   UNL     1     -11.834  14.997  64.240  1.00  0.00    -0.380 OA 
HETATM   30  C   UNL     1     -10.949  11.740  64.611  1.00  0.00    -0.310 C  
BRANCH  25  31
HETATM   31  C   UNL     1     -11.214  14.466  67.032  1.00  0.00    -0.328 C  
HETATM   32  H   UNL     1      -9.957  15.064  68.374  1.00  0.00     0.000 HD 
HETATM   33  O   UNL     1      -9.948  14.451  67.647  1.00  0.00    -0.222 OA 
ENDBRANCH  25  31
ENDBRANCH  22  24
ENDBRANCH  20  22
ENDBRANCH  18  20
ENDBRANCH  17  18
ENDBRANCH  15  17
ENDBRANCH  13  15
ENDBRANCH  11  13
ENDBRANCH   5  11
ENDBRANCH   2   4
TORSDOF 10
ENDMDL
MODEL      302
REMARK 921   NORMALIZED FREE ENERGY PREDICTED BY IDOCK:   -4.13 KCAL/MOL
REMARK 922        TOTAL FREE ENERGY PREDICTED BY IDOCK:   -8.54 KCAL/MOL
REMARK 923 INTER-LIGAND FREE ENERGY PREDICTED BY IDOCK:   -7.11 KCAL/MOL
REMARK 924 INTRA-LIGAND FREE ENERGY PREDICTED BY IDOCK:   -1.43 KCAL/MOL
REMARK 927      BINDING AFFINITY PREDICTED BY RF-SCORE:    0.00 PKD
ROOT
HETATM    1  O   UNL     1     -11.914  10.205  70.270  1.00  0.00    -0.316 OA 
HETATM    2  C   UNL     1     -11.443  11.508  70.516  1.00  0.00     0.181 C  
HETATM    3  H   UNL     1     -11.189   9.663  69.982  1.00  0.00     0.000 HD 
ENDROOT
BRANCH   2   4
HETATM    4  N   UNL     1     -12.536  12.325  70.950  1.00  0.00    -0.304 N  
HETATM    5  C   UNL     1     -12.378  13.760  71.070  1.00  0.00    -0.372 C  
HETATM    6  O   UNL     1     -13.560  10.649  72.194  1.00  0.00    -0.288 OA 
HETATM    7  C   UNL     1     -13.176  13.995  72.373  1.00  0.00    -0.488 C  
HETATM    8  N   UNL     1     -13.862  12.855  72.661  1.00  0.00    -0.514 NA 
HETATM    9  O   UNL     1     -13.266  15.028  73.019  1.00  0.00    -0.450 OA 
HETATM   10  C   UNL     1     -13.371  11.827  71.935  1.00  0.00    -0.296 C  
BRANCH   5  11
HETATM   11  N   UNL     1     -13.016  14.448  69.976  1.00  0.00    -0.462 N  
HETATM   12  H   UNL     1     -14.034  14.506  69.944  1.00  0.00     0.000 HD 
BRANCH  11  13
HETATM   13  C   UNL     1     -12.278  15.024  68.983  1.00  0.00    -0.125 C  
HETATM   14  O   UNL     1     -11.517  15.965  69.161  1.00  0.00    -0.338 OA 
BRANCH  13  15
HETATM   15  N   UNL     1     -12.423  14.377  67.784  1.00  0.00    -0.526 N  
HETATM   16  H   UNL     1     -13.162  13.685  67.663  1.00  0.00     0.000 HD 
BRANCH  15  17
HETATM   17  C   UNL     1     -11.535  14.675  66.699  1.00  0.00    -0.357 C  
BRANCH  17  18
HETATM   18  N   UNL     1     -10.767  13.526  66.295  1.00  0.00    -0.286 N  
HETATM   19  H   UNL     1     -11.114  12.908  65.562  1.00  0.00     0.000 HD 
BRANCH  18  20
HETATM   20  C   UNL     1      -9.566  13.271  66.903  1.00  0.00    -0.249 C  
HETATM   21  O   UNL     1      -9.244  13.726  67.993  1.00  0.00    -0.182 OA 
BRANCH  20  22
HETATM   22  N   UNL     1      -8.767  12.436  66.159  1.00  0.00    -0.408 N  
HETATM   23  H   UNL     1      -7.915  12.767  65.706  1.00  0.00     0.000 HD 
BRANCH  22  24
HETATM   24  C   UNL     1      -9.199  11.069  66.057  1.00  0.00    -0.193 C  
HETATM   25  N   UNL     1      -8.552  10.265  65.048  1.00  0.00    -0.172 N  
HETATM   26  O   UNL     1      -8.824  10.515  68.458  1.00  0.00    -0.130 OA 
HETATM   27  C   UNL     1      -8.372   8.968  65.484  1.00  0.00    -0.133 C  
HETATM   28  N   UNL     1      -8.601   8.928  66.820  1.00  0.00    -0.114 NA 
HETATM   29  O   UNL     1      -8.020   8.016  64.808  1.00  0.00    -0.130 OA 
HETATM   30  C   UNL     1      -8.857  10.186  67.281  1.00  0.00    -0.132 C  
BRANCH  25  31
HETATM   31  C   UNL     1      -8.396  10.675  63.689  1.00  0.00    -0.043 C  
HETATM   32  H   UNL     1      -9.525  11.446  62.321  1.00  0.00     0.000 HD 
HETATM   33  O   UNL     1      -9.629  11.173  63.226  1.00  0.00    -0.280 OA 
ENDBRANCH  25  31
ENDBRANCH  22  24
ENDBRANCH  20  22
ENDBRANCH  18  20
ENDBRANCH  17  18
ENDBRANCH  15  17
ENDBRANCH  13  15
ENDBRANCH  11  13
ENDBRANCH   5  11
ENDBRANCH   2   4
TORSDOF 10
ENDMDL
MODEL      303
REMARK 921   NORMALIZED FREE ENERGY PREDICTED BY IDOCK:   -4.12 KCAL/MOL
REMARK 922        TOTAL FREE ENERGY PREDICTED BY IDOCK:   -8.52 KCAL/MOL
REMARK 923 INTER-LIGAND FREE ENERGY PREDICTED BY IDOCK:   -7.73 KCAL/MOL
REMARK 924 INTRA-LIGAND FREE ENERGY PREDICTED BY IDOCK:   -0.78 KCAL/MOL
REMARK 927      BINDING AFFINITY PREDICTED BY RF-SCORE:    0.00 PKD
ROOT
HETATM    1  O   UNL     1      -7.869   6.372  72.174  1.00  0.00    -0.098 OA 
HETATM    2  C   UNL     1      -8.912   6.281  71.233  1.00  0.00    -0.139 C  
HETATM    3  H   UNL     1      -8.046   5.773  72.889  1.00  0.00     0.000 HD 
ENDROOT
BRANCH   2   4
HETATM    4  N   UNL     1      -8.645   7.185  70.154  1.00  0.00    -0.139 N  
HETATM    5  C   UNL     1      -9.694   8.040  69.636  1.00  0.00    -0.169 C  
HETATM    6  O   UNL     1      -6.929   5.911  69.240  1.00  0.00    -0.060 OA 
HETATM    7  C   UNL     1      -9.374   7.948  68.127  1.00  0.00    -0.142 C  
HETATM    8  N   UNL     1      -8.156   7.359  67.987  1.00  0.00    -0.122 NA 
HETATM    9  O   UNL     1     -10.034   8.382  67.194  1.00  0.00    -0.190 OA 
HETATM   10  C   UNL     1      -7.796   6.764  69.145  1.00  0.00    -0.111 C  
BRANCH   5  11
HETATM   11  N   UNL     1      -9.530   9.399  70.088  1.00  0.00    -0.222 N  
HETATM   12  H   UNL     1      -8.604   9.731  70.357  1.00  0.00     0.000 HD 
BRANCH  11  13
HETATM   13  C   UNL     1     -10.596  10.248  70.159  1.00  0.00    -0.246 C  
HETATM   14  O   UNL     1     -11.501  10.135  70.975  1.00  0.00    -0.354 OA 
BRANCH  13  15
HETATM   15  N   UNL     1     -10.498  11.285  69.270  1.00  0.00    -0.391 N  
HETATM   16  H   UNL     1      -9.752  11.973  69.369  1.00  0.00     0.000 HD 
BRANCH  15  17
HETATM   17  C   UNL     1     -11.444  11.403  68.201  1.00  0.00    -0.305 C  
BRANCH  17  18
HETATM   18  N   UNL     1     -10.814  11.347  66.908  1.00  0.00    -0.272 N  
HETATM   19  H   UNL     1     -10.209  10.563  66.663  1.00  0.00     0.000 HD 
BRANCH  18  20
HETATM   20  C   UNL     1     -11.033  12.357  66.008  1.00  0.00    -0.289 C  
HETATM   21  O   UNL     1     -10.257  12.648  65.108  1.00  0.00    -0.287 OA 
BRANCH  20  22
HETATM   22  N   UNL     1     -12.230  13.000  66.220  1.00  0.00    -0.380 N  
HETATM   23  H   UNL     1     -13.020  12.534  66.667  1.00  0.00     0.000 HD 
BRANCH  22  24
HETATM   24  C   UNL     1     -12.304  14.365  65.775  1.00  0.00    -0.332 C  
HETATM   25  N   UNL     1     -11.226  15.231  66.183  1.00  0.00    -0.280 N  
HETATM   26  O   UNL     1     -12.558  13.819  63.356  1.00  0.00    -0.842 OA 
HETATM   27  C   UNL     1     -10.908  16.135  65.189  1.00  0.00    -0.361 C  
HETATM   28  N   UNL     1     -11.513  15.740  64.041  1.00  0.00    -0.362 NA 
HETATM   29  O   UNL     1     -10.171  17.100  65.293  1.00  0.00    -0.591 OA 
HETATM   30  C   UNL     1     -12.163  14.558  64.246  1.00  0.00    -0.415 C  
BRANCH  25  31
HETATM   31  C   UNL     1     -10.762  15.337  67.530  1.00  0.00    -0.285 C  
HETATM   32  H   UNL     1     -11.568  15.532  69.277  1.00  0.00     0.000 HD 
HETATM   33  O   UNL     1     -11.876  15.462  68.381  1.00  0.00    -0.347 OA 
ENDBRANCH  25  31
ENDBRANCH  22  24
ENDBRANCH  20  22
ENDBRANCH  18  20
ENDBRANCH  17  18
ENDBRANCH  15  17
ENDBRANCH  13  15
ENDBRANCH  11  13
ENDBRANCH   5  11
ENDBRANCH   2   4
TORSDOF 10
ENDMDL
MODEL      304
REMARK 921   NORMALIZED FREE ENERGY PREDICTED BY IDOCK:   -4.11 KCAL/MOL
REMARK 922        TOTAL FREE ENERGY PREDICTED BY IDOCK:   -8.50 KCAL/MOL
REMARK 923 INTER-LIGAND FREE ENERGY PREDICTED BY IDOCK:   -7.09 KCAL/MOL
REMARK 924 INTRA-LIGAND FREE ENERGY PREDICTED BY IDOCK:   -1.42 KCAL/MOL
REMARK 927      BINDING AFFINITY PREDICTED BY RF-SCORE:    0.00 PKD
ROOT
HETATM    1  O   UNL     1      -9.300  20.170  66.168  1.00  0.00    -0.535 OA 
HETATM    2  C   UNL     1      -7.977  20.429  66.569  1.00  0.00    -0.152 C  
HETATM    3  H   UNL     1      -9.722  20.991  65.947  1.00  0.00     0.000 HD 
ENDROOT
BRANCH   2   4
HETATM    4  N   UNL     1      -7.340  19.189  66.902  1.00  0.00    -0.207 N  
HETATM    5  C   UNL     1      -7.709  18.475  68.107  1.00  0.00    -0.284 C  
HETATM    6  O   UNL     1      -5.356  19.674  65.793  1.00  0.00    -0.155 OA 
HETATM    7  C   UNL     1      -6.310  17.999  68.559  1.00  0.00    -0.198 C  
HETATM    8  N   UNL     1      -5.438  18.218  67.538  1.00  0.00    -0.138 NA 
HETATM    9  O   UNL     1      -6.009  17.448  69.607  1.00  0.00    -0.227 OA 
HETATM   10  C   UNL     1      -5.989  19.057  66.634  1.00  0.00    -0.165 C  
BRANCH   5  11
HETATM   11  N   UNL     1      -8.538  17.334  67.804  1.00  0.00    -0.222 N  
HETATM   12  H   UNL     1      -8.126  16.521  67.347  1.00  0.00     0.000 HD 
BRANCH  11  13
HETATM   13  C   UNL     1      -9.866  17.328  68.120  1.00  0.00    -0.290 C  
HETATM   14  O   UNL     1     -10.758  17.538  67.310  1.00  0.00    -0.318 OA 
BRANCH  13  15
HETATM   15  N   UNL     1     -10.089  16.981  69.427  1.00  0.00    -0.196 N  
HETATM   16  H   UNL     1      -9.430  17.267  70.150  1.00  0.00     0.000 HD 
BRANCH  15  17
HETATM   17  C   UNL     1     -11.249  16.216  69.774  1.00  0.00    -0.343 C  
BRANCH  17  18
HETATM   18  N   UNL     1     -10.995  14.799  69.746  1.00  0.00    -0.345 N  
HETATM   19  H   UNL     1     -10.084  14.446  69.453  1.00  0.00     0.000 HD 
BRANCH  18  20
HETATM   20  C   UNL     1     -11.987  13.929  70.114  1.00  0.00    -0.332 C  
HETATM   21  O   UNL     1     -12.460  13.873  71.242  1.00  0.00    -0.344 OA 
BRANCH  20  22
HETATM   22  N   UNL     1     -12.403  13.133  69.073  1.00  0.00    -0.043 N  
HETATM   23  H   UNL     1     -13.376  13.106  68.771  1.00  0.00     0.000 HD 
BRANCH  22  24
HETATM   24  C   UNL     1     -11.386  12.342  68.435  1.00  0.00    -0.292 C  
HETATM   25  N   UNL     1     -11.389  10.931  68.735  1.00  0.00    -0.269 N  
HETATM   26  O   UNL     1     -11.926  13.078  66.116  1.00  0.00    -0.395 OA 
HETATM   27  C   UNL     1     -11.041  10.184  67.628  1.00  0.00    -0.206 C  
HETATM   28  N   UNL     1     -11.083  10.989  66.537  1.00  0.00    -0.177 NA 
HETATM   29  O   UNL     1     -10.785   8.993  67.606  1.00  0.00    -0.248 OA 
HETATM   30  C   UNL     1     -11.521  12.230  66.897  1.00  0.00    -0.356 C  
BRANCH  25  31
HETATM   31  C   UNL     1     -11.447  10.404  70.062  1.00  0.00    -0.308 C  
HETATM   32  H   UNL     1     -12.831  10.031  71.360  1.00  0.00     0.000 HD 
HETATM   33  O   UNL     1     -12.792  10.381  70.477  1.00  0.00    -0.341 OA 
ENDBRANCH  25  31
ENDBRANCH  22  24
ENDBRANCH  20  22
ENDBRANCH  18  20
ENDBRANCH  17  18
ENDBRANCH  15  17
ENDBRANCH  13  15
ENDBRANCH  11  13
ENDBRANCH   5  11
ENDBRANCH   2   4
TORSDOF 10
ENDMDL
MODEL      305
REMARK 921   NORMALIZED FREE ENERGY PREDICTED BY IDOCK:   -4.10 KCAL/MOL
REMARK 922        TOTAL FREE ENERGY PREDICTED BY IDOCK:   -8.49 KCAL/MOL
REMARK 923 INTER-LIGAND FREE ENERGY PREDICTED BY IDOCK:   -7.59 KCAL/MOL
REMARK 924 INTRA-LIGAND FREE ENERGY PREDICTED BY IDOCK:   -0.90 KCAL/MOL
REMARK 927      BINDING AFFINITY PREDICTED BY RF-SCORE:    0.00 PKD
ROOT
HETATM    1  O   UNL     1     -11.712  10.124  69.324  1.00  0.00    -0.468 OA 
HETATM    2  C   UNL     1     -11.231   9.693  70.575  1.00  0.00    -0.297 C  
HETATM    3  H   UNL     1     -12.355  10.810  69.461  1.00  0.00     0.000 HD 
ENDROOT
BRANCH   2   4
HETATM    4  N   UNL     1     -10.262   8.658  70.369  1.00  0.00    -0.188 N  
HETATM    5  C   UNL     1     -10.544   7.556  69.472  1.00  0.00    -0.236 C  
HETATM    6  O   UNL     1      -9.262   8.898  72.454  1.00  0.00    -0.362 OA 
HETATM    7  C   UNL     1      -9.923   6.399  70.288  1.00  0.00    -0.168 C  
HETATM    8  N   UNL     1      -9.190   6.940  71.298  1.00  0.00    -0.157 NA 
HETATM    9  O   UNL     1      -9.990   5.201  70.057  1.00  0.00    -0.210 OA 
HETATM   10  C   UNL     1      -9.511   8.243  71.454  1.00  0.00    -0.175 C  
BRANCH   5  11
HETATM   11  N   UNL     1      -9.839   7.706  68.224  1.00  0.00    -0.161 N  
HETATM   12  H   UNL     1      -8.939   8.185  68.209  1.00  0.00     0.000 HD 
BRANCH  11  13
HETATM   13  C   UNL     1     -10.358   7.215  67.061  1.00  0.00    -0.298 C  
HETATM   14  O   UNL     1     -11.212   6.340  67.014  1.00  0.00    -0.336 OA 
BRANCH  13  15
HETATM   15  N   UNL     1      -9.877   7.869  65.957  1.00  0.00    -0.440 N  
HETATM   16  H   UNL     1      -9.998   7.462  65.030  1.00  0.00     0.000 HD 
BRANCH  15  17
HETATM   17  C   UNL     1      -9.204   9.125  66.107  1.00  0.00    -0.205 C  
BRANCH  17  18
HETATM   18  N   UNL     1     -10.101  10.242  65.974  1.00  0.00    -0.246 N  
HETATM   19  H   UNL     1     -10.983  10.137  65.472  1.00  0.00     0.000 HD 
BRANCH  18  20
HETATM   20  C   UNL     1      -9.762  11.448  66.529  1.00  0.00    -0.200 C  
HETATM   21  O   UNL     1      -9.686  11.647  67.734  1.00  0.00    -0.167 OA 
BRANCH  20  22
HETATM   22  N   UNL     1      -9.502  12.409  65.580  1.00  0.00    -0.439 N  
HETATM   23  H   UNL     1      -9.074  12.180  64.683  1.00  0.00     0.000 HD 
BRANCH  22  24
HETATM   24  C   UNL     1      -9.871  13.756  65.924  1.00  0.00    -0.260 C  
HETATM   25  N   UNL     1     -11.144  13.925  66.579  1.00  0.00    -0.304 N  
HETATM   26  O   UNL     1      -7.788  14.259  67.197  1.00  0.00    -0.170 OA 
HETATM   27  C   UNL     1     -11.088  14.924  67.530  1.00  0.00    -0.317 C  
HETATM   28  N   UNL     1      -9.786  15.236  67.747  1.00  0.00    -0.220 NA 
HETATM   29  O   UNL     1     -12.032  15.419  68.121  1.00  0.00    -0.253 OA 
HETATM   30  C   UNL     1      -8.986  14.413  67.010  1.00  0.00    -0.240 C  
BRANCH  25  31
HETATM   31  C   UNL     1     -12.362  13.350  66.102  1.00  0.00    -0.380 C  
HETATM   32  H   UNL     1     -13.604  13.700  64.662  1.00  0.00     0.000 HD 
HETATM   33  O   UNL     1     -12.794  14.081  64.979  1.00  0.00    -0.695 OA 
ENDBRANCH  25  31
ENDBRANCH  22  24
ENDBRANCH  20  22
ENDBRANCH  18  20
ENDBRANCH  17  18
ENDBRANCH  15  17
ENDBRANCH  13  15
ENDBRANCH  11  13
ENDBRANCH   5  11
ENDBRANCH   2   4
TORSDOF 10
ENDMDL
MODEL      306
REMARK 921   NORMALIZED FREE ENERGY PREDICTED BY IDOCK:   -4.10 KCAL/MOL
REMARK 922        TOTAL FREE ENERGY PREDICTED BY IDOCK:   -8.49 KCAL/MOL
REMARK 923 INTER-LIGAND FREE ENERGY PREDICTED BY IDOCK:   -7.56 KCAL/MOL
REMARK 924 INTRA-LIGAND FREE ENERGY PREDICTED BY IDOCK:   -0.93 KCAL/MOL
REMARK 927      BINDING AFFINITY PREDICTED BY RF-SCORE:    0.00 PKD
ROOT
HETATM    1  O   UNL     1     -10.842  15.817  64.510  1.00  0.00    -0.760 OA 
HETATM    2  C   UNL     1     -10.130  14.769  65.122  1.00  0.00    -0.323 C  
HETATM    3  H   UNL     1     -10.311  16.604  64.530  1.00  0.00     0.000 HD 
ENDROOT
BRANCH   2   4
HETATM    4  N   UNL     1     -10.931  13.582  65.093  1.00  0.00    -0.308 N  
HETATM    5  C   UNL     1     -10.891  12.698  63.945  1.00  0.00    -0.429 C  
HETATM    6  O   UNL     1     -12.582  14.415  66.501  1.00  0.00    -0.301 OA 
HETATM    7  C   UNL     1     -12.392  12.339  63.850  1.00  0.00    -0.509 C  
HETATM    8  N   UNL     1     -13.004  12.771  64.986  1.00  0.00    -0.828 NA 
HETATM    9  O   UNL     1     -12.957  11.712  62.966  1.00  0.00    -0.423 OA 
HETATM   10  C   UNL     1     -12.200  13.638  65.641  1.00  0.00    -0.454 C  
BRANCH   5  11
HETATM   11  N   UNL     1     -10.123  11.511  64.227  1.00  0.00    -0.270 N  
HETATM   12  H   UNL     1      -9.882  10.876  63.467  1.00  0.00     0.000 HD 
BRANCH  11  13
HETATM   13  C   UNL     1      -9.714  11.226  65.498  1.00  0.00    -0.229 C  
HETATM   14  O   UNL     1      -8.659  11.620  65.977  1.00  0.00    -0.120 OA 
BRANCH  13  15
HETATM   15  N   UNL     1     -10.653  10.519  66.202  1.00  0.00    -0.162 N  
HETATM   16  H   UNL     1     -11.168   9.763  65.749  1.00  0.00     0.000 HD 
BRANCH  15  17
HETATM   17  C   UNL     1     -10.912  10.842  67.573  1.00  0.00    -0.293 C  
BRANCH  17  18
HETATM   18  N   UNL     1      -9.855  10.401  68.444  1.00  0.00    -0.157 N  
HETATM   19  H   UNL     1      -8.883  10.627  68.230  1.00  0.00     0.000 HD 
BRANCH  18  20
HETATM   20  C   UNL     1     -10.164   9.675  69.564  1.00  0.00    -0.218 C  
HETATM   21  O   UNL     1     -11.308   9.434  69.926  1.00  0.00    -0.202 OA 
BRANCH  20  22
HETATM   22  N   UNL     1      -9.045   9.234  70.231  1.00  0.00    -0.217 N  
HETATM   23  H   UNL     1      -8.735   9.660  71.104  1.00  0.00     0.000 HD 
BRANCH  22  24
HETATM   24  C   UNL     1      -8.337   8.138  69.627  1.00  0.00    -0.125 C  
HETATM   25  N   UNL     1      -9.137   7.023  69.186  1.00  0.00    -0.137 N  
HETATM   26  O   UNL     1      -7.160   9.522  67.920  1.00  0.00    -0.079 OA 
HETATM   27  C   UNL     1      -8.639   6.481  68.018  1.00  0.00    -0.118 C  
HETATM   28  N   UNL     1      -7.726   7.342  67.502  1.00  0.00    -0.109 NA 
HETATM   29  O   UNL     1      -8.984   5.435  67.497  1.00  0.00    -0.110 OA 
HETATM   30  C   UNL     1      -7.667   8.467  68.270  1.00  0.00    -0.102 C  
BRANCH  25  31
HETATM   31  C   UNL     1     -10.121   6.384  70.000  1.00  0.00    -0.172 C  
HETATM   32  H   UNL     1     -11.987   5.905  69.825  1.00  0.00     0.000 HD 
HETATM   33  O   UNL     1     -11.331   6.330  69.284  1.00  0.00    -0.410 OA 
ENDBRANCH  25  31
ENDBRANCH  22  24
ENDBRANCH  20  22
ENDBRANCH  18  20
ENDBRANCH  17  18
ENDBRANCH  15  17
ENDBRANCH  13  15
ENDBRANCH  11  13
ENDBRANCH   5  11
ENDBRANCH   2   4
TORSDOF 10
ENDMDL
MODEL      307
REMARK 921   NORMALIZED FREE ENERGY PREDICTED BY IDOCK:   -4.09 KCAL/MOL
REMARK 922        TOTAL FREE ENERGY PREDICTED BY IDOCK:   -8.48 KCAL/MOL
REMARK 923 INTER-LIGAND FREE ENERGY PREDICTED BY IDOCK:   -8.23 KCAL/MOL
REMARK 924 INTRA-LIGAND FREE ENERGY PREDICTED BY IDOCK:   -0.25 KCAL/MOL
REMARK 927      BINDING AFFINITY PREDICTED BY RF-SCORE:    0.00 PKD
ROOT
HETATM    1  O   UNL     1      -7.792  14.633  69.721  1.00  0.00    -0.399 OA 
HETATM    2  C   UNL     1      -8.617  15.063  68.665  1.00  0.00    -0.174 C  
HETATM    3  H   UNL     1      -7.566  13.721  69.584  1.00  0.00     0.000 HD 
ENDROOT
BRANCH   2   4
HETATM    4  N   UNL     1      -8.959  16.438  68.872  1.00  0.00    -0.251 N  
HETATM    5  C   UNL     1     -10.320  16.894  68.677  1.00  0.00    -0.332 C  
HETATM    6  O   UNL     1      -6.840  17.252  68.371  1.00  0.00    -0.177 OA 
HETATM    7  C   UNL     1     -10.038  18.252  67.995  1.00  0.00    -0.364 C  
HETATM    8  N   UNL     1      -8.710  18.522  68.121  1.00  0.00    -0.301 NA 
HETATM    9  O   UNL     1     -10.845  19.017  67.488  1.00  0.00    -0.463 OA 
HETATM   10  C   UNL     1      -8.046  17.403  68.483  1.00  0.00    -0.270 C  
BRANCH   5  11
HETATM   11  N   UNL     1     -10.983  17.111  69.939  1.00  0.00    -0.236 N  
HETATM   12  H   UNL     1     -10.987  18.043  70.351  1.00  0.00     0.000 HD 
BRANCH  11  13
HETATM   13  C   UNL     1     -11.605  16.085  70.589  1.00  0.00    -0.383 C  
HETATM   14  O   UNL     1     -11.478  15.863  71.786  1.00  0.00    -0.407 OA 
BRANCH  13  15
HETATM   15  N   UNL     1     -12.449  15.383  69.770  1.00  0.00    -0.591 N  
HETATM   16  H   UNL     1     -13.092  15.879  69.153  1.00  0.00     0.000 HD 
BRANCH  15  17
HETATM   17  C   UNL     1     -12.428  13.950  69.780  1.00  0.00    -0.188 C  
BRANCH  17  18
HETATM   18  N   UNL     1     -12.042  13.403  68.506  1.00  0.00    -0.318 N  
HETATM   19  H   UNL     1     -12.122  13.965  67.658  1.00  0.00     0.000 HD 
BRANCH  18  20
HETATM   20  C   UNL     1     -11.564  12.120  68.441  1.00  0.00    -0.327 C  
HETATM   21  O   UNL     1     -12.114  11.219  67.822  1.00  0.00    -0.631 OA 
BRANCH  20  22
HETATM   22  N   UNL     1     -10.391  11.959  69.139  1.00  0.00    -0.420 N  
HETATM   23  H   UNL     1      -9.923  12.743  69.594  1.00  0.00     0.000 HD 
BRANCH  22  24
HETATM   24  C   UNL     1      -9.861  10.624  69.192  1.00  0.00    -0.200 C  
HETATM   25  N   UNL     1     -10.648   9.650  69.908  1.00  0.00    -0.231 N  
HETATM   26  O   UNL     1      -9.592  10.373  66.726  1.00  0.00    -0.163 OA 
HETATM   27  C   UNL     1     -10.588   8.413  69.297  1.00  0.00    -0.182 C  
HETATM   28  N   UNL     1     -10.043   8.569  68.065  1.00  0.00    -0.191 NA 
HETATM   29  O   UNL     1     -10.995   7.358  69.751  1.00  0.00    -0.247 OA 
HETATM   30  C   UNL     1      -9.810   9.892  67.828  1.00  0.00    -0.155 C  
BRANCH  25  31
HETATM   31  C   UNL     1     -11.165   9.862  71.222  1.00  0.00    -0.286 C  
HETATM   32  H   UNL     1     -12.649  10.825  72.003  1.00  0.00     0.000 HD 
HETATM   33  O   UNL     1     -12.304  10.684  71.129  1.00  0.00    -0.346 OA 
ENDBRANCH  25  31
ENDBRANCH  22  24
ENDBRANCH  20  22
ENDBRANCH  18  20
ENDBRANCH  17  18
ENDBRANCH  15  17
ENDBRANCH  13  15
ENDBRANCH  11  13
ENDBRANCH   5  11
ENDBRANCH   2   4
TORSDOF 10
ENDMDL
MODEL      308
REMARK 921   NORMALIZED FREE ENERGY PREDICTED BY IDOCK:   -4.09 KCAL/MOL
REMARK 922        TOTAL FREE ENERGY PREDICTED BY IDOCK:   -8.47 KCAL/MOL
REMARK 923 INTER-LIGAND FREE ENERGY PREDICTED BY IDOCK:   -6.50 KCAL/MOL
REMARK 924 INTRA-LIGAND FREE ENERGY PREDICTED BY IDOCK:   -1.98 KCAL/MOL
REMARK 927      BINDING AFFINITY PREDICTED BY RF-SCORE:    0.00 PKD
ROOT
HETATM    1  O   UNL     1     -11.260  13.775  70.151  1.00  0.00    -0.481 OA 
HETATM    2  C   UNL     1     -11.919  12.626  69.677  1.00  0.00    -0.286 C  
HETATM    3  H   UNL     1     -11.195  14.407  69.445  1.00  0.00     0.000 HD 
ENDROOT
BRANCH   2   4
HETATM    4  N   UNL     1     -12.016  11.672  70.741  1.00  0.00    -0.278 N  
HETATM    5  C   UNL     1     -11.767  10.266  70.492  1.00  0.00    -0.331 C  
HETATM    6  O   UNL     1     -13.555  12.900  71.976  1.00  0.00    -0.478 OA 
HETATM    7  C   UNL     1     -12.879   9.652  71.373  1.00  0.00    -0.379 C  
HETATM    8  N   UNL     1     -13.391  10.639  72.157  1.00  0.00    -0.365 NA 
HETATM    9  O   UNL     1     -13.218   8.480  71.441  1.00  0.00    -0.299 OA 
HETATM   10  C   UNL     1     -13.013  11.846  71.685  1.00  0.00    -0.342 C  
BRANCH   5  11
HETATM   11  N   UNL     1     -10.474   9.869  70.992  1.00  0.00    -0.313 N  
HETATM   12  H   UNL     1     -10.286   9.916  71.993  1.00  0.00     0.000 HD 
BRANCH  11  13
HETATM   13  C   UNL     1      -9.499   9.431  70.143  1.00  0.00    -0.240 C  
HETATM   14  O   UNL     1      -8.702  10.172  69.584  1.00  0.00    -0.186 OA 
BRANCH  13  15
HETATM   15  N   UNL     1      -9.462   8.065  70.052  1.00  0.00    -0.160 N  
HETATM   16  H   UNL     1     -10.167   7.571  69.506  1.00  0.00     0.000 HD 
BRANCH  15  17
HETATM   17  C   UNL     1      -8.432   7.331  70.726  1.00  0.00    -0.132 C  
BRANCH  17  18
HETATM   18  N   UNL     1      -8.682   5.914  70.720  1.00  0.00    -0.133 N  
HETATM   19  H   UNL     1      -7.904   5.254  70.706  1.00  0.00     0.000 HD 
BRANCH  18  20
HETATM   20  C   UNL     1      -9.974   5.458  70.734  1.00  0.00    -0.204 C  
HETATM   21  O   UNL     1     -10.826   5.848  71.521  1.00  0.00    -0.250 OA 
BRANCH  20  22
HETATM   22  N   UNL     1     -10.212   4.521  69.755  1.00  0.00    -0.111 N  
HETATM   23  H   UNL     1     -10.712   3.654  69.950  1.00  0.00     0.000 HD 
BRANCH  22  24
HETATM   24  C   UNL     1      -9.716   4.835  68.443  1.00  0.00    -0.146 C  
HETATM   25  N   UNL     1      -9.640   3.740  67.508  1.00  0.00    -0.186 N  
HETATM   26  O   UNL     1     -11.334   6.679  68.006  1.00  0.00    -0.186 OA 
HETATM   27  C   UNL     1      -9.955   4.152  66.229  1.00  0.00    -0.166 C  
HETATM   28  N   UNL     1     -10.511   5.388  66.302  1.00  0.00    -0.240 NA 
HETATM   29  O   UNL     1      -9.813   3.511  65.202  1.00  0.00    -0.157 OA 
HETATM   30  C   UNL     1     -10.631   5.763  67.608  1.00  0.00    -0.239 C  
BRANCH  25  31
HETATM   31  C   UNL     1      -9.034   2.482  67.809  1.00  0.00    -0.155 C  
HETATM   32  H   UNL     1      -7.620   1.851  68.967  1.00  0.00     0.000 HD 
HETATM   33  O   UNL     1      -8.024   2.688  68.767  1.00  0.00    -0.053 OA 
ENDBRANCH  25  31
ENDBRANCH  22  24
ENDBRANCH  20  22
ENDBRANCH  18  20
ENDBRANCH  17  18
ENDBRANCH  15  17
ENDBRANCH  13  15
ENDBRANCH  11  13
ENDBRANCH   5  11
ENDBRANCH   2   4
TORSDOF 10
ENDMDL
MODEL      309
REMARK 921   NORMALIZED FREE ENERGY PREDICTED BY IDOCK:   -4.09 KCAL/MOL
REMARK 922        TOTAL FREE ENERGY PREDICTED BY IDOCK:   -8.47 KCAL/MOL
REMARK 923 INTER-LIGAND FREE ENERGY PREDICTED BY IDOCK:   -7.60 KCAL/MOL
REMARK 924 INTRA-LIGAND FREE ENERGY PREDICTED BY IDOCK:   -0.87 KCAL/MOL
REMARK 927      BINDING AFFINITY PREDICTED BY RF-SCORE:    0.00 PKD
ROOT
HETATM    1  O   UNL     1      -9.111  20.075  69.256  1.00  0.00     0.025 OA 
HETATM    2  C   UNL     1      -7.887  19.513  68.848  1.00  0.00    -0.314 C  
HETATM    3  H   UNL     1      -8.965  20.975  69.520  1.00  0.00     0.000 HD 
ENDROOT
BRANCH   2   4
HETATM    4  N   UNL     1      -8.107  18.155  68.449  1.00  0.00    -0.296 N  
HETATM    5  C   UNL     1      -9.451  17.669  68.208  1.00  0.00    -0.295 C  
HETATM    6  O   UNL     1      -6.195  17.328  69.480  1.00  0.00    -0.236 OA 
HETATM    7  C   UNL     1      -9.330  16.264  68.840  1.00  0.00    -0.248 C  
HETATM    8  N   UNL     1      -8.013  16.021  69.083  1.00  0.00    -0.231 NA 
HETATM    9  O   UNL     1     -10.221  15.451  69.033  1.00  0.00    -0.212 OA 
HETATM   10  C   UNL     1      -7.312  17.173  69.013  1.00  0.00    -0.217 C  
BRANCH   5  11
HETATM   11  N   UNL     1      -9.715  17.548  66.796  1.00  0.00    -0.282 N  
HETATM   12  H   UNL     1     -10.544  17.990  66.400  1.00  0.00     0.000 HD 
BRANCH  11  13
HETATM   13  C   UNL     1      -8.871  16.850  65.982  1.00  0.00    -0.159 C  
HETATM   14  O   UNL     1      -7.725  17.199  65.731  1.00  0.00    -0.421 OA 
BRANCH  13  15
HETATM   15  N   UNL     1      -9.422  15.675  65.543  1.00  0.00    -0.228 N  
HETATM   16  H   UNL     1      -8.820  14.890  65.296  1.00  0.00     0.000 HD 
BRANCH  15  17
HETATM   17  C   UNL     1     -10.845  15.550  65.431  1.00  0.00    -0.390 C  
BRANCH  17  18
HETATM   18  N   UNL     1     -11.229  14.492  64.535  1.00  0.00    -0.587 N  
HETATM   19  H   UNL     1     -11.151  14.618  63.526  1.00  0.00     0.000 HD 
BRANCH  18  20
HETATM   20  C   UNL     1     -11.700  13.312  65.049  1.00  0.00    -0.333 C  
HETATM   21  O   UNL     1     -12.817  12.867  64.820  1.00  0.00    -0.706 OA 
BRANCH  20  22
HETATM   22  N   UNL     1     -10.774  12.676  65.842  1.00  0.00    -0.262 N  
HETATM   23  H   UNL     1      -9.843  13.063  65.999  1.00  0.00     0.000 HD 
BRANCH  22  24
HETATM   24  C   UNL     1     -11.192  11.436  66.436  1.00  0.00    -0.183 C  
HETATM   25  N   UNL     1     -10.209  10.382  66.478  1.00  0.00    -0.226 N  
HETATM   26  O   UNL     1     -11.969  12.442  68.579  1.00  0.00    -0.318 OA 
HETATM   27  C   UNL     1     -10.318   9.643  67.640  1.00  0.00    -0.237 C  
HETATM   28  N   UNL     1     -11.125  10.314  68.500  1.00  0.00    -0.253 NA 
HETATM   29  O   UNL     1      -9.755   8.591  67.888  1.00  0.00    -0.152 OA 
HETATM   30  C   UNL     1     -11.488  11.510  67.953  1.00  0.00    -0.301 C  
BRANCH  25  31
HETATM   31  C   UNL     1      -9.435   9.974  65.349  1.00  0.00    -0.250 C  
HETATM   32  H   UNL     1      -9.645  10.000  63.427  1.00  0.00     0.000 HD 
HETATM   33  O   UNL     1     -10.159  10.271  64.179  1.00  0.00    -0.287 OA 
ENDBRANCH  25  31
ENDBRANCH  22  24
ENDBRANCH  20  22
ENDBRANCH  18  20
ENDBRANCH  17  18
ENDBRANCH  15  17
ENDBRANCH  13  15
ENDBRANCH  11  13
ENDBRANCH   5  11
ENDBRANCH   2   4
TORSDOF 10
ENDMDL
MODEL      310
REMARK 921   NORMALIZED FREE ENERGY PREDICTED BY IDOCK:   -4.08 KCAL/MOL
REMARK 922        TOTAL FREE ENERGY PREDICTED BY IDOCK:   -8.46 KCAL/MOL
REMARK 923 INTER-LIGAND FREE ENERGY PREDICTED BY IDOCK:   -6.56 KCAL/MOL
REMARK 924 INTRA-LIGAND FREE ENERGY PREDICTED BY IDOCK:   -1.91 KCAL/MOL
REMARK 927      BINDING AFFINITY PREDICTED BY RF-SCORE:    0.00 PKD
ROOT
HETATM    1  O   UNL     1      -7.472   9.093  65.471  1.00  0.00    -0.088 OA 
HETATM    2  C   UNL     1      -8.785   9.571  65.634  1.00  0.00    -0.149 C  
HETATM    3  H   UNL     1      -7.369   8.295  65.977  1.00  0.00     0.000 HD 
ENDROOT
BRANCH   2   4
HETATM    4  N   UNL     1      -8.941  10.774  64.872  1.00  0.00    -0.194 N  
HETATM    5  C   UNL     1      -9.937  11.757  65.247  1.00  0.00    -0.253 C  
HETATM    6  O   UNL     1      -8.173   9.853  62.880  1.00  0.00    -0.134 OA 
HETATM    7  C   UNL     1     -10.440  12.157  63.841  1.00  0.00    -0.409 C  
HETATM    8  N   UNL     1      -9.584  11.637  62.921  1.00  0.00    -0.326 NA 
HETATM    9  O   UNL     1     -11.390  12.874  63.562  1.00  0.00    -0.443 OA 
HETATM   10  C   UNL     1      -8.804  10.697  63.497  1.00  0.00    -0.184 C  
BRANCH   5  11
HETATM   11  N   UNL     1      -9.329  12.896  65.889  1.00  0.00    -0.462 N  
HETATM   12  H   UNL     1      -8.644  13.454  65.380  1.00  0.00     0.000 HD 
BRANCH  11  13
HETATM   13  C   UNL     1      -9.658  13.237  67.169  1.00  0.00    -0.240 C  
HETATM   14  O   UNL     1      -9.191  14.205  67.755  1.00  0.00    -0.181 OA 
BRANCH  13  15
HETATM   15  N   UNL     1     -10.627  12.424  67.693  1.00  0.00    -0.213 N  
HETATM   16  H   UNL     1     -10.607  11.421  67.509  1.00  0.00     0.000 HD 
BRANCH  15  17
HETATM   17  C   UNL     1     -11.670  12.983  68.501  1.00  0.00    -0.342 C  
BRANCH  17  18
HETATM   18  N   UNL     1     -12.330  11.986  69.303  1.00  0.00    -0.043 N  
HETATM   19  H   UNL     1     -12.604  11.094  68.892  1.00  0.00     0.000 HD 
BRANCH  18  20
HETATM   20  C   UNL     1     -12.587  12.247  70.623  1.00  0.00    -0.156 C  
HETATM   21  O   UNL     1     -13.233  13.210  71.015  1.00  0.00    -0.115 OA 
BRANCH  20  22
HETATM   22  N   UNL     1     -12.050  11.298  71.461  1.00  0.00    -0.002 N  
HETATM   23  H   UNL     1     -11.547  11.552  72.311  1.00  0.00     0.000 HD 
BRANCH  22  24
HETATM   24  C   UNL     1     -12.239   9.927  71.071  1.00  0.00    -0.353 C  
HETATM   25  N   UNL     1     -11.107   9.050  71.244  1.00  0.00    -0.284 N  
HETATM   26  O   UNL     1     -14.272   9.556  72.463  1.00  0.00    -0.318 OA 
HETATM   27  C   UNL     1     -11.509   7.788  71.636  1.00  0.00    -0.261 C  
HETATM   28  N   UNL     1     -12.812   7.850  72.008  1.00  0.00    -0.292 NA 
HETATM   29  O   UNL     1     -10.814   6.789  71.691  1.00  0.00    -0.224 OA 
HETATM   30  C   UNL     1     -13.252   9.139  71.936  1.00  0.00    -0.416 C  
BRANCH  25  31
HETATM   31  C   UNL     1      -9.790   9.356  70.784  1.00  0.00    -0.279 C  
HETATM   32  H   UNL     1      -9.005  10.556  69.488  1.00  0.00     0.000 HD 
HETATM   33  O   UNL     1      -9.881  10.352  69.794  1.00  0.00    -0.198 OA 
ENDBRANCH  25  31
ENDBRANCH  22  24
ENDBRANCH  20  22
ENDBRANCH  18  20
ENDBRANCH  17  18
ENDBRANCH  15  17
ENDBRANCH  13  15
ENDBRANCH  11  13
ENDBRANCH   5  11
ENDBRANCH   2   4
TORSDOF 10
ENDMDL
MODEL      311
REMARK 921   NORMALIZED FREE ENERGY PREDICTED BY IDOCK:   -4.08 KCAL/MOL
REMARK 922        TOTAL FREE ENERGY PREDICTED BY IDOCK:   -8.46 KCAL/MOL
REMARK 923 INTER-LIGAND FREE ENERGY PREDICTED BY IDOCK:   -7.40 KCAL/MOL
REMARK 924 INTRA-LIGAND FREE ENERGY PREDICTED BY IDOCK:   -1.06 KCAL/MOL
REMARK 927      BINDING AFFINITY PREDICTED BY RF-SCORE:    0.00 PKD
ROOT
HETATM    1  O   UNL     1     -10.594  15.797  70.394  1.00  0.00    -0.313 OA 
HETATM    2  C   UNL     1     -11.619  15.783  69.429  1.00  0.00    -0.365 C  
HETATM    3  H   UNL     1     -10.918  15.399  71.193  1.00  0.00     0.000 HD 
ENDROOT
BRANCH   2   4
HETATM    4  N   UNL     1     -11.131  16.384  68.223  1.00  0.00    -0.352 N  
HETATM    5  C   UNL     1     -10.753  15.559  67.094  1.00  0.00    -0.315 C  
HETATM    6  O   UNL     1     -10.275  18.275  69.269  1.00  0.00    -0.275 OA 
HETATM    7  C   UNL     1      -9.492  16.325  66.632  1.00  0.00    -0.248 C  
HETATM    8  N   UNL     1      -9.457  17.517  67.287  1.00  0.00    -0.249 NA 
HETATM    9  O   UNL     1      -8.684  15.990  65.778  1.00  0.00    -0.269 OA 
HETATM   10  C   UNL     1     -10.312  17.493  68.332  1.00  0.00    -0.378 C  
BRANCH   5  11
HETATM   11  N   UNL     1     -11.755  15.601  66.058  1.00  0.00     0.303 N  
HETATM   12  H   UNL     1     -12.742  15.578  66.312  1.00  0.00     0.000 HD 
BRANCH  11  13
HETATM   13  C   UNL     1     -11.400  15.672  64.742  1.00  0.00    -0.343 C  
HETATM   14  O   UNL     1     -11.193  16.723  64.150  1.00  0.00    -1.155 OA 
BRANCH  13  15
HETATM   15  N   UNL     1     -11.225  14.435  64.181  1.00  0.00    -0.579 N  
HETATM   16  H   UNL     1     -10.333  14.192  63.750  1.00  0.00     0.000 HD 
BRANCH  15  17
HETATM   17  C   UNL     1     -12.295  13.482  64.201  1.00  0.00    -0.328 C  
BRANCH  17  18
HETATM   18  N   UNL     1     -11.816  12.128  64.296  1.00  0.00    -0.377 N  
HETATM   19  H   UNL     1     -12.079  11.439  63.592  1.00  0.00     0.000 HD 
BRANCH  18  20
HETATM   20  C   UNL     1     -11.003  11.773  65.341  1.00  0.00    -0.297 C  
HETATM   21  O   UNL     1     -10.655  12.544  66.225  1.00  0.00    -0.243 OA 
BRANCH  20  22
HETATM   22  N   UNL     1     -10.632  10.450  65.292  1.00  0.00    -0.110 N  
HETATM   23  H   UNL     1     -11.264   9.702  65.577  1.00  0.00     0.000 HD 
BRANCH  22  24
HETATM   24  C   UNL     1      -9.302  10.182  64.817  1.00  0.00    -0.268 C  
HETATM   25  N   UNL     1      -8.723   8.921  65.210  1.00  0.00    -0.183 N  
HETATM   26  O   UNL     1      -9.822  10.566  62.410  1.00  0.00    -0.154 OA 
HETATM   27  C   UNL     1      -7.951   8.388  64.198  1.00  0.00    -0.151 C  
HETATM   28  N   UNL     1      -8.208   9.075  63.056  1.00  0.00    -0.174 NA 
HETATM   29  O   UNL     1      -7.198   7.433  64.283  1.00  0.00    -0.069 OA 
HETATM   30  C   UNL     1      -9.185   9.999  63.284  1.00  0.00    -0.284 C  
BRANCH  25  31
HETATM   31  C   UNL     1      -8.706   8.443  66.556  1.00  0.00    -0.134 C  
HETATM   32  H   UNL     1      -7.544   8.624  68.091  1.00  0.00     0.000 HD 
HETATM   33  O   UNL     1      -7.556   8.942  67.196  1.00  0.00    -0.090 OA 
ENDBRANCH  25  31
ENDBRANCH  22  24
ENDBRANCH  20  22
ENDBRANCH  18  20
ENDBRANCH  17  18
ENDBRANCH  15  17
ENDBRANCH  13  15
ENDBRANCH  11  13
ENDBRANCH   5  11
ENDBRANCH   2   4
TORSDOF 10
ENDMDL
MODEL      312
REMARK 921   NORMALIZED FREE ENERGY PREDICTED BY IDOCK:   -4.08 KCAL/MOL
REMARK 922        TOTAL FREE ENERGY PREDICTED BY IDOCK:   -8.46 KCAL/MOL
REMARK 923 INTER-LIGAND FREE ENERGY PREDICTED BY IDOCK:   -6.75 KCAL/MOL
REMARK 924 INTRA-LIGAND FREE ENERGY PREDICTED BY IDOCK:   -1.71 KCAL/MOL
REMARK 927      BINDING AFFINITY PREDICTED BY RF-SCORE:    0.00 PKD
ROOT
HETATM    1  O   UNL     1     -10.588   8.251  66.707  1.00  0.00    -0.306 OA 
HETATM    2  C   UNL     1      -9.839   8.078  67.886  1.00  0.00    -0.167 C  
HETATM    3  H   UNL     1     -10.140   8.871  66.145  1.00  0.00     0.000 HD 
ENDROOT
BRANCH   2   4
HETATM    4  N   UNL     1     -10.516   7.143  68.734  1.00  0.00    -0.199 N  
HETATM    5  C   UNL     1     -10.710   7.433  70.140  1.00  0.00    -0.242 C  
HETATM    6  O   UNL     1      -9.930   5.273  67.483  1.00  0.00    -0.149 OA 
HETATM    7  C   UNL     1     -10.441   6.030  70.729  1.00  0.00    -0.239 C  
HETATM    8  N   UNL     1     -10.411   5.138  69.702  1.00  0.00    -0.257 NA 
HETATM    9  O   UNL     1     -10.342   5.719  71.907  1.00  0.00    -0.201 OA 
HETATM   10  C   UNL     1     -10.290   5.793  68.527  1.00  0.00    -0.215 C  
BRANCH   5  11
HETATM   11  N   UNL     1     -12.072   7.822  70.409  1.00  0.00    -0.475 N  
HETATM   12  H   UNL     1     -12.837   7.293  69.992  1.00  0.00     0.000 HD 
BRANCH  11  13
HETATM   13  C   UNL     1     -12.351   8.888  71.214  1.00  0.00    -0.291 C  
HETATM   14  O   UNL     1     -12.055   8.940  72.400  1.00  0.00    -0.349 OA 
BRANCH  13  15
HETATM   15  N   UNL     1     -12.928   9.924  70.527  1.00  0.00    -0.572 N  
HETATM   16  H   UNL     1     -13.609   9.733  69.793  1.00  0.00     0.000 HD 
BRANCH  15  17
HETATM   17  C   UNL     1     -12.571  11.276  70.840  1.00  0.00    -0.371 C  
BRANCH  17  18
HETATM   18  N   UNL     1     -11.474  11.749  70.037  1.00  0.00    -0.497 N  
HETATM   19  H   UNL     1     -10.623  11.193  69.949  1.00  0.00     0.000 HD 
BRANCH  18  20
HETATM   20  C   UNL     1     -11.583  12.952  69.391  1.00  0.00    -0.302 C  
HETATM   21  O   UNL     1     -12.343  13.846  69.738  1.00  0.00    -0.329 OA 
BRANCH  20  22
HETATM   22  N   UNL     1     -10.732  13.050  68.315  1.00  0.00    -0.237 N  
HETATM   23  H   UNL     1     -11.074  13.039  67.354  1.00  0.00     0.000 HD 
BRANCH  22  24
HETATM   24  C   UNL     1      -9.333  13.170  68.621  1.00  0.00     0.012 C  
HETATM   25  N   UNL     1      -8.416  12.596  67.667  1.00  0.00    -0.161 N  
HETATM   26  O   UNL     1      -9.361  15.643  68.923  1.00  0.00    -0.194 OA 
HETATM   27  C   UNL     1      -7.275  13.364  67.547  1.00  0.00    -0.153 C  
HETATM   28  N   UNL     1      -7.497  14.559  68.148  1.00  0.00    -0.114 NA 
HETATM   29  O   UNL     1      -6.251  13.057  66.962  1.00  0.00    -0.220 OA 
HETATM   30  C   UNL     1      -8.784  14.617  68.597  1.00  0.00    -0.174 C  
BRANCH  25  31
HETATM   31  C   UNL     1      -8.538  11.270  67.150  1.00  0.00    -0.147 C  
HETATM   32  H   UNL     1      -9.721  10.348  65.928  1.00  0.00     0.000 HD 
HETATM   33  O   UNL     1      -9.638  11.230  66.273  1.00  0.00    -0.197 OA 
ENDBRANCH  25  31
ENDBRANCH  22  24
ENDBRANCH  20  22
ENDBRANCH  18  20
ENDBRANCH  17  18
ENDBRANCH  15  17
ENDBRANCH  13  15
ENDBRANCH  11  13
ENDBRANCH   5  11
ENDBRANCH   2   4
TORSDOF 10
ENDMDL
MODEL      313
REMARK 921   NORMALIZED FREE ENERGY PREDICTED BY IDOCK:   -4.08 KCAL/MOL
REMARK 922        TOTAL FREE ENERGY PREDICTED BY IDOCK:   -8.46 KCAL/MOL
REMARK 923 INTER-LIGAND FREE ENERGY PREDICTED BY IDOCK:   -6.40 KCAL/MOL
REMARK 924 INTRA-LIGAND FREE ENERGY PREDICTED BY IDOCK:   -2.06 KCAL/MOL
REMARK 927      BINDING AFFINITY PREDICTED BY RF-SCORE:    0.00 PKD
ROOT
HETATM    1  O   UNL     1     -10.927   9.413  69.006  1.00  0.00    -0.375 OA 
HETATM    2  C   UNL     1     -10.685   8.932  70.307  1.00  0.00    -0.221 C  
HETATM    3  H   UNL     1     -11.647  10.031  69.035  1.00  0.00     0.000 HD 
ENDROOT
BRANCH   2   4
HETATM    4  N   UNL     1      -9.599   7.999  70.264  1.00  0.00    -0.171 N  
HETATM    5  C   UNL     1      -9.592   6.924  69.292  1.00  0.00    -0.149 C  
HETATM    6  O   UNL     1      -9.054   8.217  72.513  1.00  0.00    -0.206 OA 
HETATM    7  C   UNL     1      -9.033   5.786  70.177  1.00  0.00    -0.140 C  
HETATM    8  N   UNL     1      -8.568   6.336  71.331  1.00  0.00    -0.131 NA 
HETATM    9  O   UNL     1      -8.937   4.601  69.898  1.00  0.00    -0.090 OA 
HETATM   10  C   UNL     1      -9.038   7.596  71.463  1.00  0.00    -0.132 C  
BRANCH   5  11
HETATM   11  N   UNL     1      -8.674   7.201  68.216  1.00  0.00    -0.128 N  
HETATM   12  H   UNL     1      -7.697   7.400  68.427  1.00  0.00     0.000 HD 
BRANCH  11  13
HETATM   13  C   UNL     1      -9.095   7.199  66.917  1.00  0.00    -0.141 C  
HETATM   14  O   UNL     1      -9.374   6.183  66.295  1.00  0.00    -0.157 OA 
BRANCH  13  15
HETATM   15  N   UNL     1      -9.246   8.465  66.416  1.00  0.00    -0.187 N  
HETATM   16  H   UNL     1      -9.980   8.660  65.735  1.00  0.00     0.000 HD 
BRANCH  15  17
HETATM   17  C   UNL     1      -8.372   9.514  66.849  1.00  0.00    -0.116 C  
BRANCH  17  18
HETATM   18  N   UNL     1      -9.016  10.801  66.828  1.00  0.00    -0.146 N  
HETATM   19  H   UNL     1      -8.663  11.563  67.408  1.00  0.00     0.000 HD 
BRANCH  18  20
HETATM   20  C   UNL     1     -10.108  10.995  66.023  1.00  0.00    -0.247 C  
HETATM   21  O   UNL     1     -10.050  11.071  64.803  1.00  0.00    -0.262 OA 
BRANCH  20  22
HETATM   22  N   UNL     1     -11.279  11.082  66.737  1.00  0.00    -0.181 N  
HETATM   23  H   UNL     1     -11.688  10.273  67.204  1.00  0.00     0.000 HD 
BRANCH  22  24
HETATM   24  C   UNL     1     -11.896  12.380  66.789  1.00  0.00    -0.315 C  
HETATM   25  N   UNL     1     -11.021  13.495  67.058  1.00  0.00    -0.285 N  
HETATM   26  O   UNL     1     -12.986  12.220  64.554  1.00  0.00    -0.738 OA 
HETATM   27  C   UNL     1     -11.405  14.614  66.346  1.00  0.00    -0.348 C  
HETATM   28  N   UNL     1     -12.307  14.235  65.406  1.00  0.00    -0.424 NA 
HETATM   29  O   UNL     1     -10.981  15.747  66.489  1.00  0.00    -0.278 OA 
HETATM   30  C   UNL     1     -12.468  12.881  65.441  1.00  0.00    -0.454 C  
BRANCH  25  31
HETATM   31  C   UNL     1     -10.080  13.522  68.132  1.00  0.00    -0.250 C  
HETATM   32  H   UNL     1      -9.806  12.543  69.777  1.00  0.00     0.000 HD 
HETATM   33  O   UNL     1     -10.431  12.526  69.062  1.00  0.00    -0.130 OA 
ENDBRANCH  25  31
ENDBRANCH  22  24
ENDBRANCH  20  22
ENDBRANCH  18  20
ENDBRANCH  17  18
ENDBRANCH  15  17
ENDBRANCH  13  15
ENDBRANCH  11  13
ENDBRANCH   5  11
ENDBRANCH   2   4
TORSDOF 10
ENDMDL
MODEL      314
REMARK 921   NORMALIZED FREE ENERGY PREDICTED BY IDOCK:   -4.07 KCAL/MOL
REMARK 922        TOTAL FREE ENERGY PREDICTED BY IDOCK:   -8.45 KCAL/MOL
REMARK 923 INTER-LIGAND FREE ENERGY PREDICTED BY IDOCK:   -7.18 KCAL/MOL
REMARK 924 INTRA-LIGAND FREE ENERGY PREDICTED BY IDOCK:   -1.27 KCAL/MOL
REMARK 927      BINDING AFFINITY PREDICTED BY RF-SCORE:    0.00 PKD
ROOT
HETATM    1  O   UNL     1      -8.243   4.801  69.261  1.00  0.00    -0.076 OA 
HETATM    2  C   UNL     1      -8.059   5.888  68.386  1.00  0.00    -0.109 C  
HETATM    3  H   UNL     1      -7.593   4.137  69.068  1.00  0.00     0.000 HD 
ENDROOT
BRANCH   2   4
HETATM    4  N   UNL     1      -9.040   6.891  68.676  1.00  0.00    -0.132 N  
HETATM    5  C   UNL     1      -8.633   8.210  69.116  1.00  0.00    -0.136 C  
HETATM    6  O   UNL     1     -10.710   5.381  69.256  1.00  0.00    -0.248 OA 
HETATM    7  C   UNL     1      -9.717   8.466  70.188  1.00  0.00    -0.173 C  
HETATM    8  N   UNL     1     -10.676   7.510  70.057  1.00  0.00    -0.238 NA 
HETATM    9  O   UNL     1      -9.781   9.394  70.981  1.00  0.00    -0.275 OA 
HETATM   10  C   UNL     1     -10.214   6.496  69.293  1.00  0.00    -0.187 C  
BRANCH   5  11
HETATM   11  N   UNL     1      -8.761   9.176  68.053  1.00  0.00    -0.129 N  
HETATM   12  H   UNL     1      -7.923   9.569  67.627  1.00  0.00     0.000 HD 
BRANCH  11  13
HETATM   13  C   UNL     1      -9.990   9.572  67.609  1.00  0.00    -0.180 C  
HETATM   14  O   UNL     1     -10.768   8.837  67.017  1.00  0.00    -0.262 OA 
BRANCH  13  15
HETATM   15  N   UNL     1     -10.286  10.860  67.973  1.00  0.00    -0.173 N  
HETATM   16  H   UNL     1     -11.255  11.178  67.979  1.00  0.00     0.000 HD 
BRANCH  15  17
HETATM   17  C   UNL     1      -9.233  11.758  68.343  1.00  0.00    -0.175 C  
BRANCH  17  18
HETATM   18  N   UNL     1      -9.717  13.092  68.585  1.00  0.00    -0.403 N  
HETATM   19  H   UNL     1      -9.071  13.882  68.585  1.00  0.00     0.000 HD 
BRANCH  18  20
HETATM   20  C   UNL     1     -11.052  13.292  68.815  1.00  0.00    -0.266 C  
HETATM   21  O   UNL     1     -11.726  12.600  69.567  1.00  0.00    -0.291 OA 
BRANCH  20  22
HETATM   22  N   UNL     1     -11.551  14.367  68.117  1.00  0.00    -0.312 N  
HETATM   23  H   UNL     1     -12.275  14.972  68.505  1.00  0.00     0.000 HD 
BRANCH  22  24
HETATM   24  C   UNL     1     -10.994  14.588  66.810  1.00  0.00    -0.316 C  
HETATM   25  N   UNL     1     -11.902  14.462  65.697  1.00  0.00    -0.359 N  
HETATM   26  O   UNL     1     -10.036  16.830  67.331  1.00  0.00    -0.263 OA 
HETATM   27  C   UNL     1     -11.616  15.386  64.712  1.00  0.00    -0.286 C  
HETATM   28  N   UNL     1     -10.756  16.303  65.221  1.00  0.00    -0.527 NA 
HETATM   29  O   UNL     1     -12.083  15.417  63.586  1.00  0.00    -0.357 OA 
HETATM   30  C   UNL     1     -10.530  16.040  66.540  1.00  0.00    -0.302 C  
BRANCH  25  31
HETATM   31  C   UNL     1     -12.776  13.347  65.510  1.00  0.00    -0.410 C  
HETATM   32  H   UNL     1     -12.664  11.430  65.731  1.00  0.00     0.000 HD 
HETATM   33  O   UNL     1     -12.083  12.172  65.855  1.00  0.00    -0.594 OA 
ENDBRANCH  25  31
ENDBRANCH  22  24
ENDBRANCH  20  22
ENDBRANCH  18  20
ENDBRANCH  17  18
ENDBRANCH  15  17
ENDBRANCH  13  15
ENDBRANCH  11  13
ENDBRANCH   5  11
ENDBRANCH   2   4
TORSDOF 10
ENDMDL
MODEL      315
REMARK 921   NORMALIZED FREE ENERGY PREDICTED BY IDOCK:   -4.07 KCAL/MOL
REMARK 922        TOTAL FREE ENERGY PREDICTED BY IDOCK:   -8.45 KCAL/MOL
REMARK 923 INTER-LIGAND FREE ENERGY PREDICTED BY IDOCK:   -7.14 KCAL/MOL
REMARK 924 INTRA-LIGAND FREE ENERGY PREDICTED BY IDOCK:   -1.31 KCAL/MOL
REMARK 927      BINDING AFFINITY PREDICTED BY RF-SCORE:    0.00 PKD
ROOT
HETATM    1  O   UNL     1     -12.017   8.089  72.667  1.00  0.00    -0.518 OA 
HETATM    2  C   UNL     1     -10.922   7.206  72.615  1.00  0.00    -0.288 C  
HETATM    3  H   UNL     1     -12.491   7.946  73.477  1.00  0.00     0.000 HD 
ENDROOT
BRANCH   2   4
HETATM    4  N   UNL     1     -10.208   7.421  71.392  1.00  0.00    -0.188 N  
HETATM    5  C   UNL     1     -10.801   8.197  70.322  1.00  0.00    -0.244 C  
HETATM    6  O   UNL     1      -8.959   5.466  71.540  1.00  0.00    -0.134 OA 
HETATM    7  C   UNL     1     -10.339   7.355  69.111  1.00  0.00    -0.208 C  
HETATM    8  N   UNL     1      -9.406   6.465  69.546  1.00  0.00    -0.143 NA 
HETATM    9  O   UNL     1     -10.668   7.482  67.941  1.00  0.00    -0.202 OA 
HETATM   10  C   UNL     1      -9.441   6.382  70.894  1.00  0.00    -0.175 C  
BRANCH   5  11
HETATM   11  N   UNL     1     -10.220   9.514  70.250  1.00  0.00    -0.242 N  
HETATM   12  H   UNL     1     -10.822  10.334  70.328  1.00  0.00     0.000 HD 
BRANCH  11  13
HETATM   13  C   UNL     1      -8.876   9.680  70.079  1.00  0.00    -0.232 C  
HETATM   14  O   UNL     1      -8.071   9.690  70.999  1.00  0.00    -0.287 OA 
BRANCH  13  15
HETATM   15  N   UNL     1      -8.524   9.752  68.757  1.00  0.00    -0.117 N  
HETATM   16  H   UNL     1      -8.877   9.061  68.096  1.00  0.00     0.000 HD 
BRANCH  15  17
HETATM   17  C   UNL     1      -7.657  10.800  68.304  1.00  0.00    -0.098 C  
BRANCH  17  18
HETATM   18  N   UNL     1      -8.177  12.106  68.612  1.00  0.00    -0.315 N  
HETATM   19  H   UNL     1      -7.759  12.665  69.357  1.00  0.00     0.000 HD 
BRANCH  18  20
HETATM   20  C   UNL     1      -9.239  12.594  67.897  1.00  0.00    -0.201 C  
HETATM   21  O   UNL     1     -10.388  12.191  68.022  1.00  0.00    -0.193 OA 
BRANCH  20  22
HETATM   22  N   UNL     1      -8.874  13.598  67.031  1.00  0.00    -0.281 N  
HETATM   23  H   UNL     1      -7.960  13.613  66.579  1.00  0.00     0.000 HD 
BRANCH  22  24
HETATM   24  C   UNL     1      -9.854  14.624  66.799  1.00  0.00    -0.255 C  
HETATM   25  N   UNL     1      -9.408  15.985  66.969  1.00  0.00    -0.213 N  
HETATM   26  O   UNL     1     -10.490  13.842  64.520  1.00  0.00    -0.431 OA 
HETATM   27  C   UNL     1      -9.998  16.822  66.043  1.00  0.00    -0.313 C  
HETATM   28  N   UNL     1     -10.589  16.059  65.090  1.00  0.00    -0.566 NA 
HETATM   29  O   UNL     1      -9.963  18.041  66.038  1.00  0.00    -0.499 OA 
HETATM   30  C   UNL     1     -10.337  14.741  65.334  1.00  0.00    -0.386 C  
BRANCH  25  31
HETATM   31  C   UNL     1      -8.696  16.448  68.117  1.00  0.00    -0.191 C  
HETATM   32  H   UNL     1      -8.457  15.865  69.945  1.00  0.00     0.000 HD 
HETATM   33  O   UNL     1      -8.931  15.558  69.181  1.00  0.00    -0.219 OA 
ENDBRANCH  25  31
ENDBRANCH  22  24
ENDBRANCH  20  22
ENDBRANCH  18  20
ENDBRANCH  17  18
ENDBRANCH  15  17
ENDBRANCH  13  15
ENDBRANCH  11  13
ENDBRANCH   5  11
ENDBRANCH   2   4
TORSDOF 10
ENDMDL
MODEL      316
REMARK 921   NORMALIZED FREE ENERGY PREDICTED BY IDOCK:   -4.06 KCAL/MOL
REMARK 922        TOTAL FREE ENERGY PREDICTED BY IDOCK:   -8.43 KCAL/MOL
REMARK 923 INTER-LIGAND FREE ENERGY PREDICTED BY IDOCK:   -6.95 KCAL/MOL
REMARK 924 INTRA-LIGAND FREE ENERGY PREDICTED BY IDOCK:   -1.48 KCAL/MOL
REMARK 927      BINDING AFFINITY PREDICTED BY RF-SCORE:    0.00 PKD
ROOT
HETATM    1  O   UNL     1      -9.537  10.519  65.457  1.00  0.00    -0.199 OA 
HETATM    2  C   UNL     1     -10.522  10.382  66.453  1.00  0.00    -0.177 C  
HETATM    3  H   UNL     1      -9.430   9.687  65.012  1.00  0.00     0.000 HD 
ENDROOT
BRANCH   2   4
HETATM    4  N   UNL     1     -10.683  11.637  67.124  1.00  0.00    -0.235 N  
HETATM    5  C   UNL     1     -10.689  11.700  68.571  1.00  0.00    -0.218 C  
HETATM    6  O   UNL     1     -11.892  12.633  65.406  1.00  0.00    -0.380 OA 
HETATM    7  C   UNL     1     -11.808  12.746  68.775  1.00  0.00    -0.307 C  
HETATM    8  N   UNL     1     -12.085  13.311  67.569  1.00  0.00    -0.314 NA 
HETATM    9  O   UNL     1     -12.327  13.092  69.826  1.00  0.00    -0.222 OA 
HETATM   10  C   UNL     1     -11.556  12.562  66.577  1.00  0.00    -0.388 C  
BRANCH   5  11
HETATM   11  N   UNL     1      -9.441  12.217  69.076  1.00  0.00    -0.377 N  
HETATM   12  H   UNL     1      -9.262  12.209  70.079  1.00  0.00     0.000 HD 
BRANCH  11  13
HETATM   13  C   UNL     1      -8.495  12.716  68.228  1.00  0.00    -0.163 C  
HETATM   14  O   UNL     1      -7.780  12.018  67.521  1.00  0.00    -0.135 OA 
BRANCH  13  15
HETATM   15  N   UNL     1      -8.492  14.086  68.197  1.00  0.00    -0.164 N  
HETATM   16  H   UNL     1      -8.714  14.615  69.040  1.00  0.00     0.000 HD 
BRANCH  15  17
HETATM   17  C   UNL     1      -8.178  14.773  66.980  1.00  0.00    -0.179 C  
BRANCH  17  18
HETATM   18  N   UNL     1      -9.350  15.312  66.342  1.00  0.00    -0.275 N  
HETATM   19  H   UNL     1      -9.754  14.846  65.529  1.00  0.00     0.000 HD 
BRANCH  18  20
HETATM   20  C   UNL     1      -9.920  16.456  66.836  1.00  0.00    -0.271 C  
HETATM   21  O   UNL     1     -10.788  16.467  67.699  1.00  0.00    -0.327 OA 
BRANCH  20  22
HETATM   22  N   UNL     1      -9.399  17.593  66.264  1.00  0.00    -0.234 N  
HETATM   23  H   UNL     1      -9.261  17.674  65.257  1.00  0.00     0.000 HD 
BRANCH  22  24
HETATM   24  C   UNL     1      -9.061  18.659  67.167  1.00  0.00    -0.288 C  
HETATM   25  N   UNL     1      -7.655  18.894  67.384  1.00  0.00    -0.230 N  
HETATM   26  O   UNL     1     -10.404  20.402  65.995  1.00  0.00    -0.317 OA 
HETATM   27  C   UNL     1      -7.389  20.242  67.521  1.00  0.00    -0.305 C  
HETATM   28  N   UNL     1      -8.485  20.938  67.127  1.00  0.00    -0.126 NA 
HETATM   29  O   UNL     1      -6.339  20.742  67.886  1.00  0.00    -0.282 OA 
HETATM   30  C   UNL     1      -9.437  20.076  66.667  1.00  0.00    -0.404 C  
BRANCH  25  31
HETATM   31  C   UNL     1      -6.722  17.864  67.711  1.00  0.00    -0.190 C  
HETATM   32  H   UNL     1      -6.050  17.046  69.329  1.00  0.00     0.000 HD 
HETATM   33  O   UNL     1      -6.671  17.732  69.111  1.00  0.00    -0.242 OA 
ENDBRANCH  25  31
ENDBRANCH  22  24
ENDBRANCH  20  22
ENDBRANCH  18  20
ENDBRANCH  17  18
ENDBRANCH  15  17
ENDBRANCH  13  15
ENDBRANCH  11  13
ENDBRANCH   5  11
ENDBRANCH   2   4
TORSDOF 10
ENDMDL
MODEL      317
REMARK 921   NORMALIZED FREE ENERGY PREDICTED BY IDOCK:   -4.05 KCAL/MOL
REMARK 922        TOTAL FREE ENERGY PREDICTED BY IDOCK:   -8.41 KCAL/MOL
REMARK 923 INTER-LIGAND FREE ENERGY PREDICTED BY IDOCK:   -6.96 KCAL/MOL
REMARK 924 INTRA-LIGAND FREE ENERGY PREDICTED BY IDOCK:   -1.45 KCAL/MOL
REMARK 927      BINDING AFFINITY PREDICTED BY RF-SCORE:    0.00 PKD
ROOT
HETATM    1  O   UNL     1     -12.550  14.251  67.897  1.00  0.00    -0.485 OA 
HETATM    2  C   UNL     1     -12.584  13.777  66.573  1.00  0.00    -0.194 C  
HETATM    3  H   UNL     1     -13.198  13.783  68.409  1.00  0.00     0.000 HD 
ENDROOT
BRANCH   2   4
HETATM    4  N   UNL     1     -11.607  14.484  65.799  1.00  0.00    -0.350 N  
HETATM    5  C   UNL     1     -10.608  15.306  66.452  1.00  0.00    -0.308 C  
HETATM    6  O   UNL     1     -12.943  14.672  63.906  1.00  0.00    -0.472 OA 
HETATM    7  C   UNL     1     -10.580  16.499  65.471  1.00  0.00    -0.295 C  
HETATM    8  N   UNL     1     -11.267  16.143  64.351  1.00  0.00    -0.669 NA 
HETATM    9  O   UNL     1      -9.994  17.563  65.603  1.00  0.00    -0.561 OA 
HETATM   10  C   UNL     1     -12.005  15.039  64.596  1.00  0.00    -0.358 C  
BRANCH   5  11
HETATM   11  N   UNL     1      -9.322  14.653  66.463  1.00  0.00    -0.279 N  
HETATM   12  H   UNL     1      -8.478  15.203  66.305  1.00  0.00     0.000 HD 
BRANCH  11  13
HETATM   13  C   UNL     1      -9.220  13.310  66.682  1.00  0.00    -0.215 C  
HETATM   14  O   UNL     1      -9.318  12.792  67.786  1.00  0.00    -0.185 OA 
BRANCH  13  15
HETATM   15  N   UNL     1      -9.075  12.601  65.518  1.00  0.00    -0.255 N  
HETATM   16  H   UNL     1      -8.580  13.014  64.728  1.00  0.00     0.000 HD 
BRANCH  15  17
HETATM   17  C   UNL     1      -9.622  11.281  65.412  1.00  0.00    -0.228 C  
BRANCH  17  18
HETATM   18  N   UNL     1      -8.769  10.290  66.013  1.00  0.00    -0.146 N  
HETATM   19  H   UNL     1      -7.763  10.307  65.847  1.00  0.00     0.000 HD 
BRANCH  18  20
HETATM   20  C   UNL     1      -9.320   9.322  66.811  1.00  0.00    -0.156 C  
HETATM   21  O   UNL     1     -10.172   8.530  66.432  1.00  0.00    -0.273 OA 
BRANCH  20  22
HETATM   22  N   UNL     1      -8.800   9.331  68.084  1.00  0.00    -0.129 N  
HETATM   23  H   UNL     1      -8.033   9.949  68.349  1.00  0.00     0.000 HD 
BRANCH  22  24
HETATM   24  C   UNL     1      -9.400   8.420  69.021  1.00  0.00    -0.147 C  
HETATM   25  N   UNL     1      -8.500   7.535  69.720  1.00  0.00    -0.134 N  
HETATM   26  O   UNL     1     -10.615  10.168  70.316  1.00  0.00    -0.285 OA 
HETATM   27  C   UNL     1      -8.912   7.331  71.022  1.00  0.00    -0.149 C  
HETATM   28  N   UNL     1      -9.869   8.247  71.317  1.00  0.00    -0.167 NA 
HETATM   29  O   UNL     1      -8.469   6.508  71.804  1.00  0.00    -0.123 OA 
HETATM   30  C   UNL     1     -10.041   9.090  70.260  1.00  0.00    -0.198 C  
BRANCH  25  31
HETATM   31  C   UNL     1      -7.501   6.747  69.071  1.00  0.00    -0.096 C  
HETATM   32  H   UNL     1      -7.332   5.810  67.389  1.00  0.00     0.000 HD 
HETATM   33  O   UNL     1      -7.996   6.334  67.821  1.00  0.00    -0.111 OA 
ENDBRANCH  25  31
ENDBRANCH  22  24
ENDBRANCH  20  22
ENDBRANCH  18  20
ENDBRANCH  17  18
ENDBRANCH  15  17
ENDBRANCH  13  15
ENDBRANCH  11  13
ENDBRANCH   5  11
ENDBRANCH   2   4
TORSDOF 10
ENDMDL
MODEL      318
REMARK 921   NORMALIZED FREE ENERGY PREDICTED BY IDOCK:   -4.03 KCAL/MOL
REMARK 922        TOTAL FREE ENERGY PREDICTED BY IDOCK:   -8.39 KCAL/MOL
REMARK 923 INTER-LIGAND FREE ENERGY PREDICTED BY IDOCK:   -6.80 KCAL/MOL
REMARK 924 INTRA-LIGAND FREE ENERGY PREDICTED BY IDOCK:   -1.59 KCAL/MOL
REMARK 927      BINDING AFFINITY PREDICTED BY RF-SCORE:    0.00 PKD
ROOT
HETATM    1  O   UNL     1      -7.730   7.806  70.796  1.00  0.00    -0.081 OA 
HETATM    2  C   UNL     1      -8.907   8.186  70.125  1.00  0.00    -0.145 C  
HETATM    3  H   UNL     1      -7.070   8.476  70.665  1.00  0.00     0.000 HD 
ENDROOT
BRANCH   2   4
HETATM    4  N   UNL     1      -9.903   7.175  70.323  1.00  0.00    -0.176 N  
HETATM    5  C   UNL     1     -10.795   7.237  71.463  1.00  0.00    -0.224 C  
HETATM    6  O   UNL     1      -8.721   5.506  69.219  1.00  0.00    -0.106 OA 
HETATM    7  C   UNL     1     -10.837   5.738  71.835  1.00  0.00    -0.252 C  
HETATM    8  N   UNL     1     -10.268   5.034  70.819  1.00  0.00    -0.239 NA 
HETATM    9  O   UNL     1     -11.348   5.225  72.819  1.00  0.00    -0.285 OA 
HETATM   10  C   UNL     1      -9.576   5.867  70.012  1.00  0.00    -0.163 C  
BRANCH   5  11
HETATM   11  N   UNL     1     -12.111   7.679  71.072  1.00  0.00    -0.413 N  
HETATM   12  H   UNL     1     -12.527   7.321  70.213  1.00  0.00     0.000 HD 
BRANCH  11  13
HETATM   13  C   UNL     1     -12.806   8.572  71.835  1.00  0.00    -0.363 C  
HETATM   14  O   UNL     1     -12.991   8.439  73.038  1.00  0.00    -0.117 OA 
BRANCH  13  15
HETATM   15  N   UNL     1     -13.204   9.671  71.121  1.00  0.00    -0.512 N  
HETATM   16  H   UNL     1     -14.066   9.641  70.577  1.00  0.00     0.000 HD 
BRANCH  15  17
HETATM   17  C   UNL     1     -12.407  10.862  71.137  1.00  0.00    -0.374 C  
BRANCH  17  18
HETATM   18  N   UNL     1     -12.276  11.446  69.828  1.00  0.00    -0.288 N  
HETATM   19  H   UNL     1     -12.646  12.378  69.641  1.00  0.00     0.000 HD 
BRANCH  18  20
HETATM   20  C   UNL     1     -11.648  10.740  68.836  1.00  0.00    -0.291 C  
HETATM   21  O   UNL     1     -11.622   9.517  68.781  1.00  0.00     0.239 OA 
BRANCH  20  22
HETATM   22  N   UNL     1     -11.060  11.557  67.900  1.00  0.00    -0.237 N  
HETATM   23  H   UNL     1     -10.577  12.416  68.162  1.00  0.00     0.000 HD 
BRANCH  22  24
HETATM   24  C   UNL     1     -11.165  11.132  66.530  1.00  0.00    -0.079 C  
HETATM   25  N   UNL     1     -11.045  12.162  65.528  1.00  0.00    -0.307 N  
HETATM   26  O   UNL     1      -9.390   9.389  66.681  1.00  0.00    -0.148 OA 
HETATM   27  C   UNL     1     -10.374  11.699  64.414  1.00  0.00    -0.313 C  
HETATM   28  N   UNL     1      -9.792  10.514  64.726  1.00  0.00    -0.298 NA 
HETATM   29  O   UNL     1     -10.268  12.267  63.341  1.00  0.00    -0.421 OA 
HETATM   30  C   UNL     1     -10.009  10.226  66.041  1.00  0.00    -0.245 C  
BRANCH  25  31
HETATM   31  C   UNL     1     -11.778  13.388  65.561  1.00  0.00    -0.340 C  
HETATM   32  H   UNL     1     -13.635  13.911  65.439  1.00  0.00     0.000 HD 
HETATM   33  O   UNL     1     -13.147  13.096  65.417  1.00  0.00    -0.618 OA 
ENDBRANCH  25  31
ENDBRANCH  22  24
ENDBRANCH  20  22
ENDBRANCH  18  20
ENDBRANCH  17  18
ENDBRANCH  15  17
ENDBRANCH  13  15
ENDBRANCH  11  13
ENDBRANCH   5  11
ENDBRANCH   2   4
TORSDOF 10
ENDMDL
MODEL      319
REMARK 921   NORMALIZED FREE ENERGY PREDICTED BY IDOCK:   -4.02 KCAL/MOL
REMARK 922        TOTAL FREE ENERGY PREDICTED BY IDOCK:   -8.36 KCAL/MOL
REMARK 923 INTER-LIGAND FREE ENERGY PREDICTED BY IDOCK:   -7.11 KCAL/MOL
REMARK 924 INTRA-LIGAND FREE ENERGY PREDICTED BY IDOCK:   -1.26 KCAL/MOL
REMARK 927      BINDING AFFINITY PREDICTED BY RF-SCORE:    0.00 PKD
ROOT
HETATM    1  O   UNL     1     -12.342  14.927  73.262  1.00  0.00    -0.379 OA 
HETATM    2  C   UNL     1     -11.568  15.753  72.425  1.00  0.00    -0.409 C  
HETATM    3  H   UNL     1     -12.354  15.298  74.136  1.00  0.00     0.000 HD 
ENDROOT
BRANCH   2   4
HETATM    4  N   UNL     1     -11.549  15.193  71.107  1.00  0.00    -0.336 N  
HETATM    5  C   UNL     1     -10.683  15.748  70.086  1.00  0.00    -0.344 C  
HETATM    6  O   UNL     1     -13.733  14.401  71.190  1.00  0.00    -0.345 OA 
HETATM    7  C   UNL     1     -11.635  15.663  68.872  1.00  0.00    -0.383 C  
HETATM    8  N   UNL     1     -12.704  14.898  69.224  1.00  0.00     0.156 NA 
HETATM    9  O   UNL     1     -11.463  16.122  67.752  1.00  0.00    -0.197 OA 
HETATM   10  C   UNL     1     -12.746  14.756  70.566  1.00  0.00    -0.343 C  
BRANCH   5  11
HETATM   11  N   UNL     1      -9.534  14.906  69.864  1.00  0.00    -0.434 N  
HETATM   12  H   UNL     1      -9.558  13.932  70.164  1.00  0.00     0.000 HD 
BRANCH  11  13
HETATM   13  C   UNL     1      -8.413  15.395  69.257  1.00  0.00    -0.258 C  
HETATM   14  O   UNL     1      -8.392  16.427  68.600  1.00  0.00    -0.198 OA 
BRANCH  13  15
HETATM   15  N   UNL     1      -7.300  14.645  69.535  1.00  0.00    -0.299 N  
HETATM   16  H   UNL     1      -7.057  14.432  70.502  1.00  0.00     0.000 HD 
BRANCH  15  17
HETATM   17  C   UNL     1      -6.479  14.162  68.465  1.00  0.00    -0.096 C  
BRANCH  17  18
HETATM   18  N   UNL     1      -7.253  13.546  67.420  1.00  0.00    -0.305 N  
HETATM   19  H   UNL     1      -7.642  14.112  66.666  1.00  0.00     0.000 HD 
BRANCH  18  20
HETATM   20  C   UNL     1      -7.464  12.193  67.447  1.00  0.00    -0.156 C  
HETATM   21  O   UNL     1      -7.322  11.501  68.446  1.00  0.00    -0.084 OA 
BRANCH  20  22
HETATM   22  N   UNL     1      -7.865  11.699  66.228  1.00  0.00    -0.379 N  
HETATM   23  H   UNL     1      -7.197  11.345  65.543  1.00  0.00     0.000 HD 
BRANCH  22  24
HETATM   24  C   UNL     1      -9.280  11.709  65.974  1.00  0.00    -0.208 C  
HETATM   25  N   UNL     1     -10.106  10.999  66.918  1.00  0.00    -0.203 N  
HETATM   26  O   UNL     1      -9.482  14.189  65.828  1.00  0.00    -0.181 OA 
HETATM   27  C   UNL     1     -11.305  11.651  67.123  1.00  0.00    -0.306 C  
HETATM   28  N   UNL     1     -11.212  12.896  66.591  1.00  0.00    -0.292 NA 
HETATM   29  O   UNL     1     -12.276  11.219  67.720  1.00  0.00    -0.504 OA 
HETATM   30  C   UNL     1      -9.953  13.097  66.107  1.00  0.00    -0.291 C  
BRANCH  25  31
HETATM   31  C   UNL     1      -9.848   9.661  67.347  1.00  0.00    -0.171 C  
HETATM   32  H   UNL     1      -9.749   8.727  69.037  1.00  0.00     0.000 HD 
HETATM   33  O   UNL     1      -9.921   9.617  68.751  1.00  0.00    -0.163 OA 
ENDBRANCH  25  31
ENDBRANCH  22  24
ENDBRANCH  20  22
ENDBRANCH  18  20
ENDBRANCH  17  18
ENDBRANCH  15  17
ENDBRANCH  13  15
ENDBRANCH  11  13
ENDBRANCH   5  11
ENDBRANCH   2   4
TORSDOF 10
ENDMDL
MODEL      320
REMARK 921   NORMALIZED FREE ENERGY PREDICTED BY IDOCK:   -4.02 KCAL/MOL
REMARK 922        TOTAL FREE ENERGY PREDICTED BY IDOCK:   -8.36 KCAL/MOL
REMARK 923 INTER-LIGAND FREE ENERGY PREDICTED BY IDOCK:   -7.37 KCAL/MOL
REMARK 924 INTRA-LIGAND FREE ENERGY PREDICTED BY IDOCK:   -0.99 KCAL/MOL
REMARK 927      BINDING AFFINITY PREDICTED BY RF-SCORE:    0.00 PKD
ROOT
HETATM    1  O   UNL     1      -7.994  14.385  69.452  1.00  0.00    -0.345 OA 
HETATM    2  C   UNL     1      -9.005  15.053  68.736  1.00  0.00    -0.196 C  
HETATM    3  H   UNL     1      -7.219  14.933  69.476  1.00  0.00     0.000 HD 
ENDROOT
BRANCH   2   4
HETATM    4  N   UNL     1     -10.174  14.227  68.699  1.00  0.00    -0.244 N  
HETATM    5  C   UNL     1     -10.185  13.005  67.921  1.00  0.00    -0.234 C  
HETATM    6  O   UNL     1     -11.665  15.966  69.096  1.00  0.00    -0.376 OA 
HETATM    7  C   UNL     1     -11.618  13.084  67.346  1.00  0.00    -0.356 C  
HETATM    8  N   UNL     1     -12.286  14.068  68.006  1.00  0.00    -0.255 NA 
HETATM    9  O   UNL     1     -12.126  12.361  66.502  1.00  0.00    -0.599 OA 
HETATM   10  C   UNL     1     -11.411  14.847  68.679  1.00  0.00    -0.292 C  
BRANCH   5  11
HETATM   11  N   UNL     1     -10.064  11.845  68.769  1.00  0.00    -0.369 N  
HETATM   12  H   UNL     1     -10.809  11.625  69.429  1.00  0.00     0.000 HD 
BRANCH  11  13
HETATM   13  C   UNL     1      -8.965  11.039  68.702  1.00  0.00    -0.167 C  
HETATM   14  O   UNL     1      -8.157  11.068  67.784  1.00  0.00    -0.112 OA 
BRANCH  13  15
HETATM   15  N   UNL     1      -8.826  10.252  69.814  1.00  0.00    -0.380 N  
HETATM   16  H   UNL     1      -9.628  10.078  70.420  1.00  0.00     0.000 HD 
BRANCH  15  17
HETATM   17  C   UNL     1      -7.553   9.673  70.127  1.00  0.00    -0.158 C  
BRANCH  17  18
HETATM   18  N   UNL     1      -7.621   8.792  71.263  1.00  0.00    -0.107 N  
HETATM   19  H   UNL     1      -6.832   8.719  71.905  1.00  0.00     0.000 HD 
BRANCH  18  20
HETATM   20  C   UNL     1      -8.755   8.052  71.475  1.00  0.00    -0.136 C  
HETATM   21  O   UNL     1      -9.241   7.298  70.643  1.00  0.00    -0.157 OA 
BRANCH  20  22
HETATM   22  N   UNL     1      -9.279   8.241  72.732  1.00  0.00    -0.262 N  
HETATM   23  H   UNL     1      -8.755   8.712  73.469  1.00  0.00     0.000 HD 
BRANCH  22  24
HETATM   24  C   UNL     1     -10.608   7.738  72.947  1.00  0.00    -0.366 C  
HETATM   25  N   UNL     1     -11.608   8.138  71.987  1.00  0.00    -0.306 N  
HETATM   26  O   UNL     1      -9.944   5.339  73.061  1.00  0.00    -0.159 OA 
HETATM   27  C   UNL     1     -12.503   7.115  71.743  1.00  0.00    -0.350 C  
HETATM   28  N   UNL     1     -11.997   5.969  72.264  1.00  0.00    -0.280 NA 
HETATM   29  O   UNL     1     -13.550   7.198  71.124  1.00  0.00    -0.306 OA 
HETATM   30  C   UNL     1     -10.758   6.206  72.781  1.00  0.00    -0.239 C  
BRANCH  25  31
HETATM   31  C   UNL     1     -11.818   9.491  71.579  1.00  0.00    -0.405 C  
HETATM   32  H   UNL     1     -11.750  10.479  69.919  1.00  0.00     0.000 HD 
HETATM   33  O   UNL     1     -11.610   9.579  70.190  1.00  0.00    -0.215 OA 
ENDBRANCH  25  31
ENDBRANCH  22  24
ENDBRANCH  20  22
ENDBRANCH  18  20
ENDBRANCH  17  18
ENDBRANCH  15  17
ENDBRANCH  13  15
ENDBRANCH  11  13
ENDBRANCH   5  11
ENDBRANCH   2   4
TORSDOF 10
ENDMDL
MODEL      321
REMARK 921   NORMALIZED FREE ENERGY PREDICTED BY IDOCK:   -4.01 KCAL/MOL
REMARK 922        TOTAL FREE ENERGY PREDICTED BY IDOCK:   -8.35 KCAL/MOL
REMARK 923 INTER-LIGAND FREE ENERGY PREDICTED BY IDOCK:   -6.64 KCAL/MOL
REMARK 924 INTRA-LIGAND FREE ENERGY PREDICTED BY IDOCK:   -1.72 KCAL/MOL
REMARK 927      BINDING AFFINITY PREDICTED BY RF-SCORE:    0.00 PKD
ROOT
HETATM    1  O   UNL     1     -10.870   7.360  73.930  1.00  0.00    -0.540 OA 
HETATM    2  C   UNL     1     -11.264   7.324  72.579  1.00  0.00    -0.301 C  
HETATM    3  H   UNL     1     -11.607   7.642  74.458  1.00  0.00     0.000 HD 
ENDROOT
BRANCH   2   4
HETATM    4  N   UNL     1     -10.152   6.898  71.781  1.00  0.00    -0.185 N  
HETATM    5  C   UNL     1      -9.834   5.490  71.658  1.00  0.00    -0.173 C  
HETATM    6  O   UNL     1      -8.943   8.864  72.051  1.00  0.00    -0.365 OA 
HETATM    7  C   UNL     1      -8.292   5.573  71.718  1.00  0.00    -0.120 C  
HETATM    8  N   UNL     1      -7.932   6.879  71.592  1.00  0.00    -0.100 NA 
HETATM    9  O   UNL     1      -7.495   4.649  71.787  1.00  0.00    -0.070 OA 
HETATM   10  C   UNL     1      -9.006   7.673  71.793  1.00  0.00    -0.119 C  
BRANCH   5  11
HETATM   11  N   UNL     1     -10.245   4.973  70.377  1.00  0.00    -0.263 N  
HETATM   12  H   UNL     1     -10.379   3.969  70.259  1.00  0.00     0.000 HD 
BRANCH  11  13
HETATM   13  C   UNL     1     -10.457   5.808  69.318  1.00  0.00    -0.287 C  
HETATM   14  O   UNL     1     -11.523   6.366  69.097  1.00  0.00    -0.364 OA 
BRANCH  13  15
HETATM   15  N   UNL     1      -9.321   6.014  68.580  1.00  0.00    -0.118 N  
HETATM   16  H   UNL     1      -8.602   5.292  68.539  1.00  0.00     0.000 HD 
BRANCH  15  17
HETATM   17  C   UNL     1      -9.145   7.244  67.867  1.00  0.00    -0.132 C  
BRANCH  17  18
HETATM   18  N   UNL     1      -8.886   8.351  68.750  1.00  0.00    -0.140 N  
HETATM   19  H   UNL     1      -8.210   8.258  69.509  1.00  0.00     0.000 HD 
BRANCH  18  20
HETATM   20  C   UNL     1      -9.554   9.532  68.562  1.00  0.00    -0.142 C  
HETATM   21  O   UNL     1      -9.525  10.465  69.353  1.00  0.00    -0.216 OA 
BRANCH  20  22
HETATM   22  N   UNL     1     -10.254   9.559  67.378  1.00  0.00    -0.212 N  
HETATM   23  H   UNL     1     -10.846   8.782  67.085  1.00  0.00     0.000 HD 
BRANCH  22  24
HETATM   24  C   UNL     1     -10.102  10.743  66.578  1.00  0.00    -0.228 C  
HETATM   25  N   UNL     1     -10.023  10.548  65.151  1.00  0.00    -0.288 N  
HETATM   26  O   UNL     1     -12.083  11.927  67.521  1.00  0.00    -0.573 OA 
HETATM   27  C   UNL     1     -10.664  11.565  64.472  1.00  0.00    -0.329 C  
HETATM   28  N   UNL     1     -11.407  12.272  65.360  1.00  0.00    -0.332 NA 
HETATM   29  O   UNL     1     -10.621  11.777  63.272  1.00  0.00    -0.390 OA 
HETATM   30  C   UNL     1     -11.322  11.697  66.593  1.00  0.00    -0.270 C  
BRANCH  25  31
HETATM   31  C   UNL     1      -9.151   9.604  64.529  1.00  0.00    -0.236 C  
HETATM   32  H   UNL     1      -7.295   9.558  63.989  1.00  0.00     0.000 HD 
HETATM   33  O   UNL     1      -7.875  10.186  64.404  1.00  0.00    -0.143 OA 
ENDBRANCH  25  31
ENDBRANCH  22  24
ENDBRANCH  20  22
ENDBRANCH  18  20
ENDBRANCH  17  18
ENDBRANCH  15  17
ENDBRANCH  13  15
ENDBRANCH  11  13
ENDBRANCH   5  11
ENDBRANCH   2   4
TORSDOF 10
ENDMDL
MODEL      322
REMARK 921   NORMALIZED FREE ENERGY PREDICTED BY IDOCK:   -4.01 KCAL/MOL
REMARK 922        TOTAL FREE ENERGY PREDICTED BY IDOCK:   -8.35 KCAL/MOL
REMARK 923 INTER-LIGAND FREE ENERGY PREDICTED BY IDOCK:   -6.73 KCAL/MOL
REMARK 924 INTRA-LIGAND FREE ENERGY PREDICTED BY IDOCK:   -1.62 KCAL/MOL
REMARK 927      BINDING AFFINITY PREDICTED BY RF-SCORE:    0.00 PKD
ROOT
HETATM    1  O   UNL     1     -10.950  11.220  68.763  1.00  0.00    -0.190 OA 
HETATM    2  C   UNL     1     -11.048  11.085  70.160  1.00  0.00    -0.097 C  
HETATM    3  H   UNL     1     -10.165  10.776  68.464  1.00  0.00     0.000 HD 
ENDROOT
BRANCH   2   4
HETATM    4  N   UNL     1     -12.232  11.754  70.610  1.00  0.00    -0.380 N  
HETATM    5  C   UNL     1     -12.158  13.100  71.142  1.00  0.00     0.100 C  
HETATM    6  O   UNL     1     -13.372   9.804  71.160  1.00  0.00    -0.373 OA 
HETATM    7  C   UNL     1     -13.167  12.969  72.306  1.00  0.00    -0.435 C  
HETATM    8  N   UNL     1     -13.840  11.796  72.153  1.00  0.00     0.058 NA 
HETATM    9  O   UNL     1     -13.405  13.784  73.184  1.00  0.00    -0.538 OA 
HETATM   10  C   UNL     1     -13.194  11.007  71.267  1.00  0.00    -0.158 C  
BRANCH   5  11
HETATM   11  N   UNL     1     -12.639  14.066  70.186  1.00  0.00    -0.339 N  
HETATM   12  H   UNL     1     -13.305  13.776  69.470  1.00  0.00     0.000 HD 
BRANCH  11  13
HETATM   13  C   UNL     1     -12.216  15.363  70.225  1.00  0.00    -0.380 C  
HETATM   14  O   UNL     1     -12.499  16.143  71.124  1.00  0.00    -0.332 OA 
BRANCH  13  15
HETATM   15  N   UNL     1     -11.373  15.668  69.189  1.00  0.00    -0.313 N  
HETATM   16  H   UNL     1     -10.598  16.314  69.335  1.00  0.00     0.000 HD 
BRANCH  15  17
HETATM   17  C   UNL     1     -11.582  15.079  67.900  1.00  0.00    -0.333 C  
BRANCH  17  18
HETATM   18  N   UNL     1     -10.735  15.661  66.892  1.00  0.00    -0.313 N  
HETATM   19  H   UNL     1     -10.412  15.099  66.104  1.00  0.00     0.000 HD 
BRANCH  18  20
HETATM   20  C   UNL     1     -10.365  16.976  67.000  1.00  0.00    -0.304 C  
HETATM   21  O   UNL     1     -11.160  17.905  67.054  1.00  0.00    -0.058 OA 
BRANCH  20  22
HETATM   22  N   UNL     1      -9.001  17.136  67.055  1.00  0.00    -0.223 N  
HETATM   23  H   UNL     1      -8.404  16.953  66.249  1.00  0.00     0.000 HD 
BRANCH  22  24
HETATM   24  C   UNL     1      -8.464  17.576  68.314  1.00  0.00    -0.266 C  
HETATM   25  N   UNL     1      -7.309  16.864  68.803  1.00  0.00    -0.216 N  
HETATM   26  O   UNL     1      -8.209  19.964  67.648  1.00  0.00    -0.298 OA 
HETATM   27  C   UNL     1      -6.430  17.715  69.442  1.00  0.00    -0.231 C  
HETATM   28  N   UNL     1      -6.791  18.993  69.162  1.00  0.00    -0.309 NA 
HETATM   29  O   UNL     1      -5.461  17.394  70.108  1.00  0.00    -0.219 OA 
HETATM   30  C   UNL     1      -7.844  18.995  68.295  1.00  0.00    -0.315 C  
BRANCH  25  31
HETATM   31  C   UNL     1      -7.231  15.439  68.879  1.00  0.00    -0.139 C  
HETATM   32  H   UNL     1      -8.115  14.041  69.881  1.00  0.00     0.000 HD 
HETATM   33  O   UNL     1      -8.167  14.989  69.829  1.00  0.00    -0.129 OA 
ENDBRANCH  25  31
ENDBRANCH  22  24
ENDBRANCH  20  22
ENDBRANCH  18  20
ENDBRANCH  17  18
ENDBRANCH  15  17
ENDBRANCH  13  15
ENDBRANCH  11  13
ENDBRANCH   5  11
ENDBRANCH   2   4
TORSDOF 10
ENDMDL
MODEL      323
REMARK 921   NORMALIZED FREE ENERGY PREDICTED BY IDOCK:   -4.01 KCAL/MOL
REMARK 922        TOTAL FREE ENERGY PREDICTED BY IDOCK:   -8.35 KCAL/MOL
REMARK 923 INTER-LIGAND FREE ENERGY PREDICTED BY IDOCK:   -7.03 KCAL/MOL
REMARK 924 INTRA-LIGAND FREE ENERGY PREDICTED BY IDOCK:   -1.32 KCAL/MOL
REMARK 927      BINDING AFFINITY PREDICTED BY RF-SCORE:    0.00 PKD
ROOT
HETATM    1  O   UNL     1     -12.374  13.888  63.559  1.00  0.00    -0.976 OA 
HETATM    2  C   UNL     1     -12.905  13.292  64.718  1.00  0.00    -0.191 C  
HETATM    3  H   UNL     1     -13.088  14.200  63.017  1.00  0.00     0.000 HD 
ENDROOT
BRANCH   2   4
HETATM    4  N   UNL     1     -11.828  12.820  65.536  1.00  0.00    -0.398 N  
HETATM    5  C   UNL     1     -11.195  13.701  66.497  1.00  0.00    -0.310 C  
HETATM    6  O   UNL     1     -11.106  11.217  64.015  1.00  0.00    -0.372 OA 
HETATM    7  C   UNL     1      -9.723  13.272  66.303  1.00  0.00    -0.268 C  
HETATM    8  N   UNL     1      -9.708  12.134  65.557  1.00  0.00    -0.218 NA 
HETATM    9  O   UNL     1      -8.724  13.788  66.781  1.00  0.00    -0.190 OA 
HETATM   10  C   UNL     1     -10.910  11.953  64.968  1.00  0.00    -0.300 C  
BRANCH   5  11
HETATM   11  N   UNL     1     -11.619  13.396  67.841  1.00  0.00    -0.317 N  
HETATM   12  H   UNL     1     -12.017  14.133  68.422  1.00  0.00     0.000 HD 
BRANCH  11  13
HETATM   13  C   UNL     1     -11.496  12.133  68.346  1.00  0.00    -0.304 C  
HETATM   14  O   UNL     1     -12.385  11.295  68.303  1.00  0.00    -0.542 OA 
BRANCH  13  15
HETATM   15  N   UNL     1     -10.239  11.887  68.832  1.00  0.00    -0.391 N  
HETATM   16  H   UNL     1      -9.650  12.661  69.140  1.00  0.00     0.000 HD 
BRANCH  15  17
HETATM   17  C   UNL     1      -9.753  10.541  68.909  1.00  0.00    -0.199 C  
BRANCH  17  18
HETATM   18  N   UNL     1      -9.877   9.847  67.654  1.00  0.00    -0.158 N  
HETATM   19  H   UNL     1     -10.661  10.045  67.031  1.00  0.00     0.000 HD 
BRANCH  18  20
HETATM   20  C   UNL     1      -8.934   8.916  67.303  1.00  0.00    -0.128 C  
HETATM   21  O   UNL     1      -8.449   8.827  66.183  1.00  0.00    -0.120 OA 
BRANCH  20  22
HETATM   22  N   UNL     1      -8.583   8.101  68.353  1.00  0.00    -0.130 N  
HETATM   23  H   UNL     1      -8.364   8.475  69.276  1.00  0.00     0.000 HD 
BRANCH  22  24
HETATM   24  C   UNL     1      -8.544   6.691  68.075  1.00  0.00    -0.118 C  
HETATM   25  N   UNL     1      -9.620   6.165  67.272  1.00  0.00    -0.113 N  
HETATM   26  O   UNL     1      -6.234   6.693  67.139  1.00  0.00    -0.033 OA 
HETATM   27  C   UNL     1      -9.170   5.174  66.423  1.00  0.00    -0.141 C  
HETATM   28  N   UNL     1      -7.814   5.203  66.409  1.00  0.00    -0.102 NA 
HETATM   29  O   UNL     1      -9.858   4.423  65.753  1.00  0.00    -0.188 OA 
HETATM   30  C   UNL     1      -7.368   6.239  67.176  1.00  0.00    -0.083 C  
BRANCH  25  31
HETATM   31  C   UNL     1     -11.001   6.422  67.532  1.00  0.00    -0.364 C  
HETATM   32  H   UNL     1     -12.185   6.296  69.055  1.00  0.00     0.000 HD 
HETATM   33  O   UNL     1     -11.266   6.126  68.882  1.00  0.00    -0.372 OA 
ENDBRANCH  25  31
ENDBRANCH  22  24
ENDBRANCH  20  22
ENDBRANCH  18  20
ENDBRANCH  17  18
ENDBRANCH  15  17
ENDBRANCH  13  15
ENDBRANCH  11  13
ENDBRANCH   5  11
ENDBRANCH   2   4
TORSDOF 10
ENDMDL
MODEL      324
REMARK 921   NORMALIZED FREE ENERGY PREDICTED BY IDOCK:   -4.00 KCAL/MOL
REMARK 922        TOTAL FREE ENERGY PREDICTED BY IDOCK:   -8.34 KCAL/MOL
REMARK 923 INTER-LIGAND FREE ENERGY PREDICTED BY IDOCK:   -6.63 KCAL/MOL
REMARK 924 INTRA-LIGAND FREE ENERGY PREDICTED BY IDOCK:   -1.71 KCAL/MOL
REMARK 927      BINDING AFFINITY PREDICTED BY RF-SCORE:    0.00 PKD
ROOT
HETATM    1  O   UNL     1      -9.931  10.196  64.123  1.00  0.00    -0.377 OA 
HETATM    2  C   UNL     1     -10.769  11.137  63.497  1.00  0.00    -0.266 C  
HETATM    3  H   UNL     1      -9.800   9.460  63.537  1.00  0.00     0.000 HD 
ENDROOT
BRANCH   2   4
HETATM    4  N   UNL     1     -10.966  12.246  64.381  1.00  0.00    -0.308 N  
HETATM    5  C   UNL     1     -10.684  12.116  65.796  1.00  0.00    -0.267 C  
HETATM    6  O   UNL     1     -12.631  13.238  63.097  1.00  0.00    -0.666 OA 
HETATM    7  C   UNL     1     -11.874  12.920  66.367  1.00  0.00    -0.415 C  
HETATM    8  N   UNL     1     -12.470  13.582  65.339  1.00  0.00    -0.474 NA 
HETATM    9  O   UNL     1     -12.210  13.030  67.537  1.00  0.00    -0.272 OA 
HETATM   10  C   UNL     1     -12.054  13.072  64.160  1.00  0.00    -0.427 C  
BRANCH   5  11
HETATM   11  N   UNL     1      -9.445  12.768  66.143  1.00  0.00    -0.395 N  
HETATM   12  H   UNL     1      -9.210  13.663  65.714  1.00  0.00     0.000 HD 
BRANCH  11  13
HETATM   13  C   UNL     1      -8.582  12.204  67.037  1.00  0.00    -0.191 C  
HETATM   14  O   UNL     1      -8.856  12.005  68.213  1.00  0.00    -0.179 OA 
BRANCH  13  15
HETATM   15  N   UNL     1      -7.407  11.812  66.452  1.00  0.00    -0.371 N  
HETATM   16  H   UNL     1      -6.944  12.422  65.779  1.00  0.00     0.000 HD 
BRANCH  15  17
HETATM   17  C   UNL     1      -6.830  10.544  66.786  1.00  0.00    -0.103 C  
BRANCH  17  18
HETATM   18  N   UNL     1      -7.042   9.561  65.755  1.00  0.00    -0.093 N  
HETATM   19  H   UNL     1      -6.584   9.659  64.849  1.00  0.00     0.000 HD 
BRANCH  18  20
HETATM   20  C   UNL     1      -7.865   8.494  66.002  1.00  0.00    -0.098 C  
HETATM   21  O   UNL     1      -8.328   7.774  65.127  1.00  0.00    -0.143 OA 
BRANCH  20  22
HETATM   22  N   UNL     1      -8.104   8.313  67.344  1.00  0.00    -0.119 N  
HETATM   23  H   UNL     1      -7.527   8.755  68.059  1.00  0.00     0.000 HD 
BRANCH  22  24
HETATM   24  C   UNL     1      -9.215   7.465  67.682  1.00  0.00    -0.127 C  
HETATM   25  N   UNL     1      -8.902   6.256  68.403  1.00  0.00    -0.115 N  
HETATM   26  O   UNL     1     -10.536   9.240  68.828  1.00  0.00    -0.217 OA 
HETATM   27  C   UNL     1      -9.881   5.960  69.330  1.00  0.00    -0.161 C  
HETATM   28  N   UNL     1     -10.682   7.045  69.469  1.00  0.00    -0.234 NA 
HETATM   29  O   UNL     1      -9.993   4.924  69.963  1.00  0.00    -0.215 OA 
HETATM   30  C   UNL     1     -10.207   8.070  68.705  1.00  0.00    -0.206 C  
BRANCH  25  31
HETATM   31  C   UNL     1      -7.881   5.338  68.006  1.00  0.00    -0.091 C  
HETATM   32  H   UNL     1      -7.805   3.657  67.055  1.00  0.00     0.000 HD 
HETATM   33  O   UNL     1      -8.483   4.267  67.319  1.00  0.00    -0.100 OA 
ENDBRANCH  25  31
ENDBRANCH  22  24
ENDBRANCH  20  22
ENDBRANCH  18  20
ENDBRANCH  17  18
ENDBRANCH  15  17
ENDBRANCH  13  15
ENDBRANCH  11  13
ENDBRANCH   5  11
ENDBRANCH   2   4
TORSDOF 10
ENDMDL
MODEL      325
REMARK 921   NORMALIZED FREE ENERGY PREDICTED BY IDOCK:   -3.99 KCAL/MOL
REMARK 922        TOTAL FREE ENERGY PREDICTED BY IDOCK:   -8.33 KCAL/MOL
REMARK 923 INTER-LIGAND FREE ENERGY PREDICTED BY IDOCK:   -6.75 KCAL/MOL
REMARK 924 INTRA-LIGAND FREE ENERGY PREDICTED BY IDOCK:   -1.58 KCAL/MOL
REMARK 927      BINDING AFFINITY PREDICTED BY RF-SCORE:    0.00 PKD
ROOT
HETATM    1  O   UNL     1     -11.392   3.303  73.195  1.00  0.00    -0.079 OA 
HETATM    2  C   UNL     1     -11.267   4.587  73.758  1.00  0.00    -0.197 C  
HETATM    3  H   UNL     1     -11.643   2.691  73.877  1.00  0.00     0.000 HD 
ENDROOT
BRANCH   2   4
HETATM    4  N   UNL     1     -10.889   5.511  72.731  1.00  0.00    -0.244 N  
HETATM    5  C   UNL     1     -11.892   6.309  72.055  1.00  0.00    -0.318 C  
HETATM    6  O   UNL     1      -8.983   4.341  72.096  1.00  0.00    -0.113 OA 
HETATM    7  C   UNL     1     -11.339   6.244  70.613  1.00  0.00    -0.343 C  
HETATM    8  N   UNL     1     -10.082   5.726  70.665  1.00  0.00    -0.193 NA 
HETATM    9  O   UNL     1     -11.870   6.647  69.589  1.00  0.00    -0.255 OA 
HETATM   10  C   UNL     1      -9.873   5.145  71.866  1.00  0.00    -0.177 C  
BRANCH   5  11
HETATM   11  N   UNL     1     -11.876   7.672  72.523  1.00  0.00    -0.508 N  
HETATM   12  H   UNL     1     -11.087   8.005  73.077  1.00  0.00     0.000 HD 
BRANCH  11  13
HETATM   13  C   UNL     1     -12.903   8.525  72.235  1.00  0.00    -0.355 C  
HETATM   14  O   UNL     1     -14.037   8.155  71.964  1.00  0.00    -0.375 OA 
BRANCH  13  15
HETATM   15  N   UNL     1     -12.540   9.840  72.365  1.00  0.00    -0.181 N  
HETATM   16  H   UNL     1     -11.944  10.131  73.139  1.00  0.00     0.000 HD 
BRANCH  15  17
HETATM   17  C   UNL     1     -13.001  10.805  71.412  1.00  0.00    -0.432 C  
BRANCH  17  18
HETATM   18  N   UNL     1     -11.957  11.220  70.511  1.00  0.00    -0.364 N  
HETATM   19  H   UNL     1     -11.844  12.206  70.274  1.00  0.00     0.000 HD 
BRANCH  18  20
HETATM   20  C   UNL     1     -11.117  10.280  69.975  1.00  0.00    -0.311 C  
HETATM   21  O   UNL     1     -10.078   9.912  70.507  1.00  0.00    -0.259 OA 
BRANCH  20  22
HETATM   22  N   UNL     1     -11.577   9.785  68.777  1.00  0.00    -0.406 N  
HETATM   23  H   UNL     1     -12.447   9.258  68.711  1.00  0.00     0.000 HD 
BRANCH  22  24
HETATM   24  C   UNL     1     -10.761  10.054  67.625  1.00  0.00    -0.284 C  
HETATM   25  N   UNL     1     -10.289  11.409  67.475  1.00  0.00    -0.191 N  
HETATM   26  O   UNL     1      -9.103   8.248  68.075  1.00  0.00    -0.137 OA 
HETATM   27  C   UNL     1      -9.011  11.438  66.954  1.00  0.00    -0.171 C  
HETATM   28  N   UNL     1      -8.495  10.184  67.013  1.00  0.00    -0.129 NA 
HETATM   29  O   UNL     1      -8.413  12.420  66.550  1.00  0.00    -0.088 OA 
HETATM   30  C   UNL     1      -9.382   9.350  67.628  1.00  0.00    -0.127 C  
BRANCH  25  31
HETATM   31  C   UNL     1     -11.135  12.556  67.567  1.00  0.00    -0.267 C  
HETATM   32  H   UNL     1     -11.330  14.058  68.769  1.00  0.00     0.000 HD 
HETATM   33  O   UNL     1     -10.767  13.294  68.707  1.00  0.00    -0.247 OA 
ENDBRANCH  25  31
ENDBRANCH  22  24
ENDBRANCH  20  22
ENDBRANCH  18  20
ENDBRANCH  17  18
ENDBRANCH  15  17
ENDBRANCH  13  15
ENDBRANCH  11  13
ENDBRANCH   5  11
ENDBRANCH   2   4
TORSDOF 10
ENDMDL
MODEL      326
REMARK 921   NORMALIZED FREE ENERGY PREDICTED BY IDOCK:   -3.98 KCAL/MOL
REMARK 922        TOTAL FREE ENERGY PREDICTED BY IDOCK:   -8.30 KCAL/MOL
REMARK 923 INTER-LIGAND FREE ENERGY PREDICTED BY IDOCK:   -6.40 KCAL/MOL
REMARK 924 INTRA-LIGAND FREE ENERGY PREDICTED BY IDOCK:   -1.90 KCAL/MOL
REMARK 927      BINDING AFFINITY PREDICTED BY RF-SCORE:    0.00 PKD
ROOT
HETATM    1  O   UNL     1     -11.324  13.099  69.480  1.00  0.00    -0.383 OA 
HETATM    2  C   UNL     1     -11.225  12.284  68.338  1.00  0.00    -0.266 C  
HETATM    3  H   UNL     1     -11.727  12.601  70.181  1.00  0.00     0.000 HD 
ENDROOT
BRANCH   2   4
HETATM    4  N   UNL     1     -10.618  13.035  67.280  1.00  0.00    -0.241 N  
HETATM    5  C   UNL     1      -9.218  13.402  67.350  1.00  0.00    -0.213 C  
HETATM    6  O   UNL     1     -12.585  14.081  66.618  1.00  0.00    -0.358 OA 
HETATM    7  C   UNL     1      -9.303  14.835  66.778  1.00  0.00    -0.249 C  
HETATM    8  N   UNL     1     -10.541  15.005  66.240  1.00  0.00    -0.299 NA 
HETATM    9  O   UNL     1      -8.416  15.674  66.726  1.00  0.00    -0.226 OA 
HETATM   10  C   UNL     1     -11.367  14.026  66.670  1.00  0.00    -0.335 C  
BRANCH   5  11
HETATM   11  N   UNL     1      -8.418  12.576  66.480  1.00  0.00    -0.413 N  
HETATM   12  H   UNL     1      -8.533  12.652  65.470  1.00  0.00     0.000 HD 
BRANCH  11  13
HETATM   13  C   UNL     1      -7.510  11.694  66.990  1.00  0.00    -0.150 C  
HETATM   14  O   UNL     1      -6.310  11.922  67.066  1.00  0.00    -0.144 OA 
BRANCH  13  15
HETATM   15  N   UNL     1      -8.102  10.561  67.481  1.00  0.00    -0.107 N  
HETATM   16  H   UNL     1      -8.273  10.467  68.482  1.00  0.00     0.000 HD 
BRANCH  15  17
HETATM   17  C   UNL     1      -8.481   9.507  66.586  1.00  0.00    -0.133 C  
BRANCH  17  18
HETATM   18  N   UNL     1      -8.461   8.218  67.226  1.00  0.00    -0.123 N  
HETATM   19  H   UNL     1      -7.603   7.667  67.248  1.00  0.00     0.000 HD 
BRANCH  18  20
HETATM   20  C   UNL     1      -9.606   7.737  67.806  1.00  0.00    -0.146 C  
HETATM   21  O   UNL     1     -10.703   7.755  67.265  1.00  0.00    -0.307 OA 
BRANCH  20  22
HETATM   22  N   UNL     1      -9.382   7.218  69.060  1.00  0.00    -0.148 N  
HETATM   23  H   UNL     1      -9.033   6.269  69.196  1.00  0.00     0.000 HD 
BRANCH  22  24
HETATM   24  C   UNL     1      -9.669   8.089  70.167  1.00  0.00    -0.176 C  
HETATM   25  N   UNL     1     -10.078   7.452  71.395  1.00  0.00    -0.187 N  
HETATM   26  O   UNL     1      -7.486   9.288  70.104  1.00  0.00    -0.071 OA 
HETATM   27  C   UNL     1      -9.573   8.116  72.494  1.00  0.00    -0.277 C  
HETATM   28  N   UNL     1      -8.623   8.987  72.070  1.00  0.00    -0.335 NA 
HETATM   29  O   UNL     1      -9.879   7.932  73.659  1.00  0.00    -0.260 OA 
HETATM   30  C   UNL     1      -8.445   8.855  70.724  1.00  0.00    -0.182 C  
BRANCH  25  31
HETATM   31  C   UNL     1     -11.102   6.459  71.469  1.00  0.00    -0.273 C  
HETATM   32  H   UNL     1     -12.382   5.675  70.250  1.00  0.00     0.000 HD 
HETATM   33  O   UNL     1     -11.700   6.335  70.201  1.00  0.00    -0.398 OA 
ENDBRANCH  25  31
ENDBRANCH  22  24
ENDBRANCH  20  22
ENDBRANCH  18  20
ENDBRANCH  17  18
ENDBRANCH  15  17
ENDBRANCH  13  15
ENDBRANCH  11  13
ENDBRANCH   5  11
ENDBRANCH   2   4
TORSDOF 10
ENDMDL
MODEL      327
REMARK 921   NORMALIZED FREE ENERGY PREDICTED BY IDOCK:   -3.98 KCAL/MOL
REMARK 922        TOTAL FREE ENERGY PREDICTED BY IDOCK:   -8.30 KCAL/MOL
REMARK 923 INTER-LIGAND FREE ENERGY PREDICTED BY IDOCK:   -6.41 KCAL/MOL
REMARK 924 INTRA-LIGAND FREE ENERGY PREDICTED BY IDOCK:   -1.89 KCAL/MOL
REMARK 927      BINDING AFFINITY PREDICTED BY RF-SCORE:    0.00 PKD
ROOT
HETATM    1  O   UNL     1     -12.006  15.890  70.045  1.00  0.00    -0.342 OA 
HETATM    2  C   UNL     1     -11.780  15.457  68.726  1.00  0.00    -0.351 C  
HETATM    3  H   UNL     1     -12.912  15.723  70.274  1.00  0.00     0.000 HD 
ENDROOT
BRANCH   2   4
HETATM    4  N   UNL     1     -10.413  15.709  68.381  1.00  0.00    -0.237 N  
HETATM    5  C   UNL     1      -9.375  14.769  68.753  1.00  0.00    -0.198 C  
HETATM    6  O   UNL     1     -10.634  18.023  68.352  1.00  0.00    -0.340 OA 
HETATM    7  C   UNL     1      -8.264  15.764  69.158  1.00  0.00    -0.247 C  
HETATM    8  N   UNL     1      -8.638  17.006  68.749  1.00  0.00    -0.257 NA 
HETATM    9  O   UNL     1      -7.190  15.512  69.684  1.00  0.00    -0.199 OA 
HETATM   10  C   UNL     1      -9.954  17.013  68.444  1.00  0.00    -0.289 C  
BRANCH   5  11
HETATM   11  N   UNL     1      -8.944  13.992  67.617  1.00  0.00    -0.184 N  
HETATM   12  H   UNL     1      -8.709  14.464  66.745  1.00  0.00     0.000 HD 
BRANCH  11  13
HETATM   13  C   UNL     1      -8.847  12.633  67.694  1.00  0.00    -0.184 C  
HETATM   14  O   UNL     1      -8.308  11.941  66.840  1.00  0.00    -0.169 OA 
BRANCH  13  15
HETATM   15  N   UNL     1      -9.347  12.139  68.870  1.00  0.00    -0.393 N  
HETATM   16  H   UNL     1      -9.206  12.652  69.739  1.00  0.00     0.000 HD 
BRANCH  15  17
HETATM   17  C   UNL     1     -10.068  10.901  68.876  1.00  0.00    -0.198 C  
BRANCH  17  18
HETATM   18  N   UNL     1      -9.692  10.059  69.981  1.00  0.00    -0.367 N  
HETATM   19  H   UNL     1     -10.327   9.928  70.768  1.00  0.00     0.000 HD 
BRANCH  18  20
HETATM   20  C   UNL     1      -8.473   9.433  69.966  1.00  0.00    -0.190 C  
HETATM   21  O   UNL     1      -7.486   9.878  69.395  1.00  0.00    -0.086 OA 
BRANCH  20  22
HETATM   22  N   UNL     1      -8.477   8.255  70.675  1.00  0.00    -0.125 N  
HETATM   23  H   UNL     1      -7.680   7.618  70.667  1.00  0.00     0.000 HD 
BRANCH  22  24
HETATM   24  C   UNL     1      -9.668   7.972  71.428  1.00  0.00    -0.164 C  
HETATM   25  N   UNL     1     -10.262   6.673  71.226  1.00  0.00    -0.199 N  
HETATM   26  O   UNL     1      -8.681   8.509  73.653  1.00  0.00    -0.292 OA 
HETATM   27  C   UNL     1     -10.786   6.175  72.402  1.00  0.00    -0.243 C  
HETATM   28  N   UNL     1     -10.329   6.933  73.430  1.00  0.00    -0.274 NA 
HETATM   29  O   UNL     1     -11.499   5.194  72.522  1.00  0.00    -0.184 OA 
HETATM   30  C   UNL     1      -9.460   7.873  72.959  1.00  0.00    -0.271 C  
BRANCH  25  31
HETATM   31  C   UNL     1     -10.535   6.120  69.938  1.00  0.00    -0.233 C  
HETATM   32  H   UNL     1     -11.159   6.784  68.233  1.00  0.00     0.000 HD 
HETATM   33  O   UNL     1     -10.977   7.152  69.090  1.00  0.00    -0.198 OA 
ENDBRANCH  25  31
ENDBRANCH  22  24
ENDBRANCH  20  22
ENDBRANCH  18  20
ENDBRANCH  17  18
ENDBRANCH  15  17
ENDBRANCH  13  15
ENDBRANCH  11  13
ENDBRANCH   5  11
ENDBRANCH   2   4
TORSDOF 10
ENDMDL
MODEL      328
REMARK 921   NORMALIZED FREE ENERGY PREDICTED BY IDOCK:   -3.97 KCAL/MOL
REMARK 922        TOTAL FREE ENERGY PREDICTED BY IDOCK:   -8.29 KCAL/MOL
REMARK 923 INTER-LIGAND FREE ENERGY PREDICTED BY IDOCK:   -6.72 KCAL/MOL
REMARK 924 INTRA-LIGAND FREE ENERGY PREDICTED BY IDOCK:   -1.57 KCAL/MOL
REMARK 927      BINDING AFFINITY PREDICTED BY RF-SCORE:    0.00 PKD
ROOT
HETATM    1  O   UNL     1      -6.831   8.571  69.044  1.00  0.00    -0.054 OA 
HETATM    2  C   UNL     1      -8.041   7.869  69.198  1.00  0.00    -0.124 C  
HETATM    3  H   UNL     1      -6.977   9.317  68.475  1.00  0.00     0.000 HD 
ENDROOT
BRANCH   2   4
HETATM    4  N   UNL     1      -7.821   6.743  70.055  1.00  0.00    -0.109 N  
HETATM    5  C   UNL     1      -8.128   6.825  71.469  1.00  0.00    -0.110 C  
HETATM    6  O   UNL     1      -6.106   5.841  68.771  1.00  0.00    -0.022 OA 
HETATM    7  C   UNL     1      -6.920   6.045  72.037  1.00  0.00    -0.078 C  
HETATM    8  N   UNL     1      -6.288   5.431  71.001  1.00  0.00    -0.033 NA 
HETATM    9  O   UNL     1      -6.598   5.914  73.208  1.00  0.00    -0.070 OA 
HETATM   10  C   UNL     1      -6.703   5.960  69.829  1.00  0.00    -0.052 C  
BRANCH   5  11
HETATM   11  N   UNL     1      -9.349   6.124  71.779  1.00  0.00    -0.151 N  
HETATM   12  H   UNL     1      -9.394   5.113  71.656  1.00  0.00     0.000 HD 
BRANCH  11  13
HETATM   13  C   UNL     1     -10.447   6.796  72.233  1.00  0.00    -0.208 C  
HETATM   14  O   UNL     1     -10.806   6.799  73.403  1.00  0.00    -0.291 OA 
BRANCH  13  15
HETATM   15  N   UNL     1     -11.054   7.531  71.248  1.00  0.00    -0.243 N  
HETATM   16  H   UNL     1     -10.609   8.378  70.896  1.00  0.00     0.000 HD 
BRANCH  15  17
HETATM   17  C   UNL     1     -12.315   7.108  70.715  1.00  0.00    -0.229 C  
BRANCH  17  18
HETATM   18  N   UNL     1     -13.379   8.018  71.047  1.00  0.00    -0.529 N  
HETATM   19  H   UNL     1     -14.352   7.744  70.911  1.00  0.00     0.000 HD 
BRANCH  18  20
HETATM   20  C   UNL     1     -13.073   9.257  71.547  1.00  0.00    -0.363 C  
HETATM   21  O   UNL     1     -12.731   9.459  72.704  1.00  0.00    -0.265 OA 
BRANCH  20  22
HETATM   22  N   UNL     1     -13.182  10.248  70.600  1.00  0.00    -0.521 N  
HETATM   23  H   UNL     1     -13.858  10.194  69.838  1.00  0.00     0.000 HD 
BRANCH  22  24
HETATM   24  C   UNL     1     -12.287  11.364  70.744  1.00  0.00    -0.386 C  
HETATM   25  N   UNL     1     -11.857  12.004  69.525  1.00  0.00    -0.323 N  
HETATM   26  O   UNL     1     -13.739  12.636  72.321  1.00  0.00    -0.507 OA 
HETATM   27  C   UNL     1     -11.742  13.369  69.692  1.00  0.00    -0.310 C  
HETATM   28  N   UNL     1     -12.339  13.711  70.861  1.00  0.00    -0.366 NA 
HETATM   29  O   UNL     1     -11.237  14.157  68.910  1.00  0.00    -0.242 OA 
HETATM   30  C   UNL     1     -12.906  12.608  71.428  1.00  0.00    -0.261 C  
BRANCH  25  31
HETATM   31  C   UNL     1     -11.337  11.294  68.400  1.00  0.00    -0.281 C  
HETATM   32  H   UNL     1     -11.734  11.181  66.511  1.00  0.00     0.000 HD 
HETATM   33  O   UNL     1     -12.080  11.653  67.260  1.00  0.00    -0.595 OA 
ENDBRANCH  25  31
ENDBRANCH  22  24
ENDBRANCH  20  22
ENDBRANCH  18  20
ENDBRANCH  17  18
ENDBRANCH  15  17
ENDBRANCH  13  15
ENDBRANCH  11  13
ENDBRANCH   5  11
ENDBRANCH   2   4
TORSDOF 10
ENDMDL
MODEL      329
REMARK 921   NORMALIZED FREE ENERGY PREDICTED BY IDOCK:   -3.96 KCAL/MOL
REMARK 922        TOTAL FREE ENERGY PREDICTED BY IDOCK:   -8.27 KCAL/MOL
REMARK 923 INTER-LIGAND FREE ENERGY PREDICTED BY IDOCK:   -6.48 KCAL/MOL
REMARK 924 INTRA-LIGAND FREE ENERGY PREDICTED BY IDOCK:   -1.79 KCAL/MOL
REMARK 927      BINDING AFFINITY PREDICTED BY RF-SCORE:    0.00 PKD
ROOT
HETATM    1  O   UNL     1     -10.962  10.591  70.682  1.00  0.00    -0.415 OA 
HETATM    2  C   UNL     1     -11.783  11.231  69.735  1.00  0.00    -0.349 C  
HETATM    3  H   UNL     1     -10.514   9.866  70.263  1.00  0.00     0.000 HD 
ENDROOT
BRANCH   2   4
HETATM    4  N   UNL     1     -12.461  12.323  70.368  1.00  0.00    -0.198 N  
HETATM    5  C   UNL     1     -11.891  13.655  70.341  1.00  0.00    -0.237 C  
HETATM    6  O   UNL     1     -13.545  11.004  71.945  1.00  0.00    -0.242 OA 
HETATM    7  C   UNL     1     -12.229  14.104  71.780  1.00  0.00    -0.157 C  
HETATM    8  N   UNL     1     -13.100  13.204  72.312  1.00  0.00    -0.385 NA 
HETATM    9  O   UNL     1     -11.862  15.120  72.353  1.00  0.00    -0.382 OA 
HETATM   10  C   UNL     1     -13.115  12.080  71.562  1.00  0.00    -0.261 C  
BRANCH   5  11
HETATM   11  N   UNL     1     -12.578  14.497  69.393  1.00  0.00    -0.557 N  
HETATM   12  H   UNL     1     -13.581  14.383  69.255  1.00  0.00     0.000 HD 
BRANCH  11  13
HETATM   13  C   UNL     1     -11.903  15.444  68.679  1.00  0.00    -0.296 C  
HETATM   14  O   UNL     1     -11.307  16.383  69.189  1.00  0.00    -0.308 OA 
BRANCH  13  15
HETATM   15  N   UNL     1     -11.899  15.179  67.334  1.00  0.00    -0.304 N  
HETATM   16  H   UNL     1     -12.736  15.352  66.778  1.00  0.00     0.000 HD 
BRANCH  15  17
HETATM   17  C   UNL     1     -10.719  14.658  66.711  1.00  0.00    -0.301 C  
BRANCH  17  18
HETATM   18  N   UNL     1      -9.517  15.233  67.256  1.00  0.00    -0.205 N  
HETATM   19  H   UNL     1      -9.522  16.187  67.619  1.00  0.00     0.000 HD 
BRANCH  18  20
HETATM   20  C   UNL     1      -8.367  14.489  67.285  1.00  0.00    -0.212 C  
HETATM   21  O   UNL     1      -7.263  14.930  66.994  1.00  0.00    -0.148 OA 
BRANCH  20  22
HETATM   22  N   UNL     1      -8.589  13.194  67.690  1.00  0.00    -0.179 N  
HETATM   23  H   UNL     1      -8.967  12.974  68.611  1.00  0.00     0.000 HD 
BRANCH  22  24
HETATM   24  C   UNL     1      -8.257  12.167  66.740  1.00  0.00    -0.085 C  
HETATM   25  N   UNL     1      -7.251  11.217  67.148  1.00  0.00    -0.117 N  
HETATM   26  O   UNL     1     -10.597  11.373  66.413  1.00  0.00    -0.246 OA 
HETATM   27  C   UNL     1      -7.539   9.952  66.676  1.00  0.00    -0.103 C  
HETATM   28  N   UNL     1      -8.817   9.944  66.222  1.00  0.00    -0.141 NA 
HETATM   29  O   UNL     1      -6.801   8.982  66.701  1.00  0.00    -0.077 OA 
HETATM   30  C   UNL     1      -9.395  11.158  66.451  1.00  0.00    -0.188 C  
BRANCH  25  31
HETATM   31  C   UNL     1      -5.988  11.590  67.700  1.00  0.00    -0.058 C  
HETATM   32  H   UNL     1      -4.411  12.523  67.083  1.00  0.00     0.000 HD 
HETATM   33  O   UNL     1      -5.251  12.275  66.716  1.00  0.00    -0.332 OA 
ENDBRANCH  25  31
ENDBRANCH  22  24
ENDBRANCH  20  22
ENDBRANCH  18  20
ENDBRANCH  17  18
ENDBRANCH  15  17
ENDBRANCH  13  15
ENDBRANCH  11  13
ENDBRANCH   5  11
ENDBRANCH   2   4
TORSDOF 10
ENDMDL
MODEL      330
REMARK 921   NORMALIZED FREE ENERGY PREDICTED BY IDOCK:   -3.96 KCAL/MOL
REMARK 922        TOTAL FREE ENERGY PREDICTED BY IDOCK:   -8.27 KCAL/MOL
REMARK 923 INTER-LIGAND FREE ENERGY PREDICTED BY IDOCK:   -6.90 KCAL/MOL
REMARK 924 INTRA-LIGAND FREE ENERGY PREDICTED BY IDOCK:   -1.37 KCAL/MOL
REMARK 927      BINDING AFFINITY PREDICTED BY RF-SCORE:    0.00 PKD
ROOT
HETATM    1  O   UNL     1     -11.499   6.567  67.731  1.00  0.00    -0.664 OA 
HETATM    2  C   UNL     1     -10.971   6.355  69.019  1.00  0.00    -0.348 C  
HETATM    3  H   UNL     1     -12.443   6.649  67.795  1.00  0.00     0.000 HD 
ENDROOT
BRANCH   2   4
HETATM    4  N   UNL     1      -9.547   6.231  68.924  1.00  0.00    -0.126 N  
HETATM    5  C   UNL     1      -8.919   5.945  67.650  1.00  0.00    -0.107 C  
HETATM    6  O   UNL     1      -9.256   5.533  71.122  1.00  0.00    -0.146 OA 
HETATM    7  C   UNL     1      -7.828   4.957  68.122  1.00  0.00    -0.083 C  
HETATM    8  N   UNL     1      -7.773   5.004  69.481  1.00  0.00    -0.067 NA 
HETATM    9  O   UNL     1      -7.073   4.289  67.431  1.00  0.00    -0.065 OA 
HETATM   10  C   UNL     1      -8.875   5.616  69.965  1.00  0.00    -0.130 C  
BRANCH   5  11
HETATM   11  N   UNL     1      -8.301   7.124  67.097  1.00  0.00    -0.117 N  
HETATM   12  H   UNL     1      -7.581   7.612  67.629  1.00  0.00     0.000 HD 
BRANCH  11  13
HETATM   13  C   UNL     1      -8.668   7.598  65.870  1.00  0.00    -0.152 C  
HETATM   14  O   UNL     1      -8.049   7.368  64.840  1.00  0.00    -0.128 OA 
BRANCH  13  15
HETATM   15  N   UNL     1      -9.850   8.290  65.910  1.00  0.00    -0.440 N  
HETATM   16  H   UNL     1     -10.652   7.960  65.374  1.00  0.00     0.000 HD 
BRANCH  15  17
HETATM   17  C   UNL     1      -9.956   9.478  66.704  1.00  0.00    -0.247 C  
BRANCH  17  18
HETATM   18  N   UNL     1     -10.369  10.616  65.926  1.00  0.00    -0.247 N  
HETATM   19  H   UNL     1     -11.324  10.969  65.996  1.00  0.00     0.000 HD 
BRANCH  18  20
HETATM   20  C   UNL     1      -9.468  11.224  65.092  1.00  0.00    -0.215 C  
HETATM   21  O   UNL     1      -8.443  10.689  64.690  1.00  0.00    -0.163 OA 
BRANCH  20  22
HETATM   22  N   UNL     1      -9.848  12.500  64.746  1.00  0.00    -0.487 N  
HETATM   23  H   UNL     1     -10.008  12.770  63.776  1.00  0.00     0.000 HD 
BRANCH  22  24
HETATM   24  C   UNL     1     -10.008  13.430  65.830  1.00  0.00    -0.277 C  
HETATM   25  N   UNL     1     -11.309  13.475  66.451  1.00  0.00    -0.308 N  
HETATM   26  O   UNL     1      -8.072  12.591  67.157  1.00  0.00    -0.180 OA 
HETATM   27  C   UNL     1     -11.206  13.681  67.812  1.00  0.00    -0.285 C  
HETATM   28  N   UNL     1      -9.913  13.494  68.178  1.00  0.00    -0.234 NA 
HETATM   29  O   UNL     1     -12.117  13.940  68.579  1.00  0.00    -0.362 OA 
HETATM   30  C   UNL     1      -9.181  13.099  67.097  1.00  0.00    -0.227 C  
BRANCH  25  31
HETATM   31  C   UNL     1     -12.531  13.591  65.720  1.00  0.00    -0.462 C  
HETATM   32  H   UNL     1     -13.572  12.462  64.546  1.00  0.00     0.000 HD 
HETATM   33  O   UNL     1     -12.759  12.385  65.032  1.00  0.00    -0.631 OA 
ENDBRANCH  25  31
ENDBRANCH  22  24
ENDBRANCH  20  22
ENDBRANCH  18  20
ENDBRANCH  17  18
ENDBRANCH  15  17
ENDBRANCH  13  15
ENDBRANCH  11  13
ENDBRANCH   5  11
ENDBRANCH   2   4
TORSDOF 10
ENDMDL
MODEL      331
REMARK 921   NORMALIZED FREE ENERGY PREDICTED BY IDOCK:   -3.95 KCAL/MOL
REMARK 922        TOTAL FREE ENERGY PREDICTED BY IDOCK:   -8.26 KCAL/MOL
REMARK 923 INTER-LIGAND FREE ENERGY PREDICTED BY IDOCK:   -6.49 KCAL/MOL
REMARK 924 INTRA-LIGAND FREE ENERGY PREDICTED BY IDOCK:   -1.76 KCAL/MOL
REMARK 927      BINDING AFFINITY PREDICTED BY RF-SCORE:    0.00 PKD
ROOT
HETATM    1  O   UNL     1      -9.294   5.119  73.696  1.00  0.00    -0.132 OA 
HETATM    2  C   UNL     1      -7.952   5.537  73.630  1.00  0.00    -0.109 C  
HETATM    3  H   UNL     1      -9.410   4.573  74.465  1.00  0.00     0.000 HD 
ENDROOT
BRANCH   2   4
HETATM    4  N   UNL     1      -7.777   6.360  72.471  1.00  0.00    -0.100 N  
HETATM    5  C   UNL     1      -8.585   6.144  71.288  1.00  0.00    -0.129 C  
HETATM    6  O   UNL     1      -5.544   6.844  72.899  1.00  0.00    -0.038 OA 
HETATM    7  C   UNL     1      -7.509   6.365  70.201  1.00  0.00    -0.094 C  
HETATM    8  N   UNL     1      -6.410   6.902  70.797  1.00  0.00    -0.039 NA 
HETATM    9  O   UNL     1      -7.611   6.178  68.998  1.00  0.00    -0.088 OA 
HETATM   10  C   UNL     1      -6.493   6.751  72.137  1.00  0.00    -0.053 C  
BRANCH   5  11
HETATM   11  N   UNL     1      -9.613   7.148  71.168  1.00  0.00    -0.165 N  
HETATM   12  H   UNL     1      -9.366   8.133  71.256  1.00  0.00     0.000 HD 
BRANCH  11  13
HETATM   13  C   UNL     1     -10.912   6.797  70.938  1.00  0.00    -0.260 C  
HETATM   14  O   UNL     1     -11.577   6.113  71.704  1.00  0.00    -0.295 OA 
BRANCH  13  15
HETATM   15  N   UNL     1     -11.411   7.365  69.795  1.00  0.00    -0.484 N  
HETATM   16  H   UNL     1     -12.380   7.199  69.524  1.00  0.00     0.000 HD 
BRANCH  15  17
HETATM   17  C   UNL     1     -10.570   8.193  68.982  1.00  0.00    -0.151 C  
BRANCH  17  18
HETATM   18  N   UNL     1     -11.255   9.368  68.512  1.00  0.00    -0.473 N  
HETATM   19  H   UNL     1     -11.506   9.459  67.528  1.00  0.00     0.000 HD 
BRANCH  18  20
HETATM   20  C   UNL     1     -11.568  10.365  69.399  1.00  0.00    -0.202 C  
HETATM   21  O   UNL     1     -11.359  10.296  70.603  1.00  0.00    -0.313 OA 
BRANCH  20  22
HETATM   22  N   UNL     1     -12.132  11.458  68.784  1.00  0.00    -0.277 N  
HETATM   23  H   UNL     1     -13.104  11.461  68.475  1.00  0.00     0.000 HD 
BRANCH  22  24
HETATM   24  C   UNL     1     -11.273  12.597  68.603  1.00  0.00    -0.282 C  
HETATM   25  N   UNL     1     -11.358  13.267  67.328  1.00  0.00    -0.299 N  
HETATM   26  O   UNL     1     -12.033  13.802  70.647  1.00  0.00    -0.316 OA 
HETATM   27  C   UNL     1     -11.215  14.633  67.472  1.00  0.00    -0.333 C  
HETATM   28  N   UNL     1     -11.324  14.939  68.789  1.00  0.00    -0.272 NA 
HETATM   29  O   UNL     1     -11.065  15.446  66.577  1.00  0.00    -0.308 OA 
HETATM   30  C   UNL     1     -11.607  13.812  69.503  1.00  0.00    -0.297 C  
BRANCH  25  31
HETATM   31  C   UNL     1     -11.295  12.590  66.072  1.00  0.00    -0.344 C  
HETATM   32  H   UNL     1     -12.560  12.023  64.724  1.00  0.00     0.000 HD 
HETATM   33  O   UNL     1     -12.601  12.473  65.559  1.00  0.00    -0.642 OA 
ENDBRANCH  25  31
ENDBRANCH  22  24
ENDBRANCH  20  22
ENDBRANCH  18  20
ENDBRANCH  17  18
ENDBRANCH  15  17
ENDBRANCH  13  15
ENDBRANCH  11  13
ENDBRANCH   5  11
ENDBRANCH   2   4
TORSDOF 10
ENDMDL
MODEL      332
REMARK 921   NORMALIZED FREE ENERGY PREDICTED BY IDOCK:   -3.94 KCAL/MOL
REMARK 922        TOTAL FREE ENERGY PREDICTED BY IDOCK:   -8.25 KCAL/MOL
REMARK 923 INTER-LIGAND FREE ENERGY PREDICTED BY IDOCK:   -6.76 KCAL/MOL
REMARK 924 INTRA-LIGAND FREE ENERGY PREDICTED BY IDOCK:   -1.48 KCAL/MOL
REMARK 927      BINDING AFFINITY PREDICTED BY RF-SCORE:    0.00 PKD
ROOT
HETATM    1  O   UNL     1      -9.698   4.523  72.782  1.00  0.00    -0.135 OA 
HETATM    2  C   UNL     1      -8.343   4.898  72.718  1.00  0.00    -0.112 C  
HETATM    3  H   UNL     1      -9.989   4.568  73.685  1.00  0.00     0.000 HD 
ENDROOT
BRANCH   2   4
HETATM    4  N   UNL     1      -7.905   4.830  71.356  1.00  0.00    -0.093 N  
HETATM    5  C   UNL     1      -8.859   4.614  70.288  1.00  0.00    -0.083 C  
HETATM    6  O   UNL     1      -5.771   4.064  71.867  1.00  0.00    -0.007 OA 
HETATM    7  C   UNL     1      -8.035   3.650  69.403  1.00  0.00    -0.054 C  
HETATM    8  N   UNL     1      -6.753   3.650  69.858  1.00  0.00    -0.033 NA 
HETATM    9  O   UNL     1      -8.410   3.037  68.415  1.00  0.00    -0.067 OA 
HETATM   10  C   UNL     1      -6.701   4.203  71.089  1.00  0.00    -0.034 C  
BRANCH   5  11
HETATM   11  N   UNL     1      -9.120   5.835  69.566  1.00  0.00    -0.129 N  
HETATM   12  H   UNL     1      -8.368   6.277  69.038  1.00  0.00     0.000 HD 
BRANCH  11  13
HETATM   13  C   UNL     1     -10.359   6.408  69.582  1.00  0.00    -0.204 C  
HETATM   14  O   UNL     1     -11.053   6.552  68.585  1.00  0.00    -0.293 OA 
BRANCH  13  15
HETATM   15  N   UNL     1     -10.769   6.728  70.849  1.00  0.00    -0.228 N  
HETATM   16  H   UNL     1     -10.085   7.007  71.552  1.00  0.00     0.000 HD 
BRANCH  15  17
HETATM   17  C   UNL     1     -12.161   6.671  71.186  1.00  0.00    -0.335 C  
BRANCH  17  18
HETATM   18  N   UNL     1     -12.876   7.839  70.741  1.00  0.00    -0.503 N  
HETATM   19  H   UNL     1     -13.610   7.755  70.037  1.00  0.00     0.000 HD 
BRANCH  18  20
HETATM   20  C   UNL     1     -12.562   9.063  71.270  1.00  0.00    -0.280 C  
HETATM   21  O   UNL     1     -12.010   9.217  72.351  1.00  0.00    -0.278 OA 
BRANCH  20  22
HETATM   22  N   UNL     1     -12.925  10.101  70.445  1.00  0.00    -0.585 N  
HETATM   23  H   UNL     1     -13.693  10.017  69.778  1.00  0.00     0.000 HD 
BRANCH  22  24
HETATM   24  C   UNL     1     -12.161  11.312  70.575  1.00  0.00    -0.383 C  
HETATM   25  N   UNL     1     -11.910  12.046  69.359  1.00  0.00    -0.323 N  
HETATM   26  O   UNL     1     -13.623  12.335  72.315  1.00  0.00    -0.472 OA 
HETATM   27  C   UNL     1     -11.945  13.408  69.581  1.00  0.00    -0.324 C  
HETATM   28  N   UNL     1     -12.483  13.629  70.807  1.00  0.00    -0.359 NA 
HETATM   29  O   UNL     1     -11.601  14.280  68.803  1.00  0.00    -0.283 OA 
HETATM   30  C   UNL     1     -12.867  12.443  71.362  1.00  0.00    -0.260 C  
BRANCH  25  31
HETATM   31  C   UNL     1     -11.400  11.449  68.166  1.00  0.00    -0.304 C  
HETATM   32  H   UNL     1     -11.782  11.558  66.273  1.00  0.00     0.000 HD 
HETATM   33  O   UNL     1     -12.120  11.954  67.068  1.00  0.00    -0.600 OA 
ENDBRANCH  25  31
ENDBRANCH  22  24
ENDBRANCH  20  22
ENDBRANCH  18  20
ENDBRANCH  17  18
ENDBRANCH  15  17
ENDBRANCH  13  15
ENDBRANCH  11  13
ENDBRANCH   5  11
ENDBRANCH   2   4
TORSDOF 10
ENDMDL
MODEL      333
REMARK 921   NORMALIZED FREE ENERGY PREDICTED BY IDOCK:   -3.93 KCAL/MOL
REMARK 922        TOTAL FREE ENERGY PREDICTED BY IDOCK:   -8.22 KCAL/MOL
REMARK 923 INTER-LIGAND FREE ENERGY PREDICTED BY IDOCK:   -6.73 KCAL/MOL
REMARK 924 INTRA-LIGAND FREE ENERGY PREDICTED BY IDOCK:   -1.49 KCAL/MOL
REMARK 927      BINDING AFFINITY PREDICTED BY RF-SCORE:    0.00 PKD
ROOT
HETATM    1  O   UNL     1      -7.759  10.473  65.398  1.00  0.00    -0.169 OA 
HETATM    2  C   UNL     1      -9.011  10.063  64.903  1.00  0.00    -0.205 C  
HETATM    3  H   UNL     1      -7.234   9.704  65.586  1.00  0.00     0.000 HD 
ENDROOT
BRANCH   2   4
HETATM    4  N   UNL     1      -9.803  11.222  64.621  1.00  0.00    -0.253 N  
HETATM    5  C   UNL     1     -11.047  11.451  65.327  1.00  0.00    -0.129 C  
HETATM    6  O   UNL     1      -9.065  11.444  62.427  1.00  0.00    -0.296 OA 
HETATM    7  C   UNL     1     -11.907  11.986  64.160  1.00  0.00    -0.373 C  
HETATM    8  N   UNL     1     -11.082  12.245  63.110  1.00  0.00    -0.290 NA 
HETATM    9  O   UNL     1     -13.106  12.222  64.161  1.00  0.00    -0.749 OA 
HETATM   10  C   UNL     1      -9.884  11.653  63.308  1.00  0.00    -0.405 C  
BRANCH   5  11
HETATM   11  N   UNL     1     -10.895  12.476  66.330  1.00  0.00    -0.255 N  
HETATM   12  H   UNL     1     -10.676  13.430  66.046  1.00  0.00     0.000 HD 
BRANCH  11  13
HETATM   13  C   UNL     1     -11.042  12.186  67.656  1.00  0.00    -0.268 C  
HETATM   14  O   UNL     1     -11.120  13.037  68.533  1.00  0.00    -0.240 OA 
BRANCH  13  15
HETATM   15  N   UNL     1     -11.172  10.842  67.886  1.00  0.00    -0.309 N  
HETATM   16  H   UNL     1     -11.024  10.178  67.125  1.00  0.00     0.000 HD 
BRANCH  15  17
HETATM   17  C   UNL     1     -11.516  10.369  69.194  1.00  0.00    -0.196 C  
BRANCH  17  18
HETATM   18  N   UNL     1     -11.323   8.949  69.327  1.00  0.00    -0.363 N  
HETATM   19  H   UNL     1     -11.968   8.298  68.879  1.00  0.00     0.000 HD 
BRANCH  18  20
HETATM   20  C   UNL     1     -10.265   8.479  70.060  1.00  0.00    -0.198 C  
HETATM   21  O   UNL     1      -9.987   8.874  71.184  1.00  0.00    -0.221 OA 
BRANCH  20  22
HETATM   22  N   UNL     1      -9.558   7.504  69.397  1.00  0.00    -0.155 N  
HETATM   23  H   UNL     1      -8.694   7.711  68.896  1.00  0.00     0.000 HD 
BRANCH  22  24
HETATM   24  C   UNL     1     -10.104   6.175  69.452  1.00  0.00    -0.184 C  
HETATM   25  N   UNL     1      -9.817   5.317  68.329  1.00  0.00    -0.147 N  
HETATM   26  O   UNL     1      -9.138   5.607  71.677  1.00  0.00    -0.139 OA 
HETATM   27  C   UNL     1      -9.625   4.012  68.735  1.00  0.00    -0.130 C  
HETATM   28  N   UNL     1      -9.486   3.998  70.084  1.00  0.00    -0.172 NA 
HETATM   29  O   UNL     1      -9.542   3.031  68.015  1.00  0.00    -0.191 OA 
HETATM   30  C   UNL     1      -9.512   5.275  70.563  1.00  0.00    -0.167 C  
BRANCH  25  31
HETATM   31  C   UNL     1     -10.004   5.706  66.967  1.00  0.00    -0.169 C  
HETATM   32  H   UNL     1     -10.942   7.112  66.029  1.00  0.00     0.000 HD 
HETATM   33  O   UNL     1     -10.818   6.853  66.935  1.00  0.00    -0.351 OA 
ENDBRANCH  25  31
ENDBRANCH  22  24
ENDBRANCH  20  22
ENDBRANCH  18  20
ENDBRANCH  17  18
ENDBRANCH  15  17
ENDBRANCH  13  15
ENDBRANCH  11  13
ENDBRANCH   5  11
ENDBRANCH   2   4
TORSDOF 10
ENDMDL
MODEL      334
REMARK 921   NORMALIZED FREE ENERGY PREDICTED BY IDOCK:   -3.92 KCAL/MOL
REMARK 922        TOTAL FREE ENERGY PREDICTED BY IDOCK:   -8.21 KCAL/MOL
REMARK 923 INTER-LIGAND FREE ENERGY PREDICTED BY IDOCK:   -6.46 KCAL/MOL
REMARK 924 INTRA-LIGAND FREE ENERGY PREDICTED BY IDOCK:   -1.75 KCAL/MOL
REMARK 927      BINDING AFFINITY PREDICTED BY RF-SCORE:    0.00 PKD
ROOT
HETATM    1  O   UNL     1     -12.442   5.386  73.079  1.00  0.00    -0.466 OA 
HETATM    2  C   UNL     1     -11.155   5.107  72.583  1.00  0.00    -0.234 C  
HETATM    3  H   UNL     1     -12.772   4.618  73.531  1.00  0.00     0.000 HD 
ENDROOT
BRANCH   2   4
HETATM    4  N   UNL     1     -10.658   6.264  71.901  1.00  0.00    -0.213 N  
HETATM    5  C   UNL     1      -9.691   6.127  70.831  1.00  0.00    -0.177 C  
HETATM    6  O   UNL     1     -10.965   7.707  73.697  1.00  0.00    -0.301 OA 
HETATM    7  C   UNL     1      -8.784   7.336  71.153  1.00  0.00    -0.135 C  
HETATM    8  N   UNL     1      -9.416   8.105  72.080  1.00  0.00    -0.192 NA 
HETATM    9  O   UNL     1      -7.716   7.629  70.635  1.00  0.00    -0.085 OA 
HETATM   10  C   UNL     1     -10.429   7.410  72.642  1.00  0.00    -0.255 C  
BRANCH   5  11
HETATM   11  N   UNL     1     -10.309   6.310  69.542  1.00  0.00    -0.195 N  
HETATM   12  H   UNL     1     -10.925   7.108  69.388  1.00  0.00     0.000 HD 
BRANCH  11  13
HETATM   13  C   UNL     1     -10.082   5.431  68.523  1.00  0.00    -0.177 C  
HETATM   14  O   UNL     1      -9.579   4.326  68.679  1.00  0.00    -0.156 OA 
BRANCH  13  15
HETATM   15  N   UNL     1     -10.553   5.890  67.322  1.00  0.00    -0.261 N  
HETATM   16  H   UNL     1     -11.512   5.688  67.039  1.00  0.00     0.000 HD 
BRANCH  15  17
HETATM   17  C   UNL     1      -9.699   6.655  66.463  1.00  0.00    -0.121 C  
BRANCH  17  18
HETATM   18  N   UNL     1     -10.065   8.047  66.431  1.00  0.00    -0.476 N  
HETATM   19  H   UNL     1     -10.929   8.362  66.873  1.00  0.00     0.000 HD 
BRANCH  18  20
HETATM   20  C   UNL     1      -9.244   8.945  65.802  1.00  0.00    -0.221 C  
HETATM   21  O   UNL     1      -8.446   8.641  64.925  1.00  0.00    -0.169 OA 
BRANCH  20  22
HETATM   22  N   UNL     1      -9.424  10.231  66.256  1.00  0.00    -0.170 N  
HETATM   23  H   UNL     1      -8.677  10.925  66.220  1.00  0.00     0.000 HD 
BRANCH  22  24
HETATM   24  C   UNL     1     -10.724  10.540  66.786  1.00  0.00    -0.188 C  
HETATM   25  N   UNL     1     -10.772  10.956  68.166  1.00  0.00    -0.198 N  
HETATM   26  O   UNL     1     -11.322  12.187  65.013  1.00  0.00    -0.318 OA 
HETATM   27  C   UNL     1     -11.730  11.929  68.361  1.00  0.00    -0.326 C  
HETATM   28  N   UNL     1     -12.127  12.390  67.148  1.00  0.00    -0.512 NA 
HETATM   29  O   UNL     1     -12.130  12.352  69.432  1.00  0.00    -0.265 OA 
HETATM   30  C   UNL     1     -11.397  11.789  66.166  1.00  0.00    -0.280 C  
BRANCH  25  31
HETATM   31  C   UNL     1     -10.131  10.248  69.229  1.00  0.00    -0.227 C  
HETATM   32  H   UNL     1      -8.344  10.135  69.958  1.00  0.00     0.000 HD 
HETATM   33  O   UNL     1      -8.771  10.606  69.251  1.00  0.00    -0.149 OA 
ENDBRANCH  25  31
ENDBRANCH  22  24
ENDBRANCH  20  22
ENDBRANCH  18  20
ENDBRANCH  17  18
ENDBRANCH  15  17
ENDBRANCH  13  15
ENDBRANCH  11  13
ENDBRANCH   5  11
ENDBRANCH   2   4
TORSDOF 10
ENDMDL
MODEL      335
REMARK 921   NORMALIZED FREE ENERGY PREDICTED BY IDOCK:   -3.92 KCAL/MOL
REMARK 922        TOTAL FREE ENERGY PREDICTED BY IDOCK:   -8.20 KCAL/MOL
REMARK 923 INTER-LIGAND FREE ENERGY PREDICTED BY IDOCK:   -6.50 KCAL/MOL
REMARK 924 INTRA-LIGAND FREE ENERGY PREDICTED BY IDOCK:   -1.70 KCAL/MOL
REMARK 927      BINDING AFFINITY PREDICTED BY RF-SCORE:    0.00 PKD
ROOT
HETATM    1  O   UNL     1     -11.188   6.111  71.487  1.00  0.00    -0.275 OA 
HETATM    2  C   UNL     1      -9.899   6.401  71.974  1.00  0.00    -0.156 C  
HETATM    3  H   UNL     1     -11.824   6.294  72.168  1.00  0.00     0.000 HD 
ENDROOT
BRANCH   2   4
HETATM    4  N   UNL     1      -8.940   6.126  70.947  1.00  0.00    -0.142 N  
HETATM    5  C   UNL     1      -9.354   6.029  69.562  1.00  0.00    -0.136 C  
HETATM    6  O   UNL     1      -7.482   4.965  72.337  1.00  0.00    -0.085 OA 
HETATM    7  C   UNL     1      -8.474   4.840  69.116  1.00  0.00    -0.080 C  
HETATM    8  N   UNL     1      -7.556   4.602  70.092  1.00  0.00    -0.054 NA 
HETATM    9  O   UNL     1      -8.511   4.239  68.053  1.00  0.00    -0.093 OA 
HETATM   10  C   UNL     1      -7.920   5.234  71.230  1.00  0.00    -0.109 C  
BRANCH   5  11
HETATM   11  N   UNL     1      -8.986   7.212  68.824  1.00  0.00    -0.129 N  
HETATM   12  H   UNL     1      -8.003   7.390  68.619  1.00  0.00     0.000 HD 
BRANCH  11  13
HETATM   13  C   UNL     1      -9.934   8.096  68.398  1.00  0.00    -0.190 C  
HETATM   14  O   UNL     1     -10.694   7.879  67.464  1.00  0.00    -0.247 OA 
BRANCH  13  15
HETATM   15  N   UNL     1      -9.991   9.218  69.182  1.00  0.00    -0.173 N  
HETATM   16  H   UNL     1      -9.298   9.364  69.916  1.00  0.00     0.000 HD 
BRANCH  15  17
HETATM   17  C   UNL     1     -11.026  10.186  68.970  1.00  0.00    -0.226 C  
BRANCH  17  18
HETATM   18  N   UNL     1     -10.900  10.848  67.698  1.00  0.00    -0.245 N  
HETATM   19  H   UNL     1     -11.603  10.707  66.972  1.00  0.00     0.000 HD 
BRANCH  18  20
HETATM   20  C   UNL     1      -9.827  11.669  67.470  1.00  0.00    -0.188 C  
HETATM   21  O   UNL     1      -9.065  12.054  68.346  1.00  0.00    -0.188 OA 
BRANCH  20  22
HETATM   22  N   UNL     1      -9.693  12.003  66.142  1.00  0.00    -0.234 N  
HETATM   23  H   UNL     1      -8.796  12.279  65.744  1.00  0.00     0.000 HD 
BRANCH  22  24
HETATM   24  C   UNL     1     -10.891  11.941  65.349  1.00  0.00    -0.294 C  
HETATM   25  N   UNL     1     -11.499  13.203  65.007  1.00  0.00    -0.301 N  
HETATM   26  O   UNL     1      -9.904  10.551  63.530  1.00  0.00    -0.314 OA 
HETATM   27  C   UNL     1     -12.034  13.171  63.735  1.00  0.00    -0.508 C  
HETATM   28  N   UNL     1     -11.571  12.063  63.103  1.00  0.00    -0.270 NA 
HETATM   29  O   UNL     1     -12.759  14.010  63.230  1.00  0.00    -0.750 OA 
HETATM   30  C   UNL     1     -10.689  11.407  63.910  1.00  0.00    -0.397 C  
BRANCH  25  31
HETATM   31  C   UNL     1     -11.775  14.232  65.958  1.00  0.00    -0.379 C  
HETATM   32  H   UNL     1     -12.567  14.335  67.719  1.00  0.00     0.000 HD 
HETATM   33  O   UNL     1     -12.383  13.651  67.086  1.00  0.00    -0.336 OA 
ENDBRANCH  25  31
ENDBRANCH  22  24
ENDBRANCH  20  22
ENDBRANCH  18  20
ENDBRANCH  17  18
ENDBRANCH  15  17
ENDBRANCH  13  15
ENDBRANCH  11  13
ENDBRANCH   5  11
ENDBRANCH   2   4
TORSDOF 10
ENDMDL
MODEL      336
REMARK 921   NORMALIZED FREE ENERGY PREDICTED BY IDOCK:   -3.92 KCAL/MOL
REMARK 922        TOTAL FREE ENERGY PREDICTED BY IDOCK:   -8.20 KCAL/MOL
REMARK 923 INTER-LIGAND FREE ENERGY PREDICTED BY IDOCK:   -6.73 KCAL/MOL
REMARK 924 INTRA-LIGAND FREE ENERGY PREDICTED BY IDOCK:   -1.48 KCAL/MOL
REMARK 927      BINDING AFFINITY PREDICTED BY RF-SCORE:    0.00 PKD
ROOT
HETATM    1  O   UNL     1      -7.706   6.648  67.711  1.00  0.00    -0.103 OA 
HETATM    2  C   UNL     1      -7.778   6.559  69.114  1.00  0.00    -0.102 C  
HETATM    3  H   UNL     1      -6.807   6.821  67.459  1.00  0.00     0.000 HD 
ENDROOT
BRANCH   2   4
HETATM    4  N   UNL     1      -9.135   6.298  69.494  1.00  0.00    -0.137 N  
HETATM    5  C   UNL     1      -9.608   6.657  70.816  1.00  0.00    -0.175 C  
HETATM    6  O   UNL     1      -9.404   4.488  68.061  1.00  0.00    -0.125 OA 
HETATM    7  C   UNL     1     -10.490   5.423  71.113  1.00  0.00    -0.225 C  
HETATM    8  N   UNL     1     -10.637   4.719  69.958  1.00  0.00     0.067 NA 
HETATM    9  O   UNL     1     -11.041   5.133  72.164  1.00  0.00    -0.171 OA 
HETATM   10  C   UNL     1      -9.723   5.127  69.051  1.00  0.00    -0.161 C  
BRANCH   5  11
HETATM   11  N   UNL     1     -10.428   7.842  70.771  1.00  0.00    -0.208 N  
HETATM   12  H   UNL     1     -10.246   8.554  70.064  1.00  0.00     0.000 HD 
BRANCH  11  13
HETATM   13  C   UNL     1     -11.445   8.026  71.663  1.00  0.00    -0.266 C  
HETATM   14  O   UNL     1     -11.272   8.252  72.853  1.00  0.00    -0.337 OA 
BRANCH  13  15
HETATM   15  N   UNL     1     -12.676   8.009  71.062  1.00  0.00    -0.513 N  
HETATM   16  H   UNL     1     -12.864   7.354  70.303  1.00  0.00     0.000 HD 
BRANCH  15  17
HETATM   17  C   UNL     1     -13.698   8.912  71.500  1.00  0.00    -0.345 C  
BRANCH  17  18
HETATM   18  N   UNL     1     -13.225  10.269  71.583  1.00  0.00    -0.410 N  
HETATM   19  H   UNL     1     -13.375  10.815  72.432  1.00  0.00     0.000 HD 
BRANCH  18  20
HETATM   20  C   UNL     1     -12.572  10.821  70.513  1.00  0.00    -0.336 C  
HETATM   21  O   UNL     1     -12.735  10.461  69.355  1.00  0.00    -0.071 OA 
BRANCH  20  22
HETATM   22  N   UNL     1     -11.719  11.835  70.883  1.00  0.00    -0.207 N  
HETATM   23  H   UNL     1     -10.884  11.660  71.442  1.00  0.00     0.000 HD 
BRANCH  22  24
HETATM   24  C   UNL     1     -12.072  13.155  70.437  1.00  0.00    -0.317 C  
HETATM   25  N   UNL     1     -12.221  14.160  71.461  1.00  0.00    -0.311 N  
HETATM   26  O   UNL     1     -10.198  13.369  68.807  1.00  0.00    -0.211 OA 
HETATM   27  C   UNL     1     -11.761  15.387  71.027  1.00  0.00    -0.364 C  
HETATM   28  N   UNL     1     -11.056  15.200  69.883  1.00  0.00    -0.269 NA 
HETATM   29  O   UNL     1     -11.910  16.459  71.588  1.00  0.00    -0.456 OA 
HETATM   30  C   UNL     1     -10.984  13.869  69.597  1.00  0.00    -0.002 C  
BRANCH  25  31
HETATM   31  C   UNL     1     -13.007  13.978  72.639  1.00  0.00    -0.387 C  
HETATM   32  H   UNL     1     -14.599  12.992  73.122  1.00  0.00     0.000 HD 
HETATM   33  O   UNL     1     -14.075  13.113  72.338  1.00  0.00    -0.583 OA 
ENDBRANCH  25  31
ENDBRANCH  22  24
ENDBRANCH  20  22
ENDBRANCH  18  20
ENDBRANCH  17  18
ENDBRANCH  15  17
ENDBRANCH  13  15
ENDBRANCH  11  13
ENDBRANCH   5  11
ENDBRANCH   2   4
TORSDOF 10
ENDMDL
MODEL      337
REMARK 921   NORMALIZED FREE ENERGY PREDICTED BY IDOCK:   -3.91 KCAL/MOL
REMARK 922        TOTAL FREE ENERGY PREDICTED BY IDOCK:   -8.20 KCAL/MOL
REMARK 923 INTER-LIGAND FREE ENERGY PREDICTED BY IDOCK:   -5.99 KCAL/MOL
REMARK 924 INTRA-LIGAND FREE ENERGY PREDICTED BY IDOCK:   -2.21 KCAL/MOL
REMARK 927      BINDING AFFINITY PREDICTED BY RF-SCORE:    0.00 PKD
ROOT
HETATM    1  O   UNL     1     -13.340  15.626  72.628  1.00  0.00    -0.450 OA 
HETATM    2  C   UNL     1     -13.519  15.275  71.277  1.00  0.00    -0.514 C  
HETATM    3  H   UNL     1     -14.047  16.202  72.893  1.00  0.00     0.000 HD 
ENDROOT
BRANCH   2   4
HETATM    4  N   UNL     1     -12.452  14.407  70.876  1.00  0.00    -0.330 N  
HETATM    5  C   UNL     1     -11.700  14.678  69.667  1.00  0.00    -0.313 C  
HETATM    6  O   UNL     1     -13.329  12.517  71.907  1.00  0.00    -0.467 OA 
HETATM    7  C   UNL     1     -11.545  13.234  69.136  1.00  0.00    -0.319 C  
HETATM    8  N   UNL     1     -11.925  12.377  70.122  1.00  0.00    -0.339 NA 
HETATM    9  O   UNL     1     -11.094  12.878  68.058  1.00  0.00    -0.232 OA 
HETATM   10  C   UNL     1     -12.607  13.047  71.077  1.00  0.00    -0.299 C  
BRANCH   5  11
HETATM   11  N   UNL     1     -10.402  15.227  69.973  1.00  0.00    -0.440 N  
HETATM   12  H   UNL     1     -10.161  15.440  70.940  1.00  0.00     0.000 HD 
BRANCH  11  13
HETATM   13  C   UNL     1      -9.491  15.465  68.984  1.00  0.00    -0.236 C  
HETATM   14  O   UNL     1      -9.631  16.325  68.125  1.00  0.00    -0.214 OA 
BRANCH  13  15
HETATM   15  N   UNL     1      -8.369  14.690  69.111  1.00  0.00    -0.332 N  
HETATM   16  H   UNL     1      -7.892  14.627  70.010  1.00  0.00     0.000 HD 
BRANCH  15  17
HETATM   17  C   UNL     1      -7.866  13.969  67.980  1.00  0.00    -0.152 C  
BRANCH  17  18
HETATM   18  N   UNL     1      -8.130  12.557  68.074  1.00  0.00    -0.153 N  
HETATM   19  H   UNL     1      -8.637  12.078  67.330  1.00  0.00     0.000 HD 
BRANCH  18  20
HETATM   20  C   UNL     1      -7.694  11.862  69.171  1.00  0.00     0.162 C  
HETATM   21  O   UNL     1      -6.609  12.044  69.706  1.00  0.00    -0.097 OA 
BRANCH  20  22
HETATM   22  N   UNL     1      -8.618  10.945  69.614  1.00  0.00    -0.325 N  
HETATM   23  H   UNL     1      -9.463  11.227  70.110  1.00  0.00     0.000 HD 
BRANCH  22  24
HETATM   24  C   UNL     1      -8.324   9.565  69.338  1.00  0.00    -0.140 C  
HETATM   25  N   UNL     1      -8.842   8.599  70.275  1.00  0.00    -0.144 N  
HETATM   26  O   UNL     1      -9.224   9.586  67.014  1.00  0.00    -0.135 OA 
HETATM   27  C   UNL     1      -9.244   7.445  69.633  1.00  0.00    -0.146 C  
HETATM   28  N   UNL     1      -9.290   7.691  68.299  1.00  0.00    -0.145 NA 
HETATM   29  O   UNL     1      -9.556   6.391  70.159  1.00  0.00    -0.159 OA 
HETATM   30  C   UNL     1      -8.995   9.001  68.062  1.00  0.00    -0.132 C  
BRANCH  25  31
HETATM   31  C   UNL     1      -8.681   8.704  71.691  1.00  0.00    -0.203 C  
HETATM   32  H   UNL     1      -9.605   9.585  73.143  1.00  0.00     0.000 HD 
HETATM   33  O   UNL     1      -9.712   9.514  72.201  1.00  0.00     0.263 OA 
ENDBRANCH  25  31
ENDBRANCH  22  24
ENDBRANCH  20  22
ENDBRANCH  18  20
ENDBRANCH  17  18
ENDBRANCH  15  17
ENDBRANCH  13  15
ENDBRANCH  11  13
ENDBRANCH   5  11
ENDBRANCH   2   4
TORSDOF 10
ENDMDL
MODEL      338
REMARK 921   NORMALIZED FREE ENERGY PREDICTED BY IDOCK:   -3.91 KCAL/MOL
REMARK 922        TOTAL FREE ENERGY PREDICTED BY IDOCK:   -8.20 KCAL/MOL
REMARK 923 INTER-LIGAND FREE ENERGY PREDICTED BY IDOCK:   -6.78 KCAL/MOL
REMARK 924 INTRA-LIGAND FREE ENERGY PREDICTED BY IDOCK:   -1.41 KCAL/MOL
REMARK 927      BINDING AFFINITY PREDICTED BY RF-SCORE:    0.00 PKD
ROOT
HETATM    1  O   UNL     1      -5.910   9.494  67.541  1.00  0.00    -0.044 OA 
HETATM    2  C   UNL     1      -6.516   9.856  66.323  1.00  0.00    -0.077 C  
HETATM    3  H   UNL     1      -4.968   9.466  67.421  1.00  0.00     0.000 HD 
ENDROOT
BRANCH   2   4
HETATM    4  N   UNL     1      -7.936   9.897  66.504  1.00  0.00    -0.109 N  
HETATM    5  C   UNL     1      -8.571   9.082  67.519  1.00  0.00    -0.120 C  
HETATM    6  O   UNL     1      -8.404  10.487  64.304  1.00  0.00    -0.160 OA 
HETATM    7  C   UNL     1      -9.831   8.642  66.739  1.00  0.00    -0.253 C  
HETATM    8  N   UNL     1      -9.913   9.394  65.608  1.00  0.00    -0.250 NA 
HETATM    9  O   UNL     1     -10.673   7.824  67.078  1.00  0.00    -0.347 OA 
HETATM   10  C   UNL     1      -8.734  10.011  65.378  1.00  0.00    -0.159 C  
BRANCH   5  11
HETATM   11  N   UNL     1      -8.956   9.875  68.659  1.00  0.00    -0.125 N  
HETATM   12  H   UNL     1      -8.921   9.464  69.592  1.00  0.00     0.000 HD 
BRANCH  11  13
HETATM   13  C   UNL     1      -9.366  11.168  68.508  1.00  0.00    -0.190 C  
HETATM   14  O   UNL     1     -10.527  11.492  68.297  1.00  0.00    -0.183 OA 
BRANCH  13  15
HETATM   15  N   UNL     1      -8.347  12.064  68.700  1.00  0.00    -0.318 N  
HETATM   16  H   UNL     1      -7.842  12.081  69.586  1.00  0.00     0.000 HD 
BRANCH  15  17
HETATM   17  C   UNL     1      -7.993  12.978  67.655  1.00  0.00    -0.169 C  
BRANCH  17  18
HETATM   18  N   UNL     1      -8.816  14.158  67.662  1.00  0.00    -0.184 N  
HETATM   19  H   UNL     1      -8.886  14.732  68.503  1.00  0.00     0.000 HD 
BRANCH  18  20
HETATM   20  C   UNL     1      -9.506  14.505  66.530  1.00  0.00    -0.289 C  
HETATM   21  O   UNL     1     -10.335  13.785  65.990  1.00  0.00    -0.293 OA 
BRANCH  20  22
HETATM   22  N   UNL     1      -9.173  15.760  66.075  1.00  0.00    -0.349 N  
HETATM   23  H   UNL     1      -8.302  15.938  65.576  1.00  0.00     0.000 HD 
BRANCH  22  24
HETATM   24  C   UNL     1     -10.123  16.805  66.343  1.00  0.00    -0.317 C  
HETATM   25  N   UNL     1      -9.585  18.052  66.828  1.00  0.00    -0.291 N  
HETATM   26  O   UNL     1     -11.187  16.749  64.090  1.00  0.00    -1.155 OA 
HETATM   27  C   UNL     1     -10.283  19.128  66.318  1.00  0.00    -0.452 C  
HETATM   28  N   UNL     1     -11.070  18.688  65.304  1.00  0.00    -0.213 NA 
HETATM   29  O   UNL     1     -10.186  20.291  66.672  1.00  0.00    -0.438 OA 
HETATM   30  C   UNL     1     -10.848  17.359  65.093  1.00  0.00     0.142 C  
BRANCH  25  31
HETATM   31  C   UNL     1      -8.660  18.147  67.912  1.00  0.00    -0.254 C  
HETATM   32  H   UNL     1      -6.789  17.750  68.195  1.00  0.00     0.000 HD 
HETATM   33  O   UNL     1      -7.405  17.687  67.473  1.00  0.00    -0.184 OA 
ENDBRANCH  25  31
ENDBRANCH  22  24
ENDBRANCH  20  22
ENDBRANCH  18  20
ENDBRANCH  17  18
ENDBRANCH  15  17
ENDBRANCH  13  15
ENDBRANCH  11  13
ENDBRANCH   5  11
ENDBRANCH   2   4
TORSDOF 10
ENDMDL
MODEL      339
REMARK 921   NORMALIZED FREE ENERGY PREDICTED BY IDOCK:   -3.90 KCAL/MOL
REMARK 922        TOTAL FREE ENERGY PREDICTED BY IDOCK:   -8.18 KCAL/MOL
REMARK 923 INTER-LIGAND FREE ENERGY PREDICTED BY IDOCK:   -6.97 KCAL/MOL
REMARK 924 INTRA-LIGAND FREE ENERGY PREDICTED BY IDOCK:   -1.22 KCAL/MOL
REMARK 927      BINDING AFFINITY PREDICTED BY RF-SCORE:    0.00 PKD
ROOT
HETATM    1  O   UNL     1      -9.878   7.850  73.775  1.00  0.00    -0.305 OA 
HETATM    2  C   UNL     1      -8.536   7.430  73.841  1.00  0.00    -0.203 C  
HETATM    3  H   UNL     1     -10.391   7.342  74.391  1.00  0.00     0.000 HD 
ENDROOT
BRANCH   2   4
HETATM    4  N   UNL     1      -7.762   8.197  72.910  1.00  0.00    -0.137 N  
HETATM    5  C   UNL     1      -7.943   8.020  71.484  1.00  0.00    -0.105 C  
HETATM    6  O   UNL     1      -5.951   8.483  74.339  1.00  0.00    -0.111 OA 
HETATM    7  C   UNL     1      -6.468   8.106  71.029  1.00  0.00    -0.038 C  
HETATM    8  N   UNL     1      -5.727   8.556  72.077  1.00  0.00    -0.045 NA 
HETATM    9  O   UNL     1      -6.015   7.892  69.914  1.00  0.00    -0.023 OA 
HETATM   10  C   UNL     1      -6.439   8.456  73.221  1.00  0.00    -0.106 C  
BRANCH   5  11
HETATM   11  N   UNL     1      -8.693   9.111  70.914  1.00  0.00    -0.223 N  
HETATM   12  H   UNL     1      -8.690  10.020  71.377  1.00  0.00     0.000 HD 
BRANCH  11  13
HETATM   13  C   UNL     1      -9.409   8.946  69.764  1.00  0.00    -0.166 C  
HETATM   14  O   UNL     1      -9.812   7.862  69.365  1.00  0.00    -0.175 OA 
BRANCH  13  15
HETATM   15  N   UNL     1      -9.692  10.137  69.150  1.00  0.00    -0.204 N  
HETATM   16  H   UNL     1     -10.660  10.393  68.955  1.00  0.00     0.000 HD 
BRANCH  15  17
HETATM   17  C   UNL     1      -8.628  11.023  68.780  1.00  0.00    -0.144 C  
BRANCH  17  18
HETATM   18  N   UNL     1      -9.094  12.364  68.546  1.00  0.00    -0.363 N  
HETATM   19  H   UNL     1      -9.144  13.034  69.314  1.00  0.00     0.000 HD 
BRANCH  18  20
HETATM   20  C   UNL     1      -9.471  12.735  67.282  1.00  0.00    -0.204 C  
HETATM   21  O   UNL     1      -9.239  12.072  66.280  1.00  0.00    -0.225 OA 
BRANCH  20  22
HETATM   22  N   UNL     1     -10.151  13.930  67.265  1.00  0.00    -0.240 N  
HETATM   23  H   UNL     1     -10.772  14.208  68.025  1.00  0.00     0.000 HD 
BRANCH  22  24
HETATM   24  C   UNL     1      -9.935  14.766  66.116  1.00  0.00    -0.304 C  
HETATM   25  N   UNL     1     -11.064  14.951  65.236  1.00  0.00    -0.358 N  
HETATM   26  O   UNL     1      -9.078  16.724  67.397  1.00  0.00    -0.213 OA 
HETATM   27  C   UNL     1     -11.095  16.233  64.727  1.00  0.00    -0.281 C  
HETATM   28  N   UNL     1     -10.222  16.996  65.431  1.00  0.00    -0.617 NA 
HETATM   29  O   UNL     1     -11.813  16.642  63.830  1.00  0.00    -1.047 OA 
HETATM   30  C   UNL     1      -9.673  16.258  66.437  1.00  0.00    -0.288 C  
BRANCH  25  31
HETATM   31  C   UNL     1     -11.858  13.876  64.731  1.00  0.00    -0.397 C  
HETATM   32  H   UNL     1     -13.181  12.659  65.443  1.00  0.00     0.000 HD 
HETATM   33  O   UNL     1     -12.653  13.374  65.778  1.00  0.00    -0.446 OA 
ENDBRANCH  25  31
ENDBRANCH  22  24
ENDBRANCH  20  22
ENDBRANCH  18  20
ENDBRANCH  17  18
ENDBRANCH  15  17
ENDBRANCH  13  15
ENDBRANCH  11  13
ENDBRANCH   5  11
ENDBRANCH   2   4
TORSDOF 10
ENDMDL
MODEL      340
REMARK 921   NORMALIZED FREE ENERGY PREDICTED BY IDOCK:   -3.90 KCAL/MOL
REMARK 922        TOTAL FREE ENERGY PREDICTED BY IDOCK:   -8.18 KCAL/MOL
REMARK 923 INTER-LIGAND FREE ENERGY PREDICTED BY IDOCK:   -7.19 KCAL/MOL
REMARK 924 INTRA-LIGAND FREE ENERGY PREDICTED BY IDOCK:   -0.99 KCAL/MOL
REMARK 927      BINDING AFFINITY PREDICTED BY RF-SCORE:    0.00 PKD
ROOT
HETATM    1  O   UNL     1     -11.209   7.169  70.574  1.00  0.00    -0.270 OA 
HETATM    2  C   UNL     1     -11.684   8.446  70.924  1.00  0.00    -0.246 C  
HETATM    3  H   UNL     1     -11.909   6.537  70.689  1.00  0.00     0.000 HD 
ENDROOT
BRANCH   2   4
HETATM    4  N   UNL     1     -10.628   9.399  70.751  1.00  0.00    -0.278 N  
HETATM    5  C   UNL     1     -10.419  10.038  69.467  1.00  0.00    -0.240 C  
HETATM    6  O   UNL     1      -9.268   8.499  72.407  1.00  0.00    -0.251 OA 
HETATM    7  C   UNL     1      -8.873  10.030  69.429  1.00  0.00    -0.190 C  
HETATM    8  N   UNL     1      -8.421   9.694  70.668  1.00  0.00    -0.230 NA 
HETATM    9  O   UNL     1      -8.146  10.339  68.497  1.00  0.00    -0.101 OA 
HETATM   10  C   UNL     1      -9.427   9.166  71.398  1.00  0.00    -0.209 C  
BRANCH   5  11
HETATM   11  N   UNL     1     -10.899  11.397  69.477  1.00  0.00    -0.431 N  
HETATM   12  H   UNL     1     -10.985  11.894  70.363  1.00  0.00     0.000 HD 
BRANCH  11  13
HETATM   13  C   UNL     1     -11.242  12.028  68.316  1.00  0.00    -0.261 C  
HETATM   14  O   UNL     1     -11.952  11.527  67.455  1.00  0.00    -0.623 OA 
BRANCH  13  15
HETATM   15  N   UNL     1     -10.769  13.313  68.261  1.00  0.00    -0.244 N  
HETATM   16  H   UNL     1      -9.946  13.530  67.698  1.00  0.00     0.000 HD 
BRANCH  15  17
HETATM   17  C   UNL     1     -11.430  14.350  68.995  1.00  0.00    -0.283 C  
BRANCH  17  18
HETATM   18  N   UNL     1     -11.645  15.528  68.197  1.00  0.00    -0.341 N  
HETATM   19  H   UNL     1     -12.390  15.549  67.500  1.00  0.00     0.000 HD 
BRANCH  18  20
HETATM   20  C   UNL     1     -10.840  16.622  68.380  1.00  0.00    -0.361 C  
HETATM   21  O   UNL     1     -10.739  17.223  69.442  1.00  0.00    -0.242 OA 
BRANCH  20  22
HETATM   22  N   UNL     1     -10.148  16.963  67.242  1.00  0.00    -0.279 N  
HETATM   23  H   UNL     1     -10.612  17.065  66.339  1.00  0.00     0.000 HD 
BRANCH  22  24
HETATM   24  C   UNL     1      -8.734  17.169  67.397  1.00  0.00    -0.204 C  
HETATM   25  N   UNL     1      -8.335  18.318  68.173  1.00  0.00    -0.276 N  
HETATM   26  O   UNL     1      -8.254  14.892  68.288  1.00  0.00    -0.134 OA 
HETATM   27  C   UNL     1      -7.210  18.046  68.925  1.00  0.00    -0.259 C  
HETATM   28  N   UNL     1      -7.003  16.705  68.917  1.00  0.00    -0.187 NA 
HETATM   29  O   UNL     1      -6.534  18.852  69.541  1.00  0.00    -0.275 OA 
HETATM   30  C   UNL     1      -8.009  16.087  68.233  1.00  0.00    -0.145 C  
BRANCH  25  31
HETATM   31  C   UNL     1      -8.849  19.634  67.961  1.00  0.00    -0.318 C  
HETATM   32  H   UNL     1      -8.685  20.998  66.601  1.00  0.00     0.000 HD 
HETATM   33  O   UNL     1      -8.343  20.123  66.742  1.00  0.00    -0.310 OA 
ENDBRANCH  25  31
ENDBRANCH  22  24
ENDBRANCH  20  22
ENDBRANCH  18  20
ENDBRANCH  17  18
ENDBRANCH  15  17
ENDBRANCH  13  15
ENDBRANCH  11  13
ENDBRANCH   5  11
ENDBRANCH   2   4
TORSDOF 10
ENDMDL
MODEL      341
REMARK 921   NORMALIZED FREE ENERGY PREDICTED BY IDOCK:   -3.90 KCAL/MOL
REMARK 922        TOTAL FREE ENERGY PREDICTED BY IDOCK:   -8.18 KCAL/MOL
REMARK 923 INTER-LIGAND FREE ENERGY PREDICTED BY IDOCK:   -7.15 KCAL/MOL
REMARK 924 INTRA-LIGAND FREE ENERGY PREDICTED BY IDOCK:   -1.03 KCAL/MOL
REMARK 927      BINDING AFFINITY PREDICTED BY RF-SCORE:    0.00 PKD
ROOT
HETATM    1  O   UNL     1     -11.601   6.465  73.282  1.00  0.00    -0.426 OA 
HETATM    2  C   UNL     1     -10.604   5.760  72.582  1.00  0.00    -0.223 C  
HETATM    3  H   UNL     1     -11.783   6.014  74.097  1.00  0.00     0.000 HD 
ENDROOT
BRANCH   2   4
HETATM    4  N   UNL     1     -10.329   6.440  71.352  1.00  0.00    -0.203 N  
HETATM    5  C   UNL     1     -11.404   6.771  70.439  1.00  0.00    -0.347 C  
HETATM    6  O   UNL     1      -8.162   5.624  71.149  1.00  0.00    -0.117 OA 
HETATM    7  C   UNL     1     -10.704   6.458  69.097  1.00  0.00    -0.284 C  
HETATM    8  N   UNL     1      -9.378   6.281  69.342  1.00  0.00    -0.140 NA 
HETATM    9  O   UNL     1     -11.201   6.439  67.981  1.00  0.00    -0.311 OA 
HETATM   10  C   UNL     1      -9.174   6.106  70.666  1.00  0.00    -0.154 C  
BRANCH   5  11
HETATM   11  N   UNL     1     -11.729   8.175  70.504  1.00  0.00    -0.458 N  
HETATM   12  H   UNL     1     -12.590   8.471  70.962  1.00  0.00     0.000 HD 
BRANCH  11  13
HETATM   13  C   UNL     1     -10.899   9.112  69.961  1.00  0.00    -0.234 C  
HETATM   14  O   UNL     1      -9.865   9.494  70.492  1.00  0.00    -0.248 OA 
BRANCH  13  15
HETATM   15  N   UNL     1     -11.311   9.516  68.718  1.00  0.00    -0.454 N  
HETATM   16  H   UNL     1     -12.306   9.592  68.511  1.00  0.00     0.000 HD 
BRANCH  15  17
HETATM   17  C   UNL     1     -10.342   9.832  67.711  1.00  0.00    -0.225 C  
BRANCH  17  18
HETATM   18  N   UNL     1     -10.235  11.249  67.484  1.00  0.00    -0.186 N  
HETATM   19  H   UNL     1     -10.985  11.752  67.009  1.00  0.00     0.000 HD 
BRANCH  18  20
HETATM   20  C   UNL     1      -9.118  11.917  67.911  1.00  0.00    -0.183 C  
HETATM   21  O   UNL     1      -7.978  11.616  67.586  1.00  0.00    -0.123 OA 
BRANCH  20  22
HETATM   22  N   UNL     1      -9.421  12.974  68.737  1.00  0.00    -0.410 N  
HETATM   23  H   UNL     1      -9.728  12.836  69.700  1.00  0.00     0.000 HD 
BRANCH  22  24
HETATM   24  C   UNL     1      -9.279  14.286  68.166  1.00  0.00    -0.202 C  
HETATM   25  N   UNL     1     -10.475  15.090  68.103  1.00  0.00    -0.241 N  
HETATM   26  O   UNL     1      -7.425  15.006  69.668  1.00  0.00    -0.195 OA 
HETATM   27  C   UNL     1     -10.195  16.421  68.338  1.00  0.00    -0.259 C  
HETATM   28  N   UNL     1      -8.935  16.513  68.833  1.00  0.00    -0.249 NA 
HETATM   29  O   UNL     1     -10.953  17.363  68.181  1.00  0.00    -0.334 OA 
HETATM   30  C   UNL     1      -8.411  15.264  68.994  1.00  0.00    -0.215 C  
BRANCH  25  31
HETATM   31  C   UNL     1     -11.717  14.622  67.575  1.00  0.00    -0.379 C  
HETATM   32  H   UNL     1     -12.366  14.008  65.861  1.00  0.00     0.000 HD 
HETATM   33  O   UNL     1     -11.540  14.319  66.212  1.00  0.00    -0.349 OA 
ENDBRANCH  25  31
ENDBRANCH  22  24
ENDBRANCH  20  22
ENDBRANCH  18  20
ENDBRANCH  17  18
ENDBRANCH  15  17
ENDBRANCH  13  15
ENDBRANCH  11  13
ENDBRANCH   5  11
ENDBRANCH   2   4
TORSDOF 10
ENDMDL
MODEL      342
REMARK 921   NORMALIZED FREE ENERGY PREDICTED BY IDOCK:   -3.90 KCAL/MOL
REMARK 922        TOTAL FREE ENERGY PREDICTED BY IDOCK:   -8.18 KCAL/MOL
REMARK 923 INTER-LIGAND FREE ENERGY PREDICTED BY IDOCK:   -5.95 KCAL/MOL
REMARK 924 INTRA-LIGAND FREE ENERGY PREDICTED BY IDOCK:   -2.23 KCAL/MOL
REMARK 927      BINDING AFFINITY PREDICTED BY RF-SCORE:    0.00 PKD
ROOT
HETATM    1  O   UNL     1      -9.072  20.203  66.035  1.00  0.00    -0.559 OA 
HETATM    2  C   UNL     1      -7.744  19.975  65.628  1.00  0.00    -0.161 C  
HETATM    3  H   UNL     1      -9.366  21.032  65.677  1.00  0.00     0.000 HD 
ENDROOT
BRANCH   2   4
HETATM    4  N   UNL     1      -7.300  18.724  66.167  1.00  0.00    -0.256 N  
HETATM    5  C   UNL     1      -7.701  18.315  67.498  1.00  0.00    -0.223 C  
HETATM    6  O   UNL     1      -5.341  18.648  64.918  1.00  0.00    -0.169 OA 
HETATM    7  C   UNL     1      -6.373  17.691  67.983  1.00  0.00    -0.166 C  
HETATM    8  N   UNL     1      -5.546  17.567  66.909  1.00  0.00    -0.143 NA 
HETATM    9  O   UNL     1      -6.098  17.294  69.105  1.00  0.00    -0.192 OA 
HETATM   10  C   UNL     1      -6.011  18.312  65.882  1.00  0.00    -0.212 C  
BRANCH   5  11
HETATM   11  N   UNL     1      -8.725  17.300  67.445  1.00  0.00    -0.205 N  
HETATM   12  H   UNL     1      -8.528  16.411  66.987  1.00  0.00     0.000 HD 
BRANCH  11  13
HETATM   13  C   UNL     1      -9.954  17.515  67.998  1.00  0.00    -0.310 C  
HETATM   14  O   UNL     1     -10.823  18.202  67.477  1.00  0.00    -0.389 OA 
BRANCH  13  15
HETATM   15  N   UNL     1     -10.134  16.811  69.159  1.00  0.00    -0.285 N  
HETATM   16  H   UNL     1      -9.553  17.011  69.973  1.00  0.00     0.000 HD 
BRANCH  15  17
HETATM   17  C   UNL     1     -11.139  15.792  69.229  1.00  0.00    -0.297 C  
BRANCH  17  18
HETATM   18  N   UNL     1     -10.586  14.472  69.074  1.00  0.00    -0.245 N  
HETATM   19  H   UNL     1      -9.864  14.138  69.712  1.00  0.00     0.000 HD 
BRANCH  18  20
HETATM   20  C   UNL     1     -11.039  13.667  68.062  1.00  0.00    -0.262 C  
HETATM   21  O   UNL     1     -12.192  13.266  67.974  1.00  0.00    -0.275 OA 
BRANCH  20  22
HETATM   22  N   UNL     1     -10.057  13.370  67.147  1.00  0.00    -0.238 N  
HETATM   23  H   UNL     1     -10.152  13.605  66.159  1.00  0.00     0.000 HD 
BRANCH  22  24
HETATM   24  C   UNL     1      -8.890  12.708  67.661  1.00  0.00    -0.184 C  
HETATM   25  N   UNL     1      -8.231  11.785  66.771  1.00  0.00    -0.165 N  
HETATM   26  O   UNL     1      -7.700  14.796  68.324  1.00  0.00    -0.109 OA 
HETATM   27  C   UNL     1      -6.860  11.831  66.929  1.00  0.00    -0.104 C  
HETATM   28  N   UNL     1      -6.550  12.927  67.665  1.00  0.00    -0.143 NA 
HETATM   29  O   UNL     1      -6.047  11.056  66.454  1.00  0.00    -0.115 OA 
HETATM   30  C   UNL     1      -7.682  13.639  67.932  1.00  0.00    -0.157 C  
BRANCH  25  31
HETATM   31  C   UNL     1      -8.912  10.758  66.048  1.00  0.00    -0.181 C  
HETATM   32  H   UNL     1     -10.605   9.834  66.192  1.00  0.00     0.000 HD 
HETATM   33  O   UNL     1     -10.151  10.517  66.672  1.00  0.00    -0.206 OA 
ENDBRANCH  25  31
ENDBRANCH  22  24
ENDBRANCH  20  22
ENDBRANCH  18  20
ENDBRANCH  17  18
ENDBRANCH  15  17
ENDBRANCH  13  15
ENDBRANCH  11  13
ENDBRANCH   5  11
ENDBRANCH   2   4
TORSDOF 10
ENDMDL
MODEL      343
REMARK 921   NORMALIZED FREE ENERGY PREDICTED BY IDOCK:   -3.90 KCAL/MOL
REMARK 922        TOTAL FREE ENERGY PREDICTED BY IDOCK:   -8.17 KCAL/MOL
REMARK 923 INTER-LIGAND FREE ENERGY PREDICTED BY IDOCK:   -6.58 KCAL/MOL
REMARK 924 INTRA-LIGAND FREE ENERGY PREDICTED BY IDOCK:   -1.59 KCAL/MOL
REMARK 927      BINDING AFFINITY PREDICTED BY RF-SCORE:    0.00 PKD
ROOT
HETATM    1  O   UNL     1     -11.007   7.225  73.334  1.00  0.00    -0.505 OA 
HETATM    2  C   UNL     1     -10.129   6.738  72.348  1.00  0.00    -0.170 C  
HETATM    3  H   UNL     1     -11.409   6.490  73.780  1.00  0.00     0.000 HD 
ENDROOT
BRANCH   2   4
HETATM    4  N   UNL     1      -9.524   7.847  71.674  1.00  0.00    -0.147 N  
HETATM    5  C   UNL     1      -9.235   7.776  70.256  1.00  0.00    -0.156 C  
HETATM    6  O   UNL     1      -8.435   8.662  73.559  1.00  0.00    -0.370 OA 
HETATM    7  C   UNL     1      -7.863   8.488  70.240  1.00  0.00    -0.090 C  
HETATM    8  N   UNL     1      -7.675   9.072  71.455  1.00  0.00    -0.301 NA 
HETATM    9  O   UNL     1      -7.087   8.597  69.303  1.00  0.00    -0.060 OA 
HETATM   10  C   UNL     1      -8.556   8.571  72.348  1.00  0.00    -0.152 C  
BRANCH   5  11
HETATM   11  N   UNL     1     -10.189   8.539  69.490  1.00  0.00    -0.202 N  
HETATM   12  H   UNL     1     -10.533   9.426  69.856  1.00  0.00     0.000 HD 
BRANCH  11  13
HETATM   13  C   UNL     1     -10.637   8.090  68.282  1.00  0.00    -0.101 C  
HETATM   14  O   UNL     1     -10.889   6.917  68.044  1.00  0.00    -0.222 OA 
BRANCH  13  15
HETATM   15  N   UNL     1     -10.852   9.111  67.393  1.00  0.00    -0.424 N  
HETATM   16  H   UNL     1     -11.645   9.739  67.520  1.00  0.00     0.000 HD 
BRANCH  15  17
HETATM   17  C   UNL     1      -9.961   9.294  66.286  1.00  0.00    -0.286 C  
BRANCH  17  18
HETATM   18  N   UNL     1      -8.754   9.980  66.667  1.00  0.00    -0.128 N  
HETATM   19  H   UNL     1      -7.844   9.551  66.502  1.00  0.00     0.000 HD 
BRANCH  18  20
HETATM   20  C   UNL     1      -8.839  11.216  67.253  1.00  0.00    -0.144 C  
HETATM   21  O   UNL     1      -8.936  11.392  68.460  1.00  0.00    -0.164 OA 
BRANCH  20  22
HETATM   22  N   UNL     1      -8.789  12.238  66.335  1.00  0.00    -0.382 N  
HETATM   23  H   UNL     1      -8.330  12.129  65.431  1.00  0.00     0.000 HD 
BRANCH  22  24
HETATM   24  C   UNL     1      -9.422  13.469  66.722  1.00  0.00    -0.269 C  
HETATM   25  N   UNL     1     -10.722  13.356  67.338  1.00  0.00    -0.260 N  
HETATM   26  O   UNL     1      -7.514  14.304  68.090  1.00  0.00    -0.107 OA 
HETATM   27  C   UNL     1     -10.888  14.300  68.331  1.00  0.00    -0.253 C  
HETATM   28  N   UNL     1      -9.678  14.848  68.608  1.00  0.00    -0.219 NA 
HETATM   29  O   UNL     1     -11.926  14.573  68.909  1.00  0.00    -0.315 OA 
HETATM   30  C   UNL     1      -8.713  14.232  67.867  1.00  0.00    -0.178 C  
BRANCH  25  31
HETATM   31  C   UNL     1     -11.791  12.581  66.793  1.00  0.00    -0.346 C  
HETATM   32  H   UNL     1     -12.838  11.054  67.352  1.00  0.00     0.000 HD 
HETATM   33  O   UNL     1     -12.127  11.571  67.714  1.00  0.00    -0.626 OA 
ENDBRANCH  25  31
ENDBRANCH  22  24
ENDBRANCH  20  22
ENDBRANCH  18  20
ENDBRANCH  17  18
ENDBRANCH  15  17
ENDBRANCH  13  15
ENDBRANCH  11  13
ENDBRANCH   5  11
ENDBRANCH   2   4
TORSDOF 10
ENDMDL
MODEL      344
REMARK 921   NORMALIZED FREE ENERGY PREDICTED BY IDOCK:   -3.89 KCAL/MOL
REMARK 922        TOTAL FREE ENERGY PREDICTED BY IDOCK:   -8.16 KCAL/MOL
REMARK 923 INTER-LIGAND FREE ENERGY PREDICTED BY IDOCK:   -6.84 KCAL/MOL
REMARK 924 INTRA-LIGAND FREE ENERGY PREDICTED BY IDOCK:   -1.32 KCAL/MOL
REMARK 927      BINDING AFFINITY PREDICTED BY RF-SCORE:    0.00 PKD
ROOT
HETATM    1  O   UNL     1      -7.299   6.174  70.183  1.00  0.00    -0.077 OA 
HETATM    2  C   UNL     1      -8.265   6.330  69.171  1.00  0.00    -0.114 C  
HETATM    3  H   UNL     1      -6.577   5.660  69.844  1.00  0.00     0.000 HD 
ENDROOT
BRANCH   2   4
HETATM    4  N   UNL     1      -9.355   7.106  69.682  1.00  0.00    -0.150 N  
HETATM    5  C   UNL     1      -9.142   8.045  70.766  1.00  0.00    -0.145 C  
HETATM    6  O   UNL     1     -10.992   5.558  69.114  1.00  0.00    -0.225 OA 
HETATM    7  C   UNL     1     -10.437   7.796  71.573  1.00  0.00    -0.205 C  
HETATM    8  N   UNL     1     -11.277   7.049  70.808  1.00  0.00    -0.271 NA 
HETATM    9  O   UNL     1     -10.727   8.238  72.675  1.00  0.00    -0.343 OA 
HETATM   10  C   UNL     1     -10.597   6.504  69.775  1.00  0.00    -0.235 C  
BRANCH   5  11
HETATM   11  N   UNL     1      -9.122   9.403  70.282  1.00  0.00    -0.228 N  
HETATM   12  H   UNL     1      -8.282   9.967  70.402  1.00  0.00     0.000 HD 
BRANCH  11  13
HETATM   13  C   UNL     1     -10.214   9.944  69.666  1.00  0.00    -0.237 C  
HETATM   14  O   UNL     1     -10.653   9.551  68.594  1.00  0.00    -0.213 OA 
BRANCH  13  15
HETATM   15  N   UNL     1     -10.808  10.921  70.421  1.00  0.00    -0.371 N  
HETATM   16  H   UNL     1     -10.676  10.936  71.432  1.00  0.00     0.000 HD 
BRANCH  15  17
HETATM   17  C   UNL     1     -11.616  11.921  69.788  1.00  0.00    -0.286 C  
BRANCH  17  18
HETATM   18  N   UNL     1     -10.845  12.779  68.928  1.00  0.00    -0.342 N  
HETATM   19  H   UNL     1      -9.830  12.828  69.025  1.00  0.00     0.000 HD 
BRANCH  18  20
HETATM   20  C   UNL     1     -11.484  13.531  67.978  1.00  0.00    -0.307 C  
HETATM   21  O   UNL     1     -12.553  14.097  68.163  1.00  0.00     0.066 OA 
BRANCH  20  22
HETATM   22  N   UNL     1     -10.785  13.590  66.795  1.00  0.00    -0.277 N  
HETATM   23  H   UNL     1     -10.329  14.446  66.481  1.00  0.00     0.000 HD 
BRANCH  22  24
HETATM   24  C   UNL     1     -10.733  12.375  66.028  1.00  0.00    -0.261 C  
HETATM   25  N   UNL     1     -10.838  12.517  64.596  1.00  0.00    -0.294 N  
HETATM   26  O   UNL     1      -8.587  11.564  67.001  1.00  0.00    -0.149 OA 
HETATM   27  C   UNL     1     -10.035  11.603  63.944  1.00  0.00    -0.327 C  
HETATM   28  N   UNL     1      -9.188  11.053  64.851  1.00  0.00    -0.206 NA 
HETATM   29  O   UNL     1     -10.036  11.355  62.751  1.00  0.00    -0.226 OA 
HETATM   30  C   UNL     1      -9.372  11.639  66.068  1.00  0.00    -0.227 C  
BRANCH  25  31
HETATM   31  C   UNL     1     -11.853  13.285  63.949  1.00  0.00    -0.465 C  
HETATM   32  H   UNL     1     -13.705  13.724  64.287  1.00  0.00     0.000 HD 
HETATM   33  O   UNL     1     -13.030  13.213  64.717  1.00  0.00    -0.725 OA 
ENDBRANCH  25  31
ENDBRANCH  22  24
ENDBRANCH  20  22
ENDBRANCH  18  20
ENDBRANCH  17  18
ENDBRANCH  15  17
ENDBRANCH  13  15
ENDBRANCH  11  13
ENDBRANCH   5  11
ENDBRANCH   2   4
TORSDOF 10
ENDMDL
MODEL      345
REMARK 921   NORMALIZED FREE ENERGY PREDICTED BY IDOCK:   -3.89 KCAL/MOL
REMARK 922        TOTAL FREE ENERGY PREDICTED BY IDOCK:   -8.16 KCAL/MOL
REMARK 923 INTER-LIGAND FREE ENERGY PREDICTED BY IDOCK:   -6.26 KCAL/MOL
REMARK 924 INTRA-LIGAND FREE ENERGY PREDICTED BY IDOCK:   -1.90 KCAL/MOL
REMARK 927      BINDING AFFINITY PREDICTED BY RF-SCORE:    0.00 PKD
ROOT
HETATM    1  O   UNL     1     -11.164  15.806  64.112  1.00  0.00    -0.802 OA 
HETATM    2  C   UNL     1     -10.937  15.676  65.494  1.00  0.00    -0.300 C  
HETATM    3  H   UNL     1     -10.911  16.680  63.838  1.00  0.00     0.000 HD 
ENDROOT
BRANCH   2   4
HETATM    4  N   UNL     1     -11.319  14.359  65.907  1.00  0.00    -0.327 N  
HETATM    5  C   UNL     1     -10.319  13.324  66.076  1.00  0.00    -0.289 C  
HETATM    6  O   UNL     1     -13.461  14.478  65.013  1.00  0.00    -0.173 OA 
HETATM    7  C   UNL     1     -11.092  12.124  65.483  1.00  0.00    -0.316 C  
HETATM    8  N   UNL     1     -12.392  12.494  65.325  1.00  0.00    -0.612 NA 
HETATM    9  O   UNL     1     -10.669  11.001  65.252  1.00  0.00    -0.246 OA 
HETATM   10  C   UNL     1     -12.502  13.838  65.414  1.00  0.00    -0.500 C  
BRANCH   5  11
HETATM   11  N   UNL     1     -10.046  13.086  67.471  1.00  0.00    -0.216 N  
HETATM   12  H   UNL     1     -10.675  13.464  68.179  1.00  0.00     0.000 HD 
BRANCH  11  13
HETATM   13  C   UNL     1      -8.956  12.361  67.859  1.00  0.00    -0.184 C  
HETATM   14  O   UNL     1      -7.938  12.254  67.189  1.00  0.00    -0.169 OA 
BRANCH  13  15
HETATM   15  N   UNL     1      -9.099  11.835  69.116  1.00  0.00    -0.312 N  
HETATM   16  H   UNL     1      -9.059  12.446  69.932  1.00  0.00     0.000 HD 
BRANCH  15  17
HETATM   17  C   UNL     1      -9.304  10.427  69.284  1.00  0.00    -0.187 C  
BRANCH  17  18
HETATM   18  N   UNL     1      -8.679   9.659  68.239  1.00  0.00    -0.119 N  
HETATM   19  H   UNL     1      -9.147   9.533  67.342  1.00  0.00     0.000 HD 
BRANCH  18  20
HETATM   20  C   UNL     1      -7.448   9.098  68.461  1.00  0.00    -0.081 C  
HETATM   21  O   UNL     1      -6.429   9.747  68.655  1.00  0.00    -0.047 OA 
BRANCH  20  22
HETATM   22  N   UNL     1      -7.488   7.724  68.453  1.00  0.00    -0.101 N  
HETATM   23  H   UNL     1      -6.650   7.160  68.594  1.00  0.00     0.000 HD 
BRANCH  22  24
HETATM   24  C   UNL     1      -8.777   7.127  68.233  1.00  0.00    -0.128 C  
HETATM   25  N   UNL     1      -8.930   6.358  67.023  1.00  0.00    -0.117 N  
HETATM   26  O   UNL     1      -8.875   5.949  70.427  1.00  0.00    -0.139 OA 
HETATM   27  C   UNL     1      -9.736   5.257  67.230  1.00  0.00    -0.149 C  
HETATM   28  N   UNL     1      -9.899   5.089  68.566  1.00  0.00    -0.154 NA 
HETATM   29  O   UNL     1     -10.194   4.519  66.374  1.00  0.00    -0.246 OA 
HETATM   30  C   UNL     1      -9.157   6.015  69.240  1.00  0.00    -0.124 C  
BRANCH  25  31
HETATM   31  C   UNL     1      -8.550   6.832  65.730  1.00  0.00    -0.137 C  
HETATM   32  H   UNL     1      -8.894   8.405  64.660  1.00  0.00     0.000 HD 
HETATM   33  O   UNL     1      -9.146   8.089  65.520  1.00  0.00    -0.080 OA 
ENDBRANCH  25  31
ENDBRANCH  22  24
ENDBRANCH  20  22
ENDBRANCH  18  20
ENDBRANCH  17  18
ENDBRANCH  15  17
ENDBRANCH  13  15
ENDBRANCH  11  13
ENDBRANCH   5  11
ENDBRANCH   2   4
TORSDOF 10
ENDMDL
MODEL      346
REMARK 921   NORMALIZED FREE ENERGY PREDICTED BY IDOCK:   -3.88 KCAL/MOL
REMARK 922        TOTAL FREE ENERGY PREDICTED BY IDOCK:   -8.14 KCAL/MOL
REMARK 923 INTER-LIGAND FREE ENERGY PREDICTED BY IDOCK:   -5.69 KCAL/MOL
REMARK 924 INTRA-LIGAND FREE ENERGY PREDICTED BY IDOCK:   -2.45 KCAL/MOL
REMARK 927      BINDING AFFINITY PREDICTED BY RF-SCORE:    0.00 PKD
ROOT
HETATM    1  O   UNL     1     -12.711  10.176  70.711  1.00  0.00    -0.366 OA 
HETATM    2  C   UNL     1     -11.421  10.115  71.270  1.00  0.00    -0.249 C  
HETATM    3  H   UNL     1     -13.349  10.232  71.413  1.00  0.00     0.000 HD 
ENDROOT
BRANCH   2   4
HETATM    4  N   UNL     1     -10.459  10.030  70.212  1.00  0.00    -0.285 N  
HETATM    5  C   UNL     1     -10.890   9.987  68.829  1.00  0.00    -0.219 C  
HETATM    6  O   UNL     1      -8.845   8.950  71.490  1.00  0.00    -0.214 OA 
HETATM    7  C   UNL     1      -9.888   8.945  68.283  1.00  0.00    -0.167 C  
HETATM    8  N   UNL     1      -8.927   8.746  69.226  1.00  0.00    -0.143 NA 
HETATM    9  O   UNL     1      -9.878   8.423  67.178  1.00  0.00    -0.177 OA 
HETATM   10  C   UNL     1      -9.336   9.246  70.412  1.00  0.00    -0.250 C  
BRANCH   5  11
HETATM   11  N   UNL     1     -10.678  11.255  68.177  1.00  0.00    -0.192 N  
HETATM   12  H   UNL     1      -9.730  11.548  67.942  1.00  0.00     0.000 HD 
BRANCH  11  13
HETATM   13  C   UNL     1     -11.729  12.071  67.871  1.00  0.00    -0.323 C  
HETATM   14  O   UNL     1     -12.536  12.478  68.695  1.00  0.00     0.115 OA 
BRANCH  13  15
HETATM   15  N   UNL     1     -11.730  12.447  66.553  1.00  0.00    -0.391 N  
HETATM   16  H   UNL     1     -11.738  11.737  65.820  1.00  0.00     0.000 HD 
BRANCH  15  17
HETATM   17  C   UNL     1     -11.720  13.837  66.206  1.00  0.00    -0.376 C  
BRANCH  17  18
HETATM   18  N   UNL     1     -10.567  14.192  65.420  1.00  0.00    -0.325 N  
HETATM   19  H   UNL     1     -10.396  13.738  64.523  1.00  0.00     0.000 HD 
BRANCH  18  20
HETATM   20  C   UNL     1      -9.702  15.146  65.888  1.00  0.00    -0.350 C  
HETATM   21  O   UNL     1      -9.346  16.120  65.239  1.00  0.00    -0.255 OA 
BRANCH  20  22
HETATM   22  N   UNL     1      -9.286  14.893  67.174  1.00  0.00    -0.210 N  
HETATM   23  H   UNL     1      -9.901  15.030  67.976  1.00  0.00     0.000 HD 
BRANCH  22  24
HETATM   24  C   UNL     1      -7.934  14.426  67.323  1.00  0.00    -0.180 C  
HETATM   25  N   UNL     1      -7.296  14.702  68.587  1.00  0.00    -0.118 N  
HETATM   26  O   UNL     1      -8.428  12.059  66.718  1.00  0.00    -0.183 OA 
HETATM   27  C   UNL     1      -6.478  13.659  68.971  1.00  0.00    -0.106 C  
HETATM   28  N   UNL     1      -6.749  12.588  68.184  1.00  0.00    -0.070 NA 
HETATM   29  O   UNL     1      -5.676  13.664  69.890  1.00  0.00    -0.101 OA 
HETATM   30  C   UNL     1      -7.779  12.886  67.340  1.00  0.00    -0.159 C  
BRANCH  25  31
HETATM   31  C   UNL     1      -7.280  15.991  69.201  1.00  0.00    -0.208 C  
HETATM   32  H   UNL     1      -7.637  17.809  68.647  1.00  0.00     0.000 HD 
HETATM   33  O   UNL     1      -7.649  16.951  68.240  1.00  0.00    -0.186 OA 
ENDBRANCH  25  31
ENDBRANCH  22  24
ENDBRANCH  20  22
ENDBRANCH  18  20
ENDBRANCH  17  18
ENDBRANCH  15  17
ENDBRANCH  13  15
ENDBRANCH  11  13
ENDBRANCH   5  11
ENDBRANCH   2   4
TORSDOF 10
ENDMDL
MODEL      347
REMARK 921   NORMALIZED FREE ENERGY PREDICTED BY IDOCK:   -3.88 KCAL/MOL
REMARK 922        TOTAL FREE ENERGY PREDICTED BY IDOCK:   -8.14 KCAL/MOL
REMARK 923 INTER-LIGAND FREE ENERGY PREDICTED BY IDOCK:   -6.10 KCAL/MOL
REMARK 924 INTRA-LIGAND FREE ENERGY PREDICTED BY IDOCK:   -2.04 KCAL/MOL
REMARK 927      BINDING AFFINITY PREDICTED BY RF-SCORE:    0.00 PKD
ROOT
HETATM    1  O   UNL     1      -9.996   7.993  71.421  1.00  0.00    -0.172 OA 
HETATM    2  C   UNL     1      -9.758   9.249  70.834  1.00  0.00    -0.276 C  
HETATM    3  H   UNL     1      -9.229   7.734  71.918  1.00  0.00     0.000 HD 
ENDROOT
BRANCH   2   4
HETATM    4  N   UNL     1     -10.914   9.640  70.084  1.00  0.00    -0.258 N  
HETATM    5  C   UNL     1     -10.770  10.295  68.800  1.00  0.00    -0.219 C  
HETATM    6  O   UNL     1     -12.285   9.898  71.944  1.00  0.00    -0.372 OA 
HETATM    7  C   UNL     1     -11.905  11.337  68.918  1.00  0.00    -0.345 C  
HETATM    8  N   UNL     1     -12.666  11.015  69.999  1.00  0.00    -0.176 NA 
HETATM    9  O   UNL     1     -12.157  12.258  68.156  1.00  0.00    -0.407 OA 
HETATM   10  C   UNL     1     -12.007  10.130  70.778  1.00  0.00    -0.348 C  
BRANCH   5  11
HETATM   11  N   UNL     1     -11.054   9.386  67.717  1.00  0.00    -0.487 N  
HETATM   12  H   UNL     1     -12.008   9.055  67.575  1.00  0.00     0.000 HD 
BRANCH  11  13
HETATM   13  C   UNL     1     -10.063   8.964  66.878  1.00  0.00    -0.273 C  
HETATM   14  O   UNL     1      -9.297   9.720  66.297  1.00  0.00    -0.161 OA 
BRANCH  13  15
HETATM   15  N   UNL     1      -9.972   7.598  66.824  1.00  0.00    -0.278 N  
HETATM   16  H   UNL     1      -9.119   7.156  66.483  1.00  0.00     0.000 HD 
BRANCH  15  17
HETATM   17  C   UNL     1     -11.078   6.791  67.246  1.00  0.00    -0.324 C  
BRANCH  17  18
HETATM   18  N   UNL     1     -10.653   5.626  67.978  1.00  0.00    -0.213 N  
HETATM   19  H   UNL     1     -10.452   4.755  67.488  1.00  0.00     0.000 HD 
BRANCH  18  20
HETATM   20  C   UNL     1     -10.521   5.699  69.340  1.00  0.00    -0.297 C  
HETATM   21  O   UNL     1     -11.465   5.789  70.113  1.00  0.00    -0.188 OA 
BRANCH  20  22
HETATM   22  N   UNL     1      -9.207   5.646  69.745  1.00  0.00    -0.136 N  
HETATM   23  H   UNL     1      -8.569   6.429  69.607  1.00  0.00     0.000 HD 
BRANCH  22  24
HETATM   24  C   UNL     1      -8.786   4.424  70.374  1.00  0.00    -0.085 C  
HETATM   25  N   UNL     1      -9.329   4.156  71.683  1.00  0.00    -0.132 N  
HETATM   26  O   UNL     1      -9.432   2.940  68.478  1.00  0.00    -0.189 OA 
HETATM   27  C   UNL     1      -9.575   2.809  71.855  1.00  0.00    -0.142 C  
HETATM   28  N   UNL     1      -9.496   2.200  70.645  1.00  0.00    -0.127 NA 
HETATM   29  O   UNL     1      -9.864   2.250  72.899  1.00  0.00    -0.098 OA 
HETATM   30  C   UNL     1      -9.274   3.132  69.674  1.00  0.00    -0.151 C  
BRANCH  25  31
HETATM   31  C   UNL     1      -9.328   5.106  72.750  1.00  0.00    -0.135 C  
HETATM   32  H   UNL     1      -8.249   6.623  73.271  1.00  0.00     0.000 HD 
HETATM   33  O   UNL     1      -8.251   5.991  72.562  1.00  0.00    -0.109 OA 
ENDBRANCH  25  31
ENDBRANCH  22  24
ENDBRANCH  20  22
ENDBRANCH  18  20
ENDBRANCH  17  18
ENDBRANCH  15  17
ENDBRANCH  13  15
ENDBRANCH  11  13
ENDBRANCH   5  11
ENDBRANCH   2   4
TORSDOF 10
ENDMDL
MODEL      348
REMARK 921   NORMALIZED FREE ENERGY PREDICTED BY IDOCK:   -3.87 KCAL/MOL
REMARK 922        TOTAL FREE ENERGY PREDICTED BY IDOCK:   -8.12 KCAL/MOL
REMARK 923 INTER-LIGAND FREE ENERGY PREDICTED BY IDOCK:   -6.22 KCAL/MOL
REMARK 924 INTRA-LIGAND FREE ENERGY PREDICTED BY IDOCK:   -1.91 KCAL/MOL
REMARK 927      BINDING AFFINITY PREDICTED BY RF-SCORE:    0.00 PKD
ROOT
HETATM    1  O   UNL     1     -10.922  13.999  69.043  1.00  0.00    -0.252 OA 
HETATM    2  C   UNL     1     -12.084  13.228  69.230  1.00  0.00    -0.242 C  
HETATM    3  H   UNL     1     -10.991  14.467  68.220  1.00  0.00     0.000 HD 
ENDROOT
BRANCH   2   4
HETATM    4  N   UNL     1     -11.981  12.522  70.472  1.00  0.00    -0.279 N  
HETATM    5  C   UNL     1     -12.094  11.078  70.508  1.00  0.00    -0.377 C  
HETATM    6  O   UNL     1     -12.749  14.288  71.774  1.00  0.00    -0.324 OA 
HETATM    7  C   UNL     1     -12.926  10.921  71.801  1.00  0.00    -0.451 C  
HETATM    8  N   UNL     1     -12.948  12.122  72.439  1.00  0.00    -0.098 NA 
HETATM    9  O   UNL     1     -13.428   9.901  72.247  1.00  0.00    -0.430 OA 
HETATM   10  C   UNL     1     -12.542  13.098  71.598  1.00  0.00    -0.128 C  
BRANCH   5  11
HETATM   11  N   UNL     1     -10.803  10.459  70.680  1.00  0.00    -0.406 N  
HETATM   12  H   UNL     1     -10.479  10.224  71.618  1.00  0.00     0.000 HD 
BRANCH  11  13
HETATM   13  C   UNL     1     -10.009  10.181  69.605  1.00  0.00    -0.232 C  
HETATM   14  O   UNL     1      -9.595  11.032  68.829  1.00  0.00    -0.189 OA 
BRANCH  13  15
HETATM   15  N   UNL     1      -9.663   8.857  69.540  1.00  0.00    -0.170 N  
HETATM   16  H   UNL     1      -8.996   8.471  70.207  1.00  0.00     0.000 HD 
BRANCH  15  17
HETATM   17  C   UNL     1     -10.239   8.017  68.532  1.00  0.00    -0.207 C  
BRANCH  17  18
HETATM   18  N   UNL     1     -10.295   6.638  68.942  1.00  0.00    -0.180 N  
HETATM   19  H   UNL     1     -11.082   6.050  68.665  1.00  0.00     0.000 HD 
BRANCH  18  20
HETATM   20  C   UNL     1      -9.282   6.121  69.706  1.00  0.00    -0.144 C  
HETATM   21  O   UNL     1      -8.101   6.401  69.552  1.00  0.00    -0.114 OA 
BRANCH  20  22
HETATM   22  N   UNL     1      -9.741   5.260  70.675  1.00  0.00    -0.174 N  
HETATM   23  H   UNL     1      -9.845   4.260  70.502  1.00  0.00     0.000 HD 
BRANCH  22  24
HETATM   24  C   UNL     1     -10.065   5.850  71.945  1.00  0.00    -0.185 C  
HETATM   25  N   UNL     1      -9.008   6.576  72.604  1.00  0.00    -0.132 N  
HETATM   26  O   UNL     1     -12.058   7.104  71.128  1.00  0.00    -0.325 OA 
HETATM   27  C   UNL     1      -9.500   7.685  73.263  1.00  0.00    -0.259 C  
HETATM   28  N   UNL     1     -10.774   7.899  72.851  1.00  0.00    -0.368 NA 
HETATM   29  O   UNL     1      -8.893   8.392  74.049  1.00  0.00    -0.115 OA 
HETATM   30  C   UNL     1     -11.103   6.997  71.882  1.00  0.00    -0.242 C  
BRANCH  25  31
HETATM   31  C   UNL     1      -7.691   6.057  72.797  1.00  0.00    -0.102 C  
HETATM   32  H   UNL     1      -6.912   4.334  73.197  1.00  0.00     0.000 HD 
HETATM   33  O   UNL     1      -7.787   4.680  73.068  1.00  0.00    -0.093 OA 
ENDBRANCH  25  31
ENDBRANCH  22  24
ENDBRANCH  20  22
ENDBRANCH  18  20
ENDBRANCH  17  18
ENDBRANCH  15  17
ENDBRANCH  13  15
ENDBRANCH  11  13
ENDBRANCH   5  11
ENDBRANCH   2   4
TORSDOF 10
ENDMDL
MODEL      349
REMARK 921   NORMALIZED FREE ENERGY PREDICTED BY IDOCK:   -3.86 KCAL/MOL
REMARK 922        TOTAL FREE ENERGY PREDICTED BY IDOCK:   -8.11 KCAL/MOL
REMARK 923 INTER-LIGAND FREE ENERGY PREDICTED BY IDOCK:   -6.81 KCAL/MOL
REMARK 924 INTRA-LIGAND FREE ENERGY PREDICTED BY IDOCK:   -1.30 KCAL/MOL
REMARK 927      BINDING AFFINITY PREDICTED BY RF-SCORE:    0.00 PKD
ROOT
HETATM    1  O   UNL     1     -10.287   6.421  68.822  1.00  0.00    -0.166 OA 
HETATM    2  C   UNL     1     -11.530   6.719  69.411  1.00  0.00    -0.147 C  
HETATM    3  H   UNL     1     -10.419   5.788  68.126  1.00  0.00     0.000 HD 
ENDROOT
BRANCH   2   4
HETATM    4  N   UNL     1     -11.331   7.672  70.461  1.00  0.00    -0.271 N  
HETATM    5  C   UNL     1     -10.089   8.413  70.554  1.00  0.00    -0.190 C  
HETATM    6  O   UNL     1     -12.766   6.627  71.961  1.00  0.00    -0.301 OA 
HETATM    7  C   UNL     1      -9.898   8.395  72.088  1.00  0.00    -0.302 C  
HETATM    8  N   UNL     1     -11.053   7.953  72.654  1.00  0.00    -0.359 NA 
HETATM    9  O   UNL     1      -8.926   8.773  72.725  1.00  0.00    -0.361 OA 
HETATM   10  C   UNL     1     -11.835   7.376  71.715  1.00  0.00    -0.294 C  
BRANCH   5  11
HETATM   11  N   UNL     1     -10.257   9.771  70.101  1.00  0.00    -0.261 N  
HETATM   12  H   UNL     1     -10.286  10.529  70.782  1.00  0.00     0.000 HD 
BRANCH  11  13
HETATM   13  C   UNL     1     -10.377  10.057  68.771  1.00  0.00    -0.198 C  
HETATM   14  O   UNL     1      -9.955   9.333  67.880  1.00  0.00    -0.170 OA 
BRANCH  13  15
HETATM   15  N   UNL     1     -11.095  11.202  68.546  1.00  0.00    -0.222 N  
HETATM   16  H   UNL     1     -11.576  11.336  67.657  1.00  0.00     0.000 HD 
BRANCH  15  17
HETATM   17  C   UNL     1     -11.167  12.211  69.561  1.00  0.00    -0.131 C  
BRANCH  17  18
HETATM   18  N   UNL     1     -10.586  13.456  69.132  1.00  0.00    -0.436 N  
HETATM   19  H   UNL     1      -9.723  13.461  68.588  1.00  0.00     0.000 HD 
BRANCH  18  20
HETATM   20  C   UNL     1     -11.201  14.635  69.460  1.00  0.00    -0.269 C  
HETATM   21  O   UNL     1     -12.288  14.704  70.018  1.00  0.00    -0.319 OA 
BRANCH  20  22
HETATM   22  N   UNL     1     -10.456  15.735  69.104  1.00  0.00    -0.224 N  
HETATM   23  H   UNL     1     -10.587  16.642  69.551  1.00  0.00     0.000 HD 
BRANCH  22  24
HETATM   24  C   UNL     1      -9.482  15.532  68.067  1.00  0.00    -0.194 C  
HETATM   25  N   UNL     1      -9.243  16.648  67.185  1.00  0.00    -0.219 N  
HETATM   26  O   UNL     1      -7.655  14.791  69.591  1.00  0.00    -0.143 OA 
HETATM   27  C   UNL     1      -7.912  16.726  66.828  1.00  0.00    -0.240 C  
HETATM   28  N   UNL     1      -7.201  15.904  67.641  1.00  0.00    -0.143 NA 
HETATM   29  O   UNL     1      -7.430  17.442  65.967  1.00  0.00    -0.370 OA 
HETATM   30  C   UNL     1      -8.030  15.344  68.568  1.00  0.00    -0.140 C  
BRANCH  25  31
HETATM   31  C   UNL     1     -10.283  17.382  66.537  1.00  0.00    -0.329 C  
HETATM   32  H   UNL     1     -11.427  18.876  66.980  1.00  0.00     0.000 HD 
HETATM   33  O   UNL     1     -10.735  18.388  67.411  1.00  0.00    -0.416 OA 
ENDBRANCH  25  31
ENDBRANCH  22  24
ENDBRANCH  20  22
ENDBRANCH  18  20
ENDBRANCH  17  18
ENDBRANCH  15  17
ENDBRANCH  13  15
ENDBRANCH  11  13
ENDBRANCH   5  11
ENDBRANCH   2   4
TORSDOF 10
ENDMDL
MODEL      350
REMARK 921   NORMALIZED FREE ENERGY PREDICTED BY IDOCK:   -3.84 KCAL/MOL
REMARK 922        TOTAL FREE ENERGY PREDICTED BY IDOCK:   -8.08 KCAL/MOL
REMARK 923 INTER-LIGAND FREE ENERGY PREDICTED BY IDOCK:   -6.23 KCAL/MOL
REMARK 924 INTRA-LIGAND FREE ENERGY PREDICTED BY IDOCK:   -1.85 KCAL/MOL
REMARK 927      BINDING AFFINITY PREDICTED BY RF-SCORE:    0.00 PKD
ROOT
HETATM    1  O   UNL     1     -12.152  11.007  67.876  1.00  0.00    -0.721 OA 
HETATM    2  C   UNL     1     -10.757  11.035  68.062  1.00  0.00    -0.217 C  
HETATM    3  H   UNL     1     -12.570  10.796  68.703  1.00  0.00     0.000 HD 
ENDROOT
BRANCH   2   4
HETATM    4  N   UNL     1     -10.128  11.352  66.815  1.00  0.00    -0.211 N  
HETATM    5  C   UNL     1     -10.230  12.686  66.259  1.00  0.00    -0.251 C  
HETATM    6  O   UNL     1     -10.226   9.185  65.980  1.00  0.00    -0.256 OA 
HETATM    7  C   UNL     1     -10.413  12.325  64.767  1.00  0.00    -0.296 C  
HETATM    8  N   UNL     1     -10.139  11.001  64.614  1.00  0.00    -0.286 NA 
HETATM    9  O   UNL     1     -10.680  13.079  63.843  1.00  0.00    -0.392 OA 
HETATM   10  C   UNL     1     -10.132  10.391  65.819  1.00  0.00    -0.262 C  
BRANCH   5  11
HETATM   11  N   UNL     1      -9.002  13.420  66.436  1.00  0.00    -0.460 N  
HETATM   12  H   UNL     1      -8.292  13.397  65.704  1.00  0.00     0.000 HD 
BRANCH  11  13
HETATM   13  C   UNL     1      -8.776  14.146  67.570  1.00  0.00    -0.204 C  
HETATM   14  O   UNL     1      -9.302  15.226  67.801  1.00  0.00    -0.194 OA 
BRANCH  13  15
HETATM   15  N   UNL     1      -7.959  13.492  68.454  1.00  0.00    -0.142 N  
HETATM   16  H   UNL     1      -8.034  13.680  69.453  1.00  0.00     0.000 HD 
BRANCH  15  17
HETATM   17  C   UNL     1      -6.999  12.543  67.973  1.00  0.00    -0.095 C  
BRANCH  17  18
HETATM   18  N   UNL     1      -6.080  12.131  69.001  1.00  0.00    -0.069 N  
HETATM   19  H   UNL     1      -5.122  12.480  69.006  1.00  0.00     0.000 HD 
BRANCH  18  20
HETATM   20  C   UNL     1      -6.504  11.265  69.975  1.00  0.00    -0.114 C  
HETATM   21  O   UNL     1      -5.913  11.084  71.031  1.00  0.00    -0.352 OA 
BRANCH  20  22
HETATM   22  N   UNL     1      -7.677  10.629  69.640  1.00  0.00    -0.333 N  
HETATM   23  H   UNL     1      -8.542  11.144  69.477  1.00  0.00     0.000 HD 
BRANCH  22  24
HETATM   24  C   UNL     1      -7.613   9.197  69.531  1.00  0.00    -0.079 C  
HETATM   25  N   UNL     1      -8.785   8.469  69.952  1.00  0.00    -0.130 N  
HETATM   26  O   UNL     1      -6.980   9.164  67.121  1.00  0.00    -0.079 OA 
HETATM   27  C   UNL     1      -9.004   7.367  69.150  1.00  0.00    -0.135 C  
HETATM   28  N   UNL     1      -8.216   7.474  68.050  1.00  0.00    -0.123 NA 
HETATM   29  O   UNL     1      -9.799   6.466  69.353  1.00  0.00    -0.147 OA 
HETATM   30  C   UNL     1      -7.540   8.658  68.081  1.00  0.00    -0.097 C  
BRANCH  25  31
HETATM   31  C   UNL     1      -9.446   8.687  71.200  1.00  0.00    -0.215 C  
HETATM   32  H   UNL     1      -8.914   8.912  73.045  1.00  0.00     0.000 HD 
HETATM   33  O   UNL     1      -8.475   8.767  72.215  1.00  0.00    -0.375 OA 
ENDBRANCH  25  31
ENDBRANCH  22  24
ENDBRANCH  20  22
ENDBRANCH  18  20
ENDBRANCH  17  18
ENDBRANCH  15  17
ENDBRANCH  13  15
ENDBRANCH  11  13
ENDBRANCH   5  11
ENDBRANCH   2   4
TORSDOF 10
ENDMDL
MODEL      351
REMARK 921   NORMALIZED FREE ENERGY PREDICTED BY IDOCK:   -3.84 KCAL/MOL
REMARK 922        TOTAL FREE ENERGY PREDICTED BY IDOCK:   -8.08 KCAL/MOL
REMARK 923 INTER-LIGAND FREE ENERGY PREDICTED BY IDOCK:   -7.15 KCAL/MOL
REMARK 924 INTRA-LIGAND FREE ENERGY PREDICTED BY IDOCK:   -0.93 KCAL/MOL
REMARK 927      BINDING AFFINITY PREDICTED BY RF-SCORE:    0.00 PKD
ROOT
HETATM    1  O   UNL     1     -10.321  17.492  66.186  1.00  0.00    -0.361 OA 
HETATM    2  C   UNL     1      -9.517  16.342  66.072  1.00  0.00    -0.334 C  
HETATM    3  H   UNL     1      -9.785  18.260  66.028  1.00  0.00     0.000 HD 
ENDROOT
BRANCH   2   4
HETATM    4  N   UNL     1     -10.326  15.183  66.311  1.00  0.00    -0.282 N  
HETATM    5  C   UNL     1     -10.871  14.428  65.202  1.00  0.00    -0.386 C  
HETATM    6  O   UNL     1     -11.100  15.898  68.383  1.00  0.00    -0.310 OA 
HETATM    7  C   UNL     1     -12.273  14.116  65.772  1.00  0.00    -0.442 C  
HETATM    8  N   UNL     1     -12.274  14.437  67.094  1.00  0.00    -0.332 NA 
HETATM    9  O   UNL     1     -13.219  13.600  65.194  1.00  0.00    -0.739 OA 
HETATM   10  C   UNL     1     -11.203  15.209  67.381  1.00  0.00    -0.323 C  
BRANCH   5  11
HETATM   11  N   UNL     1     -10.143  13.200  64.999  1.00  0.00    -0.493 N  
HETATM   12  H   UNL     1      -9.819  12.955  64.064  1.00  0.00     0.000 HD 
BRANCH  11  13
HETATM   13  C   UNL     1      -9.881  12.360  66.043  1.00  0.00    -0.257 C  
HETATM   14  O   UNL     1      -8.839  12.376  66.683  1.00  0.00    -0.208 OA 
BRANCH  13  15
HETATM   15  N   UNL     1     -10.947  11.553  66.343  1.00  0.00    -0.291 N  
HETATM   16  H   UNL     1     -11.557  11.216  65.599  1.00  0.00     0.000 HD 
BRANCH  15  17
HETATM   17  C   UNL     1     -11.202  11.182  67.703  1.00  0.00    -0.297 C  
BRANCH  17  18
HETATM   18  N   UNL     1     -11.403   9.765  67.852  1.00  0.00    -0.467 N  
HETATM   19  H   UNL     1     -12.197   9.411  68.387  1.00  0.00     0.000 HD 
BRANCH  18  20
HETATM   20  C   UNL     1     -10.521   8.895  67.268  1.00  0.00    -0.277 C  
HETATM   21  O   UNL     1     -10.137   8.988  66.110  1.00  0.00    -0.290 OA 
BRANCH  20  22
HETATM   22  N   UNL     1     -10.102   7.910  68.133  1.00  0.00    -0.184 N  
HETATM   23  H   UNL     1     -10.754   7.241  68.544  1.00  0.00     0.000 HD 
BRANCH  22  24
HETATM   24  C   UNL     1      -8.695   7.878  68.425  1.00  0.00    -0.131 C  
HETATM   25  N   UNL     1      -7.835   7.382  67.380  1.00  0.00    -0.110 N  
HETATM   26  O   UNL     1      -8.529  10.277  69.081  1.00  0.00    -0.141 OA 
HETATM   27  C   UNL     1      -6.639   8.071  67.348  1.00  0.00    -0.058 C  
HETATM   28  N   UNL     1      -6.762   9.180  68.120  1.00  0.00    -0.060 NA 
HETATM   29  O   UNL     1      -5.647   7.776  66.704  1.00  0.00    -0.027 OA 
HETATM   30  C   UNL     1      -8.036   9.268  68.598  1.00  0.00    -0.105 C  
BRANCH  25  31
HETATM   31  C   UNL     1      -8.064   6.158  66.679  1.00  0.00    -0.109 C  
HETATM   32  H   UNL     1      -8.329   5.628  64.839  1.00  0.00     0.000 HD 
HETATM   33  O   UNL     1      -8.176   6.441  65.305  1.00  0.00    -0.132 OA 
ENDBRANCH  25  31
ENDBRANCH  22  24
ENDBRANCH  20  22
ENDBRANCH  18  20
ENDBRANCH  17  18
ENDBRANCH  15  17
ENDBRANCH  13  15
ENDBRANCH  11  13
ENDBRANCH   5  11
ENDBRANCH   2   4
TORSDOF 10
ENDMDL
MODEL      352
REMARK 921   NORMALIZED FREE ENERGY PREDICTED BY IDOCK:   -3.84 KCAL/MOL
REMARK 922        TOTAL FREE ENERGY PREDICTED BY IDOCK:   -8.08 KCAL/MOL
REMARK 923 INTER-LIGAND FREE ENERGY PREDICTED BY IDOCK:   -6.84 KCAL/MOL
REMARK 924 INTRA-LIGAND FREE ENERGY PREDICTED BY IDOCK:   -1.24 KCAL/MOL
REMARK 927      BINDING AFFINITY PREDICTED BY RF-SCORE:    0.00 PKD
ROOT
HETATM    1  O   UNL     1      -7.745   4.748  67.920  1.00  0.00    -0.081 OA 
HETATM    2  C   UNL     1      -7.440   6.118  68.016  1.00  0.00    -0.089 C  
HETATM    3  H   UNL     1      -7.446   4.423  67.080  1.00  0.00     0.000 HD 
ENDROOT
BRANCH   2   4
HETATM    4  N   UNL     1      -7.891   6.609  69.284  1.00  0.00    -0.108 N  
HETATM    5  C   UNL     1      -8.425   7.950  69.404  1.00  0.00    -0.133 C  
HETATM    6  O   UNL     1      -6.479   5.257  70.540  1.00  0.00    -0.028 OA 
HETATM    7  C   UNL     1      -7.798   8.352  70.759  1.00  0.00    -0.089 C  
HETATM    8  N   UNL     1      -7.276   7.234  71.332  1.00  0.00    -0.075 NA 
HETATM    9  O   UNL     1      -7.812   9.451  71.293  1.00  0.00    -0.335 OA 
HETATM   10  C   UNL     1      -7.179   6.248  70.414  1.00  0.00    -0.083 C  
BRANCH   5  11
HETATM   11  N   UNL     1      -9.862   7.931  69.519  1.00  0.00    -0.174 N  
HETATM   12  H   UNL     1     -10.292   7.863  70.441  1.00  0.00     0.000 HD 
BRANCH  11  13
HETATM   13  C   UNL     1     -10.655   8.003  68.410  1.00  0.00    -0.102 C  
HETATM   14  O   UNL     1     -10.953   7.035  67.724  1.00  0.00    -0.218 OA 
BRANCH  13  15
HETATM   15  N   UNL     1     -11.145   9.266  68.200  1.00  0.00    -0.497 N  
HETATM   16  H   UNL     1     -11.858   9.646  68.822  1.00  0.00     0.000 HD 
BRANCH  15  17
HETATM   17  C   UNL     1     -10.655  10.050  67.106  1.00  0.00    -0.232 C  
BRANCH  17  18
HETATM   18  N   UNL     1     -10.195  11.347  67.529  1.00  0.00    -0.182 N  
HETATM   19  H   UNL     1      -9.231  11.476  67.836  1.00  0.00     0.000 HD 
BRANCH  18  20
HETATM   20  C   UNL     1     -11.064  12.406  67.516  1.00  0.00    -0.266 C  
HETATM   21  O   UNL     1     -12.282  12.288  67.505  1.00  0.00    -0.457 OA 
BRANCH  20  22
HETATM   22  N   UNL     1     -10.416  13.618  67.528  1.00  0.00    -0.240 N  
HETATM   23  H   UNL     1      -9.546  13.759  68.042  1.00  0.00     0.000 HD 
BRANCH  22  24
HETATM   24  C   UNL     1     -11.034  14.676  66.775  1.00  0.00    -0.323 C  
HETATM   25  N   UNL     1     -10.490  15.999  66.963  1.00  0.00    -0.304 N  
HETATM   26  O   UNL     1     -10.776  13.575  64.554  1.00  0.00    -0.390 OA 
HETATM   27  C   UNL     1     -10.500  16.714  65.782  1.00  0.00    -0.311 C  
HETATM   28  N   UNL     1     -10.752  15.856  64.762  1.00  0.00    -0.576 NA 
HETATM   29  O   UNL     1     -10.274  17.905  65.652  1.00  0.00    -0.589 OA 
HETATM   30  C   UNL     1     -10.837  14.582  65.242  1.00  0.00    -0.367 C  
BRANCH  25  31
HETATM   31  C   UNL     1     -10.258  16.585  68.244  1.00  0.00    -0.268 C  
HETATM   32  H   UNL     1     -11.253  16.794  69.889  1.00  0.00     0.000 HD 
HETATM   33  O   UNL     1     -11.407  16.404  69.036  1.00  0.00    -0.317 OA 
ENDBRANCH  25  31
ENDBRANCH  22  24
ENDBRANCH  20  22
ENDBRANCH  18  20
ENDBRANCH  17  18
ENDBRANCH  15  17
ENDBRANCH  13  15
ENDBRANCH  11  13
ENDBRANCH   5  11
ENDBRANCH   2   4
TORSDOF 10
ENDMDL
MODEL      353
REMARK 921   NORMALIZED FREE ENERGY PREDICTED BY IDOCK:   -3.83 KCAL/MOL
REMARK 922        TOTAL FREE ENERGY PREDICTED BY IDOCK:   -8.07 KCAL/MOL
REMARK 923 INTER-LIGAND FREE ENERGY PREDICTED BY IDOCK:   -6.56 KCAL/MOL
REMARK 924 INTRA-LIGAND FREE ENERGY PREDICTED BY IDOCK:   -1.51 KCAL/MOL
REMARK 927      BINDING AFFINITY PREDICTED BY RF-SCORE:    0.00 PKD
ROOT
HETATM    1  O   UNL     1      -8.162   8.820  66.704  1.00  0.00    -0.105 OA 
HETATM    2  C   UNL     1      -8.165   8.119  67.924  1.00  0.00    -0.129 C  
HETATM    3  H   UNL     1      -7.290   9.160  66.545  1.00  0.00     0.000 HD 
ENDROOT
BRANCH   2   4
HETATM    4  N   UNL     1      -9.481   7.606  68.163  1.00  0.00    -0.144 N  
HETATM    5  C   UNL     1     -10.148   7.856  69.425  1.00  0.00    -0.196 C  
HETATM    6  O   UNL     1      -9.258   5.794  66.725  1.00  0.00    -0.124 OA 
HETATM    7  C   UNL     1     -10.811   6.476  69.639  1.00  0.00    -0.304 C  
HETATM    8  N   UNL     1     -10.703   5.770  68.481  1.00  0.00    -0.235 NA 
HETATM    9  O   UNL     1     -11.404   6.077  70.630  1.00  0.00    -0.311 OA 
HETATM   10  C   UNL     1      -9.791   6.351  67.671  1.00  0.00    -0.121 C  
BRANCH   5  11
HETATM   11  N   UNL     1     -11.165   8.869  69.285  1.00  0.00    -0.422 N  
HETATM   12  H   UNL     1     -11.699   8.929  68.419  1.00  0.00     0.000 HD 
BRANCH  11  13
HETATM   13  C   UNL     1     -11.423   9.748  70.297  1.00  0.00    -0.255 C  
HETATM   14  O   UNL     1     -10.871   9.709  71.388  1.00  0.00    -0.340 OA 
BRANCH  13  15
HETATM   15  N   UNL     1     -12.308  10.726  69.925  1.00  0.00    -0.441 N  
HETATM   16  H   UNL     1     -13.218  10.471  69.542  1.00  0.00     0.000 HD 
BRANCH  15  17
HETATM   17  C   UNL     1     -11.953  12.106  70.075  1.00  0.00    -0.315 C  
BRANCH  17  18
HETATM   18  N   UNL     1     -11.066  12.555  69.035  1.00  0.00    -0.319 N  
HETATM   19  H   UNL     1     -10.135  12.902  69.267  1.00  0.00     0.000 HD 
BRANCH  18  20
HETATM   20  C   UNL     1     -11.481  12.513  67.730  1.00  0.00    -0.321 C  
HETATM   21  O   UNL     1     -12.155  11.606  67.259  1.00  0.00    -0.595 OA 
BRANCH  20  22
HETATM   22  N   UNL     1     -11.068  13.609  67.010  1.00  0.00    -0.296 N  
HETATM   23  H   UNL     1     -11.723  14.321  66.689  1.00  0.00     0.000 HD 
BRANCH  22  24
HETATM   24  C   UNL     1      -9.659  13.693  66.737  1.00  0.00    -0.275 C  
HETATM   25  N   UNL     1      -8.830  14.212  67.796  1.00  0.00    -0.175 N  
HETATM   26  O   UNL     1      -9.399  11.306  66.067  1.00  0.00    -0.201 OA 
HETATM   27  C   UNL     1      -7.611  13.566  67.838  1.00  0.00    -0.151 C  
HETATM   28  N   UNL     1      -7.685  12.459  67.058  1.00  0.00    -0.112 NA 
HETATM   29  O   UNL     1      -6.638  13.891  68.497  1.00  0.00    -0.084 OA 
HETATM   30  C   UNL     1      -8.949  12.328  66.562  1.00  0.00    -0.161 C  
BRANCH  25  31
HETATM   31  C   UNL     1      -9.112  15.422  68.502  1.00  0.00    -0.197 C  
HETATM   32  H   UNL     1     -10.227  15.944  69.993  1.00  0.00     0.000 HD 
HETATM   33  O   UNL     1     -10.039  15.140  69.523  1.00  0.00    -0.231 OA 
ENDBRANCH  25  31
ENDBRANCH  22  24
ENDBRANCH  20  22
ENDBRANCH  18  20
ENDBRANCH  17  18
ENDBRANCH  15  17
ENDBRANCH  13  15
ENDBRANCH  11  13
ENDBRANCH   5  11
ENDBRANCH   2   4
TORSDOF 10
ENDMDL
MODEL      354
REMARK 921   NORMALIZED FREE ENERGY PREDICTED BY IDOCK:   -3.83 KCAL/MOL
REMARK 922        TOTAL FREE ENERGY PREDICTED BY IDOCK:   -8.07 KCAL/MOL
REMARK 923 INTER-LIGAND FREE ENERGY PREDICTED BY IDOCK:   -6.76 KCAL/MOL
REMARK 924 INTRA-LIGAND FREE ENERGY PREDICTED BY IDOCK:   -1.30 KCAL/MOL
REMARK 927      BINDING AFFINITY PREDICTED BY RF-SCORE:    0.00 PKD
ROOT
HETATM    1  O   UNL     1     -10.477  10.341  69.867  1.00  0.00    -0.257 OA 
HETATM    2  C   UNL     1     -10.978  11.593  69.465  1.00  0.00    -0.098 C  
HETATM    3  H   UNL     1      -9.663  10.173  69.408  1.00  0.00     0.000 HD 
ENDROOT
BRANCH   2   4
HETATM    4  N   UNL     1     -12.206  11.847  70.158  1.00  0.00    -0.272 N  
HETATM    5  C   UNL     1     -12.381  13.068  70.918  1.00  0.00    -0.288 C  
HETATM    6  O   UNL     1     -12.738   9.604  70.459  1.00  0.00    -0.089 OA 
HETATM    7  C   UNL     1     -13.137  12.500  72.140  1.00  0.00    -0.323 C  
HETATM    8  N   UNL     1     -13.520  11.227  71.848  1.00  0.00    -0.290 NA 
HETATM    9  O   UNL     1     -13.429  13.080  73.176  1.00  0.00    -0.117 OA 
HETATM   10  C   UNL     1     -12.844  10.781  70.766  1.00  0.00    -0.320 C  
BRANCH   5  11
HETATM   11  N   UNL     1     -13.224  14.003  70.215  1.00  0.00    -0.175 N  
HETATM   12  H   UNL     1     -13.828  13.670  69.464  1.00  0.00     0.000 HD 
BRANCH  11  13
HETATM   13  C   UNL     1     -13.225  15.329  70.541  1.00  0.00    -0.236 C  
HETATM   14  O   UNL     1     -13.590  15.761  71.625  1.00  0.00    -0.453 OA 
BRANCH  13  15
HETATM   15  N   UNL     1     -12.695  16.110  69.548  1.00  0.00    -0.396 N  
HETATM   16  H   UNL     1     -13.250  16.863  69.141  1.00  0.00     0.000 HD 
BRANCH  15  17
HETATM   17  C   UNL     1     -11.362  15.868  69.082  1.00  0.00    -0.366 C  
BRANCH  17  18
HETATM   18  N   UNL     1     -11.274  15.901  67.646  1.00  0.00    -0.272 N  
HETATM   19  H   UNL     1     -11.007  16.761  67.166  1.00  0.00     0.000 HD 
BRANCH  18  20
HETATM   20  C   UNL     1     -11.552  14.768  66.928  1.00  0.00    -0.327 C  
HETATM   21  O   UNL     1     -12.321  13.894  67.304  1.00  0.00    -0.347 OA 
BRANCH  20  22
HETATM   22  N   UNL     1     -10.879  14.726  65.729  1.00  0.00    -0.318 N  
HETATM   23  H   UNL     1     -11.150  15.311  64.939  1.00  0.00     0.000 HD 
BRANCH  22  24
HETATM   24  C   UNL     1      -9.772  13.812  65.655  1.00  0.00    -0.110 C  
HETATM   25  N   UNL     1      -8.822  13.867  66.738  1.00  0.00    -0.196 N  
HETATM   26  O   UNL     1     -11.166  11.765  65.380  1.00  0.00    -0.304 OA 
HETATM   27  C   UNL     1      -8.348  12.608  67.051  1.00  0.00    -0.130 C  
HETATM   28  N   UNL     1      -9.133  11.689  66.435  1.00  0.00    -0.203 NA 
HETATM   29  O   UNL     1      -7.416  12.345  67.791  1.00  0.00    -0.104 OA 
HETATM   30  C   UNL     1     -10.154  12.318  65.784  1.00  0.00    -0.252 C  
BRANCH  25  31
HETATM   31  C   UNL     1      -8.231  15.077  67.214  1.00  0.00    -0.211 C  
HETATM   32  H   UNL     1      -8.119  16.911  66.610  1.00  0.00     0.000 HD 
HETATM   33  O   UNL     1      -8.511  16.105  66.294  1.00  0.00    -0.310 OA 
ENDBRANCH  25  31
ENDBRANCH  22  24
ENDBRANCH  20  22
ENDBRANCH  18  20
ENDBRANCH  17  18
ENDBRANCH  15  17
ENDBRANCH  13  15
ENDBRANCH  11  13
ENDBRANCH   5  11
ENDBRANCH   2   4
TORSDOF 10
ENDMDL
MODEL      355
REMARK 921   NORMALIZED FREE ENERGY PREDICTED BY IDOCK:   -3.83 KCAL/MOL
REMARK 922        TOTAL FREE ENERGY PREDICTED BY IDOCK:   -8.06 KCAL/MOL
REMARK 923 INTER-LIGAND FREE ENERGY PREDICTED BY IDOCK:   -7.04 KCAL/MOL
REMARK 924 INTRA-LIGAND FREE ENERGY PREDICTED BY IDOCK:   -1.02 KCAL/MOL
REMARK 927      BINDING AFFINITY PREDICTED BY RF-SCORE:    0.00 PKD
ROOT
HETATM    1  O   UNL     1      -8.804   5.713  62.768  1.00  0.00    -0.332 OA 
HETATM    2  C   UNL     1      -8.357   4.774  63.716  1.00  0.00    -0.124 C  
HETATM    3  H   UNL     1      -8.394   5.527  61.931  1.00  0.00     0.000 HD 
ENDROOT
BRANCH   2   4
HETATM    4  N   UNL     1      -8.976   5.055  64.977  1.00  0.00    -0.151 N  
HETATM    5  C   UNL     1      -8.169   5.237  66.166  1.00  0.00    -0.110 C  
HETATM    6  O   UNL     1     -10.975   3.986  64.466  1.00  0.00    -0.269 OA 
HETATM    7  C   UNL     1      -9.055   4.492  67.190  1.00  0.00    -0.126 C  
HETATM    8  N   UNL     1     -10.260   4.247  66.609  1.00  0.00    -0.111 NA 
HETATM    9  O   UNL     1      -8.789   4.220  68.351  1.00  0.00    -0.098 OA 
HETATM   10  C   UNL     1     -10.171   4.423  65.272  1.00  0.00    -0.210 C  
BRANCH   5  11
HETATM   11  N   UNL     1      -8.075   6.630  66.524  1.00  0.00    -0.109 N  
HETATM   12  H   UNL     1      -7.883   6.889  67.492  1.00  0.00     0.000 HD 
BRANCH  11  13
HETATM   13  C   UNL     1      -8.240   7.608  65.587  1.00  0.00    -0.136 C  
HETATM   14  O   UNL     1      -7.373   7.935  64.787  1.00  0.00    -0.074 OA 
BRANCH  13  15
HETATM   15  N   UNL     1      -9.509   8.125  65.589  1.00  0.00    -0.422 N  
HETATM   16  H   UNL     1     -10.044   8.166  64.722  1.00  0.00     0.000 HD 
BRANCH  15  17
HETATM   17  C   UNL     1     -10.082   8.607  66.810  1.00  0.00    -0.296 C  
BRANCH  17  18
HETATM   18  N   UNL     1     -10.471   9.990  66.718  1.00  0.00    -0.221 N  
HETATM   19  H   UNL     1     -11.345  10.250  66.261  1.00  0.00     0.000 HD 
BRANCH  18  20
HETATM   20  C   UNL     1      -9.656  10.955  67.250  1.00  0.00    -0.164 C  
HETATM   21  O   UNL     1      -9.325  10.995  68.427  1.00  0.00    -0.164 OA 
BRANCH  20  22
HETATM   22  N   UNL     1      -9.239  11.869  66.310  1.00  0.00    -0.222 N  
HETATM   23  H   UNL     1      -8.256  11.977  66.063  1.00  0.00     0.000 HD 
BRANCH  22  24
HETATM   24  C   UNL     1     -10.269  12.662  65.696  1.00  0.00    -0.273 C  
HETATM   25  N   UNL     1     -10.888  12.109  64.517  1.00  0.00    -0.295 N  
HETATM   26  O   UNL     1     -11.639  12.921  67.763  1.00  0.00    -0.300 OA 
HETATM   27  C   UNL     1     -12.235  12.408  64.473  1.00  0.00    -0.431 C  
HETATM   28  N   UNL     1     -12.609  12.881  65.688  1.00  0.00    -0.553 NA 
HETATM   29  O   UNL     1     -12.987  12.236  63.529  1.00  0.00    -0.776 OA 
HETATM   30  C   UNL     1     -11.551  12.832  66.547  1.00  0.00    -0.376 C  
BRANCH  25  31
HETATM   31  C   UNL     1     -10.153  11.588  63.408  1.00  0.00    -0.420 C  
HETATM   32  H   UNL     1      -9.100  10.008  63.045  1.00  0.00     0.000 HD 
HETATM   33  O   UNL     1      -9.589  10.355  63.782  1.00  0.00    -0.279 OA 
ENDBRANCH  25  31
ENDBRANCH  22  24
ENDBRANCH  20  22
ENDBRANCH  18  20
ENDBRANCH  17  18
ENDBRANCH  15  17
ENDBRANCH  13  15
ENDBRANCH  11  13
ENDBRANCH   5  11
ENDBRANCH   2   4
TORSDOF 10
ENDMDL
MODEL      356
REMARK 921   NORMALIZED FREE ENERGY PREDICTED BY IDOCK:   -3.83 KCAL/MOL
REMARK 922        TOTAL FREE ENERGY PREDICTED BY IDOCK:   -8.06 KCAL/MOL
REMARK 923 INTER-LIGAND FREE ENERGY PREDICTED BY IDOCK:   -6.87 KCAL/MOL
REMARK 924 INTRA-LIGAND FREE ENERGY PREDICTED BY IDOCK:   -1.19 KCAL/MOL
REMARK 927      BINDING AFFINITY PREDICTED BY RF-SCORE:    0.00 PKD
ROOT
HETATM    1  O   UNL     1     -12.636  14.510  73.425  1.00  0.00    -0.423 OA 
HETATM    2  C   UNL     1     -11.633  15.172  72.694  1.00  0.00    -0.317 C  
HETATM    3  H   UNL     1     -12.455  14.602  74.352  1.00  0.00     0.000 HD 
ENDROOT
BRANCH   2   4
HETATM    4  N   UNL     1     -11.907  15.033  71.295  1.00  0.00    -0.315 N  
HETATM    5  C   UNL     1     -10.839  15.148  70.322  1.00  0.00    -0.231 C  
HETATM    6  O   UNL     1     -14.111  15.757  71.445  1.00  0.00    -0.498 OA 
HETATM    7  C   UNL     1     -11.581  15.942  69.223  1.00  0.00    -0.369 C  
HETATM    8  N   UNL     1     -12.908  15.941  69.523  1.00  0.00     0.247 NA 
HETATM    9  O   UNL     1     -11.111  16.433  68.208  1.00  0.00    -0.347 OA 
HETATM   10  C   UNL     1     -13.090  15.558  70.806  1.00  0.00    -0.390 C  
BRANCH   5  11
HETATM   11  N   UNL     1     -10.454  13.855  69.815  1.00  0.00    -0.249 N  
HETATM   12  H   UNL     1      -9.497  13.528  69.944  1.00  0.00     0.000 HD 
BRANCH  11  13
HETATM   13  C   UNL     1     -11.353  13.062  69.162  1.00  0.00    -0.273 C  
HETATM   14  O   UNL     1     -12.221  12.410  69.728  1.00  0.00    -0.232 OA 
BRANCH  13  15
HETATM   15  N   UNL     1     -11.227  13.141  67.800  1.00  0.00    -0.264 N  
HETATM   16  H   UNL     1     -10.964  14.024  67.363  1.00  0.00     0.000 HD 
BRANCH  15  17
HETATM   17  C   UNL     1     -11.465  11.982  66.991  1.00  0.00    -0.338 C  
BRANCH  17  18
HETATM   18  N   UNL     1     -11.635  10.793  67.783  1.00  0.00    -0.310 N  
HETATM   19  H   UNL     1     -12.390  10.733  68.467  1.00  0.00     0.000 HD 
BRANCH  18  20
HETATM   20  C   UNL     1     -10.776   9.740  67.610  1.00  0.00    -0.274 C  
HETATM   21  O   UNL     1      -9.821   9.758  66.845  1.00  0.00    -0.181 OA 
BRANCH  20  22
HETATM   22  N   UNL     1     -11.098   8.662  68.401  1.00  0.00    -0.374 N  
HETATM   23  H   UNL     1     -11.982   8.163  68.299  1.00  0.00     0.000 HD 
BRANCH  22  24
HETATM   24  C   UNL     1     -10.118   8.279  69.381  1.00  0.00    -0.198 C  
HETATM   25  N   UNL     1     -10.579   8.179  70.744  1.00  0.00    -0.210 N  
HETATM   26  O   UNL     1      -9.396   6.205  68.202  1.00  0.00    -0.117 OA 
HETATM   27  C   UNL     1      -9.962   7.136  71.404  1.00  0.00    -0.187 C  
HETATM   28  N   UNL     1      -9.332   6.360  70.487  1.00  0.00    -0.162 NA 
HETATM   29  O   UNL     1     -10.005   6.906  72.601  1.00  0.00    -0.167 OA 
HETATM   30  C   UNL     1      -9.583   6.833  69.233  1.00  0.00    -0.144 C  
BRANCH  25  31
HETATM   31  C   UNL     1     -11.335   9.198  71.400  1.00  0.00    -0.344 C  
HETATM   32  H   UNL     1     -13.152   9.854  71.333  1.00  0.00     0.000 HD 
HETATM   33  O   UNL     1     -12.649   9.176  70.897  1.00  0.00    -0.207 OA 
ENDBRANCH  25  31
ENDBRANCH  22  24
ENDBRANCH  20  22
ENDBRANCH  18  20
ENDBRANCH  17  18
ENDBRANCH  15  17
ENDBRANCH  13  15
ENDBRANCH  11  13
ENDBRANCH   5  11
ENDBRANCH   2   4
TORSDOF 10
ENDMDL
MODEL      357
REMARK 921   NORMALIZED FREE ENERGY PREDICTED BY IDOCK:   -3.82 KCAL/MOL
REMARK 922        TOTAL FREE ENERGY PREDICTED BY IDOCK:   -8.05 KCAL/MOL
REMARK 923 INTER-LIGAND FREE ENERGY PREDICTED BY IDOCK:   -7.10 KCAL/MOL
REMARK 924 INTRA-LIGAND FREE ENERGY PREDICTED BY IDOCK:   -0.95 KCAL/MOL
REMARK 927      BINDING AFFINITY PREDICTED BY RF-SCORE:    0.00 PKD
ROOT
HETATM    1  O   UNL     1     -10.572  15.046  70.545  1.00  0.00    -0.504 OA 
HETATM    2  C   UNL     1     -11.582  15.453  69.652  1.00  0.00    -0.331 C  
HETATM    3  H   UNL     1     -10.976  14.708  71.335  1.00  0.00     0.000 HD 
ENDROOT
BRANCH   2   4
HETATM    4  N   UNL     1     -10.972  15.963  68.461  1.00  0.00    -0.306 N  
HETATM    5  C   UNL     1     -10.384  15.061  67.492  1.00  0.00    -0.241 C  
HETATM    6  O   UNL     1     -10.401  18.017  69.389  1.00  0.00    -0.191 OA 
HETATM    7  C   UNL     1      -9.126  15.877  67.117  1.00  0.00    -0.209 C  
HETATM    8  N   UNL     1      -9.264  17.129  67.631  1.00  0.00    -0.236 NA 
HETATM    9  O   UNL     1      -8.186  15.524  66.420  1.00  0.00    -0.214 OA 
HETATM   10  C   UNL     1     -10.253  17.142  68.550  1.00  0.00    -0.346 C  
BRANCH   5  11
HETATM   11  N   UNL     1     -11.232  14.913  66.336  1.00  0.00    -0.341 N  
HETATM   12  H   UNL     1     -12.146  14.473  66.435  1.00  0.00     0.000 HD 
BRANCH  11  13
HETATM   13  C   UNL     1     -10.828  15.355  65.109  1.00  0.00    -0.431 C  
HETATM   14  O   UNL     1     -10.886  16.524  64.755  1.00  0.00    -0.720 OA 
BRANCH  13  15
HETATM   15  N   UNL     1     -10.278  14.356  64.350  1.00  0.00    -0.415 N  
HETATM   16  H   UNL     1      -9.393  14.510  63.867  1.00  0.00     0.000 HD 
BRANCH  15  17
HETATM   17  C   UNL     1     -10.946  13.094  64.235  1.00  0.00    -0.403 C  
BRANCH  17  18
HETATM   18  N   UNL     1     -10.030  11.985  64.300  1.00  0.00    -0.420 N  
HETATM   19  H   UNL     1      -9.725  11.519  63.445  1.00  0.00     0.000 HD 
BRANCH  18  20
HETATM   20  C   UNL     1      -9.571  11.561  65.519  1.00  0.00    -0.227 C  
HETATM   21  O   UNL     1     -10.301  11.231  66.445  1.00  0.00    -0.229 OA 
BRANCH  20  22
HETATM   22  N   UNL     1      -8.198  11.535  65.584  1.00  0.00    -0.350 N  
HETATM   23  H   UNL     1      -7.616  11.813  64.794  1.00  0.00     0.000 HD 
BRANCH  22  24
HETATM   24  C   UNL     1      -7.630  11.094  66.829  1.00  0.00    -0.146 C  
HETATM   25  N   UNL     1      -6.971   9.811  66.814  1.00  0.00    -0.084 N  
HETATM   26  O   UNL     1      -6.264  13.143  67.212  1.00  0.00    -0.298 OA 
HETATM   27  C   UNL     1      -5.860   9.811  67.634  1.00  0.00    -0.043 C  
HETATM   28  N   UNL     1      -5.577  11.094  67.972  1.00  0.00    -0.043 NA 
HETATM   29  O   UNL     1      -5.203   8.841  67.968  1.00  0.00    -0.034 OA 
HETATM   30  C   UNL     1      -6.435  11.940  67.333  1.00  0.00    -0.126 C  
BRANCH  25  31
HETATM   31  C   UNL     1      -7.554   8.627  66.268  1.00  0.00    -0.094 C  
HETATM   32  H   UNL     1      -8.545   7.113  66.950  1.00  0.00     0.000 HD 
HETATM   33  O   UNL     1      -8.157   7.901  67.312  1.00  0.00    -0.115 OA 
ENDBRANCH  25  31
ENDBRANCH  22  24
ENDBRANCH  20  22
ENDBRANCH  18  20
ENDBRANCH  17  18
ENDBRANCH  15  17
ENDBRANCH  13  15
ENDBRANCH  11  13
ENDBRANCH   5  11
ENDBRANCH   2   4
TORSDOF 10
ENDMDL
MODEL      358
REMARK 921   NORMALIZED FREE ENERGY PREDICTED BY IDOCK:   -3.82 KCAL/MOL
REMARK 922        TOTAL FREE ENERGY PREDICTED BY IDOCK:   -8.05 KCAL/MOL
REMARK 923 INTER-LIGAND FREE ENERGY PREDICTED BY IDOCK:   -6.74 KCAL/MOL
REMARK 924 INTRA-LIGAND FREE ENERGY PREDICTED BY IDOCK:   -1.31 KCAL/MOL
REMARK 927      BINDING AFFINITY PREDICTED BY RF-SCORE:    0.00 PKD
ROOT
HETATM    1  O   UNL     1     -11.969  15.863  70.310  1.00  0.00    -0.353 OA 
HETATM    2  C   UNL     1     -11.695  15.127  69.142  1.00  0.00    -0.325 C  
HETATM    3  H   UNL     1     -12.843  15.647  70.613  1.00  0.00     0.000 HD 
ENDROOT
BRANCH   2   4
HETATM    4  N   UNL     1     -10.377  15.453  68.684  1.00  0.00    -0.228 N  
HETATM    5  C   UNL     1      -9.285  14.518  68.866  1.00  0.00    -0.118 C  
HETATM    6  O   UNL     1     -10.655  17.752  68.882  1.00  0.00    -0.278 OA 
HETATM    7  C   UNL     1      -8.162  15.511  69.243  1.00  0.00    -0.255 C  
HETATM    8  N   UNL     1      -8.606  16.771  68.985  1.00  0.00    -0.204 NA 
HETATM    9  O   UNL     1      -7.034  15.250  69.634  1.00  0.00    -0.172 OA 
HETATM   10  C   UNL     1      -9.946  16.761  68.816  1.00  0.00    -0.269 C  
BRANCH   5  11
HETATM   11  N   UNL     1      -8.955  13.855  67.629  1.00  0.00    -0.182 N  
HETATM   12  H   UNL     1      -9.557  13.980  66.815  1.00  0.00     0.000 HD 
BRANCH  11  13
HETATM   13  C   UNL     1      -7.848  13.063  67.532  1.00  0.00    -0.178 C  
HETATM   14  O   UNL     1      -6.761  13.460  67.134  1.00  0.00    -0.165 OA 
BRANCH  13  15
HETATM   15  N   UNL     1      -8.069  11.796  68.004  1.00  0.00    -0.136 N  
HETATM   16  H   UNL     1      -8.502  11.096  67.403  1.00  0.00     0.000 HD 
BRANCH  15  17
HETATM   17  C   UNL     1      -7.693  11.457  69.344  1.00  0.00     0.157 C  
BRANCH  17  18
HETATM   18  N   UNL     1      -8.037  10.100  69.679  1.00  0.00    -0.187 N  
HETATM   19  H   UNL     1      -7.317   9.450  69.998  1.00  0.00     0.000 HD 
BRANCH  18  20
HETATM   20  C   UNL     1      -9.338   9.688  69.565  1.00  0.00    -0.200 C  
HETATM   21  O   UNL     1      -9.832   9.268  68.526  1.00  0.00    -0.151 OA 
BRANCH  20  22
HETATM   22  N   UNL     1     -10.027   9.785  70.751  1.00  0.00    -0.339 N  
HETATM   23  H   UNL     1      -9.564  10.038  71.624  1.00  0.00     0.000 HD 
BRANCH  22  24
HETATM   24  C   UNL     1     -11.436   9.509  70.691  1.00  0.00    -0.297 C  
HETATM   25  N   UNL     1     -12.037   8.974  71.887  1.00  0.00    -0.359 N  
HETATM   26  O   UNL     1     -12.097  11.790  69.932  1.00  0.00    -0.305 OA 
HETATM   27  C   UNL     1     -13.313   9.468  72.070  1.00  0.00    -0.452 C  
HETATM   28  N   UNL     1     -13.492  10.515  71.226  1.00  0.00    -0.180 NA 
HETATM   29  O   UNL     1     -14.135   9.077  72.881  1.00  0.00    -0.487 OA 
HETATM   30  C   UNL     1     -12.337  10.761  70.545  1.00  0.00    -0.369 C  
BRANCH  25  31
HETATM   31  C   UNL     1     -11.504   7.863  72.612  1.00  0.00    -0.395 C  
HETATM   32  H   UNL     1      -9.856   7.457  73.537  1.00  0.00     0.000 HD 
HETATM   33  O   UNL     1     -10.211   8.195  73.055  1.00  0.00    -0.309 OA 
ENDBRANCH  25  31
ENDBRANCH  22  24
ENDBRANCH  20  22
ENDBRANCH  18  20
ENDBRANCH  17  18
ENDBRANCH  15  17
ENDBRANCH  13  15
ENDBRANCH  11  13
ENDBRANCH   5  11
ENDBRANCH   2   4
TORSDOF 10
ENDMDL
MODEL      359
REMARK 921   NORMALIZED FREE ENERGY PREDICTED BY IDOCK:   -3.81 KCAL/MOL
REMARK 922        TOTAL FREE ENERGY PREDICTED BY IDOCK:   -8.04 KCAL/MOL
REMARK 923 INTER-LIGAND FREE ENERGY PREDICTED BY IDOCK:   -6.58 KCAL/MOL
REMARK 924 INTRA-LIGAND FREE ENERGY PREDICTED BY IDOCK:   -1.45 KCAL/MOL
REMARK 927      BINDING AFFINITY PREDICTED BY RF-SCORE:    0.00 PKD
ROOT
HETATM    1  O   UNL     1      -9.645   4.136  69.870  1.00  0.00    -0.182 OA 
HETATM    2  C   UNL     1      -8.666   5.033  69.403  1.00  0.00    -0.091 C  
HETATM    3  H   UNL     1      -9.342   3.743  70.680  1.00  0.00     0.000 HD 
ENDROOT
BRANCH   2   4
HETATM    4  N   UNL     1      -9.121   5.626  68.181  1.00  0.00    -0.110 N  
HETATM    5  C   UNL     1     -10.479   5.412  67.723  1.00  0.00    -0.140 C  
HETATM    6  O   UNL     1      -7.019   5.698  67.193  1.00  0.00    -0.062 OA 
HETATM    7  C   UNL     1     -10.212   5.248  66.209  1.00  0.00    -0.223 C  
HETATM    8  N   UNL     1      -8.930   5.628  65.961  1.00  0.00    -0.151 NA 
HETATM    9  O   UNL     1     -11.005   4.914  65.342  1.00  0.00    -0.104 OA 
HETATM   10  C   UNL     1      -8.237   5.693  67.119  1.00  0.00    -0.101 C  
BRANCH   5  11
HETATM   11  N   UNL     1     -11.296   6.577  67.951  1.00  0.00    -0.637 N  
HETATM   12  H   UNL     1     -11.902   6.920  67.206  1.00  0.00     0.000 HD 
BRANCH  11  13
HETATM   13  C   UNL     1     -11.271   7.228  69.150  1.00  0.00     0.106 C  
HETATM   14  O   UNL     1     -11.589   6.710  70.211  1.00  0.00    -0.370 OA 
BRANCH  13  15
HETATM   15  N   UNL     1     -10.773   8.500  69.043  1.00  0.00    -0.396 N  
HETATM   16  H   UNL     1     -10.794   8.982  68.144  1.00  0.00     0.000 HD 
BRANCH  15  17
HETATM   17  C   UNL     1     -10.221   9.152  70.193  1.00  0.00    -0.205 C  
BRANCH  17  18
HETATM   18  N   UNL     1     -10.992  10.301  70.589  1.00  0.00    -0.393 N  
HETATM   19  H   UNL     1     -11.234  10.446  71.569  1.00  0.00     0.000 HD 
BRANCH  18  20
HETATM   20  C   UNL     1     -11.399  11.199  69.637  1.00  0.00    -0.294 C  
HETATM   21  O   UNL     1     -12.469  11.128  69.047  1.00  0.00    -0.439 OA 
BRANCH  20  22
HETATM   22  N   UNL     1     -10.477  12.197  69.427  1.00  0.00    -0.409 N  
HETATM   23  H   UNL     1      -9.617  12.260  69.973  1.00  0.00     0.000 HD 
BRANCH  22  24
HETATM   24  C   UNL     1     -10.793  13.146  68.395  1.00  0.00    -0.262 C  
HETATM   25  N   UNL     1     -11.094  14.489  68.829  1.00  0.00    -0.240 N  
HETATM   26  O   UNL     1      -8.727  12.749  67.059  1.00  0.00    -0.202 OA 
HETATM   27  C   UNL     1     -10.604  15.422  67.938  1.00  0.00    -0.267 C  
HETATM   28  N   UNL     1      -9.752  14.798  67.087  1.00  0.00    -0.229 NA 
HETATM   29  O   UNL     1     -10.846  16.617  67.931  1.00  0.00    -0.347 OA 
HETATM   30  C   UNL     1      -9.619  13.489  67.446  1.00  0.00    -0.227 C  
BRANCH  25  31
HETATM   31  C   UNL     1     -12.023  14.795  69.869  1.00  0.00    -0.328 C  
HETATM   32  H   UNL     1     -11.931  15.162  71.765  1.00  0.00     0.000 HD 
HETATM   33  O   UNL     1     -11.313  14.958  71.073  1.00  0.00    -0.282 OA 
ENDBRANCH  25  31
ENDBRANCH  22  24
ENDBRANCH  20  22
ENDBRANCH  18  20
ENDBRANCH  17  18
ENDBRANCH  15  17
ENDBRANCH  13  15
ENDBRANCH  11  13
ENDBRANCH   5  11
ENDBRANCH   2   4
TORSDOF 10
ENDMDL
MODEL      360
REMARK 921   NORMALIZED FREE ENERGY PREDICTED BY IDOCK:   -3.81 KCAL/MOL
REMARK 922        TOTAL FREE ENERGY PREDICTED BY IDOCK:   -8.04 KCAL/MOL
REMARK 923 INTER-LIGAND FREE ENERGY PREDICTED BY IDOCK:   -7.16 KCAL/MOL
REMARK 924 INTRA-LIGAND FREE ENERGY PREDICTED BY IDOCK:   -0.88 KCAL/MOL
REMARK 927      BINDING AFFINITY PREDICTED BY RF-SCORE:    0.00 PKD
ROOT
HETATM    1  O   UNL     1      -8.759  13.708  67.964  1.00  0.00    -0.159 OA 
HETATM    2  C   UNL     1      -9.211  13.945  66.652  1.00  0.00    -0.236 C  
HETATM    3  H   UNL     1      -7.819  13.838  67.994  1.00  0.00     0.000 HD 
ENDROOT
BRANCH   2   4
HETATM    4  N   UNL     1     -10.629  13.748  66.606  1.00  0.00    -0.273 N  
HETATM    5  C   UNL     1     -11.180  12.475  66.187  1.00  0.00    -0.321 C  
HETATM    6  O   UNL     1     -11.133  15.986  66.235  1.00  0.00    -0.144 OA 
HETATM    7  C   UNL     1     -12.373  12.980  65.343  1.00  0.00    -0.486 C  
HETATM    8  N   UNL     1     -12.525  14.311  65.580  1.00  0.00    -0.441 NA 
HETATM    9  O   UNL     1     -13.121  12.322  64.636  1.00  0.00    -0.770 OA 
HETATM   10  C   UNL     1     -11.420  14.801  66.183  1.00  0.00    -0.311 C  
BRANCH   5  11
HETATM   11  N   UNL     1     -11.666  11.721  67.316  1.00  0.00    -0.271 N  
HETATM   12  H   UNL     1     -12.609  11.890  67.665  1.00  0.00     0.000 HD 
BRANCH  11  13
HETATM   13  C   UNL     1     -10.881  10.785  67.925  1.00  0.00    -0.264 C  
HETATM   14  O   UNL     1      -9.659  10.794  67.885  1.00  0.00    -0.156 OA 
BRANCH  13  15
HETATM   15  N   UNL     1     -11.613   9.883  68.651  1.00  0.00    -0.474 N  
HETATM   16  H   UNL     1     -12.440   9.449  68.241  1.00  0.00     0.000 HD 
BRANCH  15  17
HETATM   17  C   UNL     1     -11.216   9.551  69.987  1.00  0.00    -0.209 C  
BRANCH  17  18
HETATM   18  N   UNL     1     -10.921   8.149  70.134  1.00  0.00    -0.293 N  
HETATM   19  H   UNL     1     -11.577   7.533  70.615  1.00  0.00     0.000 HD 
BRANCH  18  20
HETATM   20  C   UNL     1      -9.753   7.650  69.622  1.00  0.00    -0.171 C  
HETATM   21  O   UNL     1      -9.577   7.408  68.435  1.00  0.00    -0.146 OA 
BRANCH  20  22
HETATM   22  N   UNL     1      -8.792   7.463  70.588  1.00  0.00    -0.149 N  
HETATM   23  H   UNL     1      -7.997   8.093  70.687  1.00  0.00     0.000 HD 
BRANCH  22  24
HETATM   24  C   UNL     1      -8.974   6.327  71.451  1.00  0.00    -0.139 C  
HETATM   25  N   UNL     1     -10.048   6.415  72.409  1.00  0.00    -0.176 N  
HETATM   26  O   UNL     1      -9.137   4.651  69.614  1.00  0.00    -0.096 OA 
HETATM   27  C   UNL     1     -10.663   5.192  72.583  1.00  0.00    -0.237 C  
HETATM   28  N   UNL     1     -10.252   4.360  71.594  1.00  0.00    -0.157 NA 
HETATM   29  O   UNL     1     -11.477   4.903  73.444  1.00  0.00    -0.336 OA 
HETATM   30  C   UNL     1      -9.436   5.035  70.734  1.00  0.00    -0.169 C  
BRANCH  25  31
HETATM   31  C   UNL     1     -10.247   7.534  73.274  1.00  0.00    -0.343 C  
HETATM   32  H   UNL     1      -9.232   9.092  73.803  1.00  0.00     0.000 HD 
HETATM   33  O   UNL     1      -9.100   8.348  73.228  1.00  0.00    -0.229 OA 
ENDBRANCH  25  31
ENDBRANCH  22  24
ENDBRANCH  20  22
ENDBRANCH  18  20
ENDBRANCH  17  18
ENDBRANCH  15  17
ENDBRANCH  13  15
ENDBRANCH  11  13
ENDBRANCH   5  11
ENDBRANCH   2   4
TORSDOF 10
ENDMDL
MODEL      361
REMARK 921   NORMALIZED FREE ENERGY PREDICTED BY IDOCK:   -3.79 KCAL/MOL
REMARK 922        TOTAL FREE ENERGY PREDICTED BY IDOCK:   -8.01 KCAL/MOL
REMARK 923 INTER-LIGAND FREE ENERGY PREDICTED BY IDOCK:   -6.50 KCAL/MOL
REMARK 924 INTRA-LIGAND FREE ENERGY PREDICTED BY IDOCK:   -1.51 KCAL/MOL
REMARK 927      BINDING AFFINITY PREDICTED BY RF-SCORE:    0.00 PKD
ROOT
HETATM    1  O   UNL     1     -11.778   6.001  70.811  1.00  0.00    -0.198 OA 
HETATM    2  C   UNL     1     -11.807   6.033  72.218  1.00  0.00    -0.250 C  
HETATM    3  H   UNL     1     -12.616   6.299  70.479  1.00  0.00     0.000 HD 
ENDROOT
BRANCH   2   4
HETATM    4  N   UNL     1     -10.543   5.583  72.720  1.00  0.00    -0.211 N  
HETATM    5  C   UNL     1      -9.314   5.936  72.038  1.00  0.00    -0.150 C  
HETATM    6  O   UNL     1     -11.395   3.677  73.740  1.00  0.00    -0.194 OA 
HETATM    7  C   UNL     1      -8.555   4.597  72.174  1.00  0.00    -0.119 C  
HETATM    8  N   UNL     1      -9.229   3.816  73.060  1.00  0.00    -0.102 NA 
HETATM    9  O   UNL     1      -7.493   4.283  71.656  1.00  0.00    -0.060 OA 
HETATM   10  C   UNL     1     -10.470   4.311  73.259  1.00  0.00    -0.186 C  
BRANCH   5  11
HETATM   11  N   UNL     1      -8.605   6.973  72.745  1.00  0.00    -0.115 N  
HETATM   12  H   UNL     1      -8.257   6.793  73.686  1.00  0.00     0.000 HD 
BRANCH  11  13
HETATM   13  C   UNL     1      -8.393   8.194  72.172  1.00  0.00    -0.157 C  
HETATM   14  O   UNL     1      -7.446   8.919  72.447  1.00  0.00    -0.342 OA 
BRANCH  13  15
HETATM   15  N   UNL     1      -9.313   8.480  71.198  1.00  0.00    -0.179 N  
HETATM   16  H   UNL     1      -9.273   7.997  70.301  1.00  0.00     0.000 HD 
BRANCH  15  17
HETATM   17  C   UNL     1     -10.331   9.459  71.440  1.00  0.00    -0.256 C  
BRANCH  17  18
HETATM   18  N   UNL     1     -10.402  10.441  70.390  1.00  0.00    -0.387 N  
HETATM   19  H   UNL     1      -9.547  10.816  69.977  1.00  0.00     0.000 HD 
BRANCH  18  20
HETATM   20  C   UNL     1     -11.627  10.867  69.949  1.00  0.00    -0.331 C  
HETATM   21  O   UNL     1     -12.435  11.461  70.650  1.00  0.00    -0.338 OA 
BRANCH  20  22
HETATM   22  N   UNL     1     -11.844  10.565  68.625  1.00  0.00    -0.501 N  
HETATM   23  H   UNL     1     -12.647  10.015  68.322  1.00  0.00     0.000 HD 
BRANCH  22  24
HETATM   24  C   UNL     1     -10.873  11.069  67.692  1.00  0.00    -0.256 C  
HETATM   25  N   UNL     1     -10.204  10.090  66.871  1.00  0.00    -0.227 N  
HETATM   26  O   UNL     1     -12.409  12.702  66.603  1.00  0.00    -0.474 OA 
HETATM   27  C   UNL     1      -9.977  10.576  65.599  1.00  0.00    -0.270 C  
HETATM   28  N   UNL     1     -10.706  11.709  65.437  1.00  0.00    -0.283 NA 
HETATM   29  O   UNL     1      -9.284  10.063  64.738  1.00  0.00    -0.209 OA 
HETATM   30  C   UNL     1     -11.459  11.936  66.551  1.00  0.00    -0.314 C  
BRANCH  25  31
HETATM   31  C   UNL     1      -9.594   8.907  67.389  1.00  0.00    -0.157 C  
HETATM   32  H   UNL     1     -10.201   7.184  68.025  1.00  0.00     0.000 HD 
HETATM   33  O   UNL     1     -10.605   7.972  67.680  1.00  0.00    -0.235 OA 
ENDBRANCH  25  31
ENDBRANCH  22  24
ENDBRANCH  20  22
ENDBRANCH  18  20
ENDBRANCH  17  18
ENDBRANCH  15  17
ENDBRANCH  13  15
ENDBRANCH  11  13
ENDBRANCH   5  11
ENDBRANCH   2   4
TORSDOF 10
ENDMDL
MODEL      362
REMARK 921   NORMALIZED FREE ENERGY PREDICTED BY IDOCK:   -3.77 KCAL/MOL
REMARK 922        TOTAL FREE ENERGY PREDICTED BY IDOCK:   -7.97 KCAL/MOL
REMARK 923 INTER-LIGAND FREE ENERGY PREDICTED BY IDOCK:   -7.44 KCAL/MOL
REMARK 924 INTRA-LIGAND FREE ENERGY PREDICTED BY IDOCK:   -0.53 KCAL/MOL
REMARK 927      BINDING AFFINITY PREDICTED BY RF-SCORE:    0.00 PKD
ROOT
HETATM    1  O   UNL     1     -11.586   6.904  72.240  1.00  0.00    -0.270 OA 
HETATM    2  C   UNL     1     -11.246   8.268  72.311  1.00  0.00    -0.374 C  
HETATM    3  H   UNL     1     -12.096   6.674  73.007  1.00  0.00     0.000 HD 
ENDROOT
BRANCH   2   4
HETATM    4  N   UNL     1     -10.476   8.616  71.154  1.00  0.00    -0.212 N  
HETATM    5  C   UNL     1     -11.121   9.178  69.984  1.00  0.00    -0.190 C  
HETATM    6  O   UNL     1      -8.801   7.052  71.545  1.00  0.00    -0.128 OA 
HETATM    7  C   UNL     1     -10.329   8.441  68.880  1.00  0.00    -0.215 C  
HETATM    8  N   UNL     1      -9.258   7.835  69.459  1.00  0.00    -0.150 NA 
HETATM    9  O   UNL     1     -10.547   8.440  67.677  1.00  0.00    -0.243 OA 
HETATM   10  C   UNL     1      -9.422   7.792  70.799  1.00  0.00    -0.161 C  
BRANCH   5  11
HETATM   11  N   UNL     1     -10.885  10.597  69.890  1.00  0.00    -0.381 N  
HETATM   12  H   UNL     1     -10.028  10.991  70.277  1.00  0.00     0.000 HD 
BRANCH  11  13
HETATM   13  C   UNL     1     -11.792  11.420  69.289  1.00  0.00    -0.349 C  
HETATM   14  O   UNL     1     -12.258  11.220  68.175  1.00  0.00    -0.622 OA 
BRANCH  13  15
HETATM   15  N   UNL     1     -12.183  12.450  70.104  1.00  0.00    -0.271 N  
HETATM   16  H   UNL     1     -12.593  12.251  71.016  1.00  0.00     0.000 HD 
BRANCH  15  17
HETATM   17  C   UNL     1     -12.015  13.806  69.674  1.00  0.00    -0.342 C  
BRANCH  17  18
HETATM   18  N   UNL     1     -10.859  14.426  70.268  1.00  0.00    -0.458 N  
HETATM   19  H   UNL     1     -10.346  13.952  71.012  1.00  0.00     0.000 HD 
BRANCH  18  20
HETATM   20  C   UNL     1     -10.454  15.657  69.825  1.00  0.00    -0.308 C  
HETATM   21  O   UNL     1     -11.153  16.660  69.866  1.00  0.00    -0.305 OA 
BRANCH  20  22
HETATM   22  N   UNL     1      -9.166  15.645  69.342  1.00  0.00    -0.273 N  
HETATM   23  H   UNL     1      -8.359  15.755  69.955  1.00  0.00     0.000 HD 
BRANCH  22  24
HETATM   24  C   UNL     1      -9.024  15.467  67.922  1.00  0.00    -0.173 C  
HETATM   25  N   UNL     1      -9.226  14.130  67.420  1.00  0.00    -0.196 N  
HETATM   26  O   UNL     1     -10.649  17.247  67.290  1.00  0.00    -0.338 OA 
HETATM   27  C   UNL     1      -9.854  14.148  66.191  1.00  0.00    -0.308 C  
HETATM   28  N   UNL     1     -10.337  15.397  65.975  1.00  0.00    -0.304 NA 
HETATM   29  O   UNL     1     -10.004  13.202  65.437  1.00  0.00    -0.266 OA 
HETATM   30  C   UNL     1     -10.100  16.178  67.067  1.00  0.00    -0.270 C  
BRANCH  25  31
HETATM   31  C   UNL     1      -8.596  12.973  67.973  1.00  0.00    -0.186 C  
HETATM   32  H   UNL     1      -6.890  12.083  67.785  1.00  0.00     0.000 HD 
HETATM   33  O   UNL     1      -7.309  12.853  67.417  1.00  0.00    -0.149 OA 
ENDBRANCH  25  31
ENDBRANCH  22  24
ENDBRANCH  20  22
ENDBRANCH  18  20
ENDBRANCH  17  18
ENDBRANCH  15  17
ENDBRANCH  13  15
ENDBRANCH  11  13
ENDBRANCH   5  11
ENDBRANCH   2   4
TORSDOF 10
ENDMDL
MODEL      363
REMARK 921   NORMALIZED FREE ENERGY PREDICTED BY IDOCK:   -3.76 KCAL/MOL
REMARK 922        TOTAL FREE ENERGY PREDICTED BY IDOCK:   -7.95 KCAL/MOL
REMARK 923 INTER-LIGAND FREE ENERGY PREDICTED BY IDOCK:   -7.22 KCAL/MOL
REMARK 924 INTRA-LIGAND FREE ENERGY PREDICTED BY IDOCK:   -0.73 KCAL/MOL
REMARK 927      BINDING AFFINITY PREDICTED BY RF-SCORE:    0.00 PKD
ROOT
HETATM    1  O   UNL     1      -8.333   7.796  66.004  1.00  0.00    -0.118 OA 
HETATM    2  C   UNL     1      -9.522   7.266  66.541  1.00  0.00    -0.163 C  
HETATM    3  H   UNL     1      -8.539   8.267  65.206  1.00  0.00     0.000 HD 
ENDROOT
BRANCH   2   4
HETATM    4  N   UNL     1      -9.212   6.555  67.745  1.00  0.00    -0.115 N  
HETATM    5  C   UNL     1      -8.537   7.223  68.840  1.00  0.00    -0.129 C  
HETATM    6  O   UNL     1      -9.073   4.472  66.722  1.00  0.00    -0.115 OA 
HETATM    7  C   UNL     1      -7.583   6.089  69.279  1.00  0.00    -0.094 C  
HETATM    8  N   UNL     1      -7.971   4.943  68.655  1.00  0.00    -0.084 NA 
HETATM    9  O   UNL     1      -6.677   6.148  70.097  1.00  0.00    -0.046 OA 
HETATM   10  C   UNL     1      -8.811   5.235  67.639  1.00  0.00    -0.105 C  
BRANCH   5  11
HETATM   11  N   UNL     1      -9.454   7.530  69.909  1.00  0.00    -0.161 N  
HETATM   12  H   UNL     1      -9.103   7.951  70.768  1.00  0.00     0.000 HD 
BRANCH  11  13
HETATM   13  C   UNL     1     -10.788   7.263  69.787  1.00  0.00    -0.235 C  
HETATM   14  O   UNL     1     -11.269   6.144  69.897  1.00  0.00    -0.375 OA 
BRANCH  13  15
HETATM   15  N   UNL     1     -11.532   8.399  69.608  1.00  0.00    -0.370 N  
HETATM   16  H   UNL     1     -12.551   8.349  69.624  1.00  0.00     0.000 HD 
BRANCH  15  17
HETATM   17  C   UNL     1     -10.879   9.657  69.400  1.00  0.00    -0.217 C  
BRANCH  17  18
HETATM   18  N   UNL     1     -11.577  10.480  68.447  1.00  0.00    -0.498 N  
HETATM   19  H   UNL     1     -12.563  10.703  68.583  1.00  0.00     0.000 HD 
BRANCH  18  20
HETATM   20  C   UNL     1     -10.904  10.962  67.354  1.00  0.00    -0.279 C  
HETATM   21  O   UNL     1      -9.829  10.525  66.968  1.00  0.00    -0.173 OA 
BRANCH  20  22
HETATM   22  N   UNL     1     -11.580  11.985  66.730  1.00  0.00    -0.347 N  
HETATM   23  H   UNL     1     -12.581  11.934  66.542  1.00  0.00     0.000 HD 
BRANCH  22  24
HETATM   24  C   UNL     1     -10.794  13.130  66.359  1.00  0.00    -0.287 C  
HETATM   25  N   UNL     1     -11.180  13.806  65.145  1.00  0.00    -0.306 N  
HETATM   26  O   UNL     1     -11.057  14.320  68.533  1.00  0.00    -0.239 OA 
HETATM   27  C   UNL     1     -11.014  15.172  65.260  1.00  0.00    -0.395 C  
HETATM   28  N   UNL     1     -10.812  15.471  66.568  1.00  0.00    -0.308 NA 
HETATM   29  O   UNL     1     -11.084  15.991  64.360  1.00  0.00    -0.560 OA 
HETATM   30  C   UNL     1     -10.913  14.338  67.320  1.00  0.00    -0.297 C  
BRANCH  25  31
HETATM   31  C   UNL     1     -11.411  13.136  63.905  1.00  0.00    -0.401 C  
HETATM   32  H   UNL     1     -12.769  13.169  62.528  1.00  0.00     0.000 HD 
HETATM   33  O   UNL     1     -12.614  13.615  63.353  1.00  0.00    -0.799 OA 
ENDBRANCH  25  31
ENDBRANCH  22  24
ENDBRANCH  20  22
ENDBRANCH  18  20
ENDBRANCH  17  18
ENDBRANCH  15  17
ENDBRANCH  13  15
ENDBRANCH  11  13
ENDBRANCH   5  11
ENDBRANCH   2   4
TORSDOF 10
ENDMDL
MODEL      364
REMARK 921   NORMALIZED FREE ENERGY PREDICTED BY IDOCK:   -3.75 KCAL/MOL
REMARK 922        TOTAL FREE ENERGY PREDICTED BY IDOCK:   -7.94 KCAL/MOL
REMARK 923 INTER-LIGAND FREE ENERGY PREDICTED BY IDOCK:   -6.38 KCAL/MOL
REMARK 924 INTRA-LIGAND FREE ENERGY PREDICTED BY IDOCK:   -1.56 KCAL/MOL
REMARK 927      BINDING AFFINITY PREDICTED BY RF-SCORE:    0.00 PKD
ROOT
HETATM    1  O   UNL     1     -10.932  13.858  69.066  1.00  0.00    -0.250 OA 
HETATM    2  C   UNL     1     -11.903  12.843  68.978  1.00  0.00    -0.306 C  
HETATM    3  H   UNL     1     -10.870  14.299  68.228  1.00  0.00     0.000 HD 
ENDROOT
BRANCH   2   4
HETATM    4  N   UNL     1     -11.997  12.177  70.243  1.00  0.00    -0.344 N  
HETATM    5  C   UNL     1     -12.059  10.731  70.308  1.00  0.00    -0.348 C  
HETATM    6  O   UNL     1     -13.052  13.943  71.325  1.00  0.00    -0.331 OA 
HETATM    7  C   UNL     1     -13.103  10.573  71.437  1.00  0.00    -0.410 C  
HETATM    8  N   UNL     1     -13.285  11.789  72.019  1.00  0.00    -0.464 NA 
HETATM    9  O   UNL     1     -13.638   9.544  71.823  1.00  0.00    -0.387 OA 
HETATM   10  C   UNL     1     -12.772  12.758  71.230  1.00  0.00    -0.269 C  
BRANCH   5  11
HETATM   11  N   UNL     1     -10.798  10.173  70.729  1.00  0.00    -0.383 N  
HETATM   12  H   UNL     1     -10.582  10.112  71.724  1.00  0.00     0.000 HD 
BRANCH  11  13
HETATM   13  C   UNL     1      -9.889   9.726  69.814  1.00  0.00    -0.234 C  
HETATM   14  O   UNL     1      -9.005  10.425  69.337  1.00  0.00    -0.194 OA 
BRANCH  13  15
HETATM   15  N   UNL     1     -10.026   8.388  69.553  1.00  0.00    -0.186 N  
HETATM   16  H   UNL     1      -9.842   8.030  68.616  1.00  0.00     0.000 HD 
BRANCH  15  17
HETATM   17  C   UNL     1     -10.430   7.493  70.596  1.00  0.00    -0.216 C  
BRANCH  17  18
HETATM   18  N   UNL     1     -10.184   6.116  70.257  1.00  0.00    -0.190 N  
HETATM   19  H   UNL     1      -9.823   5.470  70.959  1.00  0.00     0.000 HD 
BRANCH  18  20
HETATM   20  C   UNL     1     -10.439   5.681  68.983  1.00  0.00    -0.251 C  
HETATM   21  O   UNL     1     -11.259   6.200  68.237  1.00  0.00    -0.323 OA 
BRANCH  20  22
HETATM   22  N   UNL     1      -9.662   4.603  68.630  1.00  0.00    -0.160 N  
HETATM   23  H   UNL     1      -9.794   3.683  69.049  1.00  0.00     0.000 HD 
BRANCH  22  24
HETATM   24  C   UNL     1      -8.653   4.847  67.635  1.00  0.00    -0.103 C  
HETATM   25  N   UNL     1      -9.122   5.110  66.297  1.00  0.00    -0.131 N  
HETATM   26  O   UNL     1      -7.513   6.675  68.890  1.00  0.00    -0.091 OA 
HETATM   27  C   UNL     1      -8.334   6.052  65.668  1.00  0.00    -0.145 C  
HETATM   28  N   UNL     1      -7.542   6.640  66.599  1.00  0.00    -0.092 NA 
HETATM   29  O   UNL     1      -8.364   6.354  64.487  1.00  0.00    -0.094 OA 
HETATM   30  C   UNL     1      -7.846   6.153  67.836  1.00  0.00    -0.106 C  
BRANCH  25  31
HETATM   31  C   UNL     1     -10.078   4.293  65.618  1.00  0.00    -0.219 C  
HETATM   32  H   UNL     1     -10.071   2.576  64.729  1.00  0.00     0.000 HD 
HETATM   33  O   UNL     1      -9.436   3.120  65.181  1.00  0.00    -0.156 OA 
ENDBRANCH  25  31
ENDBRANCH  22  24
ENDBRANCH  20  22
ENDBRANCH  18  20
ENDBRANCH  17  18
ENDBRANCH  15  17
ENDBRANCH  13  15
ENDBRANCH  11  13
ENDBRANCH   5  11
ENDBRANCH   2   4
TORSDOF 10
ENDMDL
MODEL      365
REMARK 921   NORMALIZED FREE ENERGY PREDICTED BY IDOCK:   -3.74 KCAL/MOL
REMARK 922        TOTAL FREE ENERGY PREDICTED BY IDOCK:   -7.93 KCAL/MOL
REMARK 923 INTER-LIGAND FREE ENERGY PREDICTED BY IDOCK:   -7.50 KCAL/MOL
REMARK 924 INTRA-LIGAND FREE ENERGY PREDICTED BY IDOCK:   -0.43 KCAL/MOL
REMARK 927      BINDING AFFINITY PREDICTED BY RF-SCORE:    0.00 PKD
ROOT
HETATM    1  O   UNL     1      -8.081  20.001  69.243  1.00  0.00    -0.002 OA 
HETATM    2  C   UNL     1      -7.541  20.312  67.981  1.00  0.00    -0.205 C  
HETATM    3  H   UNL     1      -7.921  20.727  69.834  1.00  0.00     0.000 HD 
ENDROOT
BRANCH   2   4
HETATM    4  N   UNL     1      -7.782  19.218  67.089  1.00  0.00    -0.243 N  
HETATM    5  C   UNL     1      -8.076  17.898  67.608  1.00  0.00    -0.224 C  
HETATM    6  O   UNL     1      -6.495  20.080  65.356  1.00  0.00    -0.230 OA 
HETATM    7  C   UNL     1      -7.264  17.045  66.607  1.00  0.00    -0.258 C  
HETATM    8  N   UNL     1      -6.879  17.849  65.580  1.00  0.00    -0.412 NA 
HETATM    9  O   UNL     1      -7.048  15.843  66.652  1.00  0.00    -0.195 OA 
HETATM   10  C   UNL     1      -7.033  19.145  65.928  1.00  0.00    -0.273 C  
BRANCH   5  11
HETATM   11  N   UNL     1      -9.479  17.589  67.486  1.00  0.00    -0.252 N  
HETATM   12  H   UNL     1     -10.025  17.390  68.323  1.00  0.00     0.000 HD 
BRANCH  11  13
HETATM   13  C   UNL     1     -10.087  17.560  66.264  1.00  0.00    -0.336 C  
HETATM   14  O   UNL     1     -10.650  18.523  65.762  1.00  0.00    -0.575 OA 
BRANCH  13  15
HETATM   15  N   UNL     1      -9.924  16.357  65.629  1.00  0.00    -0.289 N  
HETATM   16  H   UNL     1      -8.987  16.012  65.422  1.00  0.00     0.000 HD 
BRANCH  15  17
HETATM   17  C   UNL     1     -11.072  15.584  65.256  1.00  0.00    -0.338 C  
BRANCH  17  18
HETATM   18  N   UNL     1     -10.834  14.169  65.369  1.00  0.00    -0.320 N  
HETATM   19  H   UNL     1     -10.395  13.658  64.603  1.00  0.00     0.000 HD 
BRANCH  18  20
HETATM   20  C   UNL     1     -11.203  13.513  66.514  1.00  0.00    -0.306 C  
HETATM   21  O   UNL     1     -12.312  13.031  66.696  1.00  0.00    -0.381 OA 
BRANCH  20  22
HETATM   22  N   UNL     1     -10.182  13.446  67.434  1.00  0.00    -0.235 N  
HETATM   23  H   UNL     1      -9.202  13.441  67.152  1.00  0.00     0.000 HD 
BRANCH  22  24
HETATM   24  C   UNL     1     -10.576  13.384  68.815  1.00  0.00    -0.210 C  
HETATM   25  N   UNL     1     -11.666  14.242  69.210  1.00  0.00    -0.299 N  
HETATM   26  O   UNL     1     -10.914  10.915  68.859  1.00  0.00    -0.195 OA 
HETATM   27  C   UNL     1     -12.470  13.627  70.148  1.00  0.00    -0.239 C  
HETATM   28  N   UNL     1     -12.149  12.310  70.192  1.00  0.00    -0.321 NA 
HETATM   29  O   UNL     1     -13.357  14.151  70.801  1.00  0.00    -0.255 OA 
HETATM   30  C   UNL     1     -11.200  12.036  69.252  1.00  0.00    -0.229 C  
BRANCH  25  31
HETATM   31  C   UNL     1     -11.729  15.635  68.901  1.00  0.00    -0.384 C  
HETATM   32  H   UNL     1     -10.819  17.240  69.482  1.00  0.00     0.000 HD 
HETATM   33  O   UNL     1     -10.778  16.313  69.687  1.00  0.00    -0.296 OA 
ENDBRANCH  25  31
ENDBRANCH  22  24
ENDBRANCH  20  22
ENDBRANCH  18  20
ENDBRANCH  17  18
ENDBRANCH  15  17
ENDBRANCH  13  15
ENDBRANCH  11  13
ENDBRANCH   5  11
ENDBRANCH   2   4
TORSDOF 10
ENDMDL
MODEL      366
REMARK 921   NORMALIZED FREE ENERGY PREDICTED BY IDOCK:   -3.74 KCAL/MOL
REMARK 922        TOTAL FREE ENERGY PREDICTED BY IDOCK:   -7.92 KCAL/MOL
REMARK 923 INTER-LIGAND FREE ENERGY PREDICTED BY IDOCK:   -6.66 KCAL/MOL
REMARK 924 INTRA-LIGAND FREE ENERGY PREDICTED BY IDOCK:   -1.26 KCAL/MOL
REMARK 927      BINDING AFFINITY PREDICTED BY RF-SCORE:    0.00 PKD
ROOT
HETATM    1  O   UNL     1      -6.931  11.464  66.410  1.00  0.00    -0.299 OA 
HETATM    2  C   UNL     1      -7.764  12.220  67.255  1.00  0.00    -0.161 C  
HETATM    3  H   UNL     1      -6.064  11.851  66.404  1.00  0.00     0.000 HD 
ENDROOT
BRANCH   2   4
HETATM    4  N   UNL     1      -9.072  11.636  67.264  1.00  0.00    -0.164 N  
HETATM    5  C   UNL     1      -9.507  10.827  68.384  1.00  0.00    -0.174 C  
HETATM    6  O   UNL     1      -9.259  11.520  64.950  1.00  0.00    -0.132 OA 
HETATM    7  C   UNL     1     -10.264   9.719  67.618  1.00  0.00    -0.213 C  
HETATM    8  N   UNL     1     -10.410  10.121  66.326  1.00  0.00    -0.207 NA 
HETATM    9  O   UNL     1     -10.735   8.685  68.068  1.00  0.00    -0.181 OA 
HETATM   10  C   UNL     1      -9.580  11.156  66.070  1.00  0.00    -0.217 C  
BRANCH   5  11
HETATM   11  N   UNL     1     -10.426  11.552  69.226  1.00  0.00    -0.421 N  
HETATM   12  H   UNL     1     -10.106  11.914  70.124  1.00  0.00     0.000 HD 
BRANCH  11  13
HETATM   13  C   UNL     1     -11.718  11.761  68.838  1.00  0.00    -0.323 C  
HETATM   14  O   UNL     1     -12.045  12.559  67.970  1.00  0.00    -0.351 OA 
BRANCH  13  15
HETATM   15  N   UNL     1     -12.595  10.921  69.470  1.00  0.00    -0.365 N  
HETATM   16  H   UNL     1     -13.442  10.614  68.993  1.00  0.00     0.000 HD 
BRANCH  15  17
HETATM   17  C   UNL     1     -12.321  10.473  70.804  1.00  0.00    -0.378 C  
BRANCH  17  18
HETATM   18  N   UNL     1     -12.254   9.038  70.892  1.00  0.00    -0.460 N  
HETATM   19  H   UNL     1     -12.881   8.458  70.335  1.00  0.00     0.000 HD 
BRANCH  18  20
HETATM   20  C   UNL     1     -11.339   8.458  71.731  1.00  0.00    -0.300 C  
HETATM   21  O   UNL     1     -11.618   7.998  72.830  1.00  0.00    -0.397 OA 
BRANCH  20  22
HETATM   22  N   UNL     1     -10.073   8.437  71.195  1.00  0.00    -0.188 N  
HETATM   23  H   UNL     1      -9.536   9.291  71.046  1.00  0.00     0.000 HD 
BRANCH  22  24
HETATM   24  C   UNL     1      -9.549   7.142  70.856  1.00  0.00    -0.167 C  
HETATM   25  N   UNL     1      -8.987   6.373  71.940  1.00  0.00    -0.139 N  
HETATM   26  O   UNL     1     -11.626   6.321  69.751  1.00  0.00    -0.436 OA 
HETATM   27  C   UNL     1      -9.257   5.028  71.790  1.00  0.00    -0.141 C  
HETATM   28  N   UNL     1     -10.203   4.885  70.828  1.00  0.00    -0.228 NA 
HETATM   29  O   UNL     1      -8.776   4.113  72.437  1.00  0.00    -0.105 OA 
HETATM   30  C   UNL     1     -10.609   6.112  70.395  1.00  0.00    -0.257 C  
BRANCH  25  31
HETATM   31  C   UNL     1      -8.034   6.893  72.868  1.00  0.00    -0.103 C  
HETATM   32  H   UNL     1      -7.431   8.645  73.420  1.00  0.00     0.000 HD 
HETATM   33  O   UNL     1      -8.064   8.299  72.803  1.00  0.00    -0.153 OA 
ENDBRANCH  25  31
ENDBRANCH  22  24
ENDBRANCH  20  22
ENDBRANCH  18  20
ENDBRANCH  17  18
ENDBRANCH  15  17
ENDBRANCH  13  15
ENDBRANCH  11  13
ENDBRANCH   5  11
ENDBRANCH   2   4
TORSDOF 10
ENDMDL
MODEL      367
REMARK 921   NORMALIZED FREE ENERGY PREDICTED BY IDOCK:   -3.72 KCAL/MOL
REMARK 922        TOTAL FREE ENERGY PREDICTED BY IDOCK:   -7.90 KCAL/MOL
REMARK 923 INTER-LIGAND FREE ENERGY PREDICTED BY IDOCK:   -5.94 KCAL/MOL
REMARK 924 INTRA-LIGAND FREE ENERGY PREDICTED BY IDOCK:   -1.95 KCAL/MOL
REMARK 927      BINDING AFFINITY PREDICTED BY RF-SCORE:    0.00 PKD
ROOT
HETATM    1  O   UNL     1     -10.251   9.995  65.398  1.00  0.00    -0.289 OA 
HETATM    2  C   UNL     1      -9.813  10.705  66.531  1.00  0.00    -0.204 C  
HETATM    3  H   UNL     1     -10.246  10.577  64.647  1.00  0.00     0.000 HD 
ENDROOT
BRANCH   2   4
HETATM    4  N   UNL     1      -9.822   9.827  67.663  1.00  0.00    -0.159 N  
HETATM    5  C   UNL     1     -10.040  10.350  68.996  1.00  0.00    -0.213 C  
HETATM    6  O   UNL     1      -8.420   8.242  66.702  1.00  0.00    -0.117 OA 
HETATM    7  C   UNL     1      -9.021   9.488  69.776  1.00  0.00    -0.200 C  
HETATM    8  N   UNL     1      -8.594   8.491  68.956  1.00  0.00    -0.129 NA 
HETATM    9  O   UNL     1      -8.687   9.600  70.946  1.00  0.00    -0.220 OA 
HETATM   10  C   UNL     1      -8.927   8.772  67.677  1.00  0.00    -0.135 C  
BRANCH   5  11
HETATM   11  N   UNL     1     -11.376  10.063  69.457  1.00  0.00    -0.377 N  
HETATM   12  H   UNL     1     -11.951   9.395  68.946  1.00  0.00     0.000 HD 
BRANCH  11  13
HETATM   13  C   UNL     1     -11.881  10.675  70.568  1.00  0.00    -0.357 C  
HETATM   14  O   UNL     1     -12.370  11.796  70.563  1.00  0.00    -0.334 OA 
BRANCH  13  15
HETATM   15  N   UNL     1     -11.851   9.862  71.670  1.00  0.00    -0.359 N  
HETATM   16  H   UNL     1     -10.992   9.768  72.212  1.00  0.00     0.000 HD 
BRANCH  15  17
HETATM   17  C   UNL     1     -13.027   9.143  72.060  1.00  0.00    -0.424 C  
BRANCH  17  18
HETATM   18  N   UNL     1     -13.199   7.930  71.304  1.00  0.00    -0.529 N  
HETATM   19  H   UNL     1     -13.823   7.911  70.497  1.00  0.00     0.000 HD 
BRANCH  18  20
HETATM   20  C   UNL     1     -12.517   6.802  71.677  1.00  0.00    -0.351 C  
HETATM   21  O   UNL     1     -12.872   6.060  72.583  1.00  0.00     0.137 OA 
BRANCH  20  22
HETATM   22  N   UNL     1     -11.396   6.587  70.911  1.00  0.00    -0.317 N  
HETATM   23  H   UNL     1     -11.367   6.824  69.919  1.00  0.00     0.000 HD 
BRANCH  22  24
HETATM   24  C   UNL     1     -10.266   6.010  71.587  1.00  0.00    -0.201 C  
HETATM   25  N   UNL     1      -9.121   5.695  70.769  1.00  0.00    -0.146 N  
HETATM   26  O   UNL     1     -10.061   7.811  73.298  1.00  0.00    -0.305 OA 
HETATM   27  C   UNL     1      -7.942   5.934  71.446  1.00  0.00    -0.113 C  
HETATM   28  N   UNL     1      -8.226   6.655  72.560  1.00  0.00    -0.106 NA 
HETATM   29  O   UNL     1      -6.822   5.605  71.095  1.00  0.00    -0.057 OA 
HETATM   30  C   UNL     1      -9.557   6.954  72.588  1.00  0.00    -0.145 C  
BRANCH  25  31
HETATM   31  C   UNL     1      -9.200   4.957  69.548  1.00  0.00    -0.119 C  
HETATM   32  H   UNL     1     -10.294   5.001  67.954  1.00  0.00     0.000 HD 
HETATM   33  O   UNL     1     -10.241   5.492  68.767  1.00  0.00    -0.175 OA 
ENDBRANCH  25  31
ENDBRANCH  22  24
ENDBRANCH  20  22
ENDBRANCH  18  20
ENDBRANCH  17  18
ENDBRANCH  15  17
ENDBRANCH  13  15
ENDBRANCH  11  13
ENDBRANCH   5  11
ENDBRANCH   2   4
TORSDOF 10
ENDMDL
MODEL      368
REMARK 921   NORMALIZED FREE ENERGY PREDICTED BY IDOCK:   -3.72 KCAL/MOL
REMARK 922        TOTAL FREE ENERGY PREDICTED BY IDOCK:   -7.90 KCAL/MOL
REMARK 923 INTER-LIGAND FREE ENERGY PREDICTED BY IDOCK:   -7.01 KCAL/MOL
REMARK 924 INTRA-LIGAND FREE ENERGY PREDICTED BY IDOCK:   -0.89 KCAL/MOL
REMARK 927      BINDING AFFINITY PREDICTED BY RF-SCORE:    0.00 PKD
ROOT
HETATM    1  O   UNL     1     -12.971  13.710  65.036  1.00  0.00    -0.724 OA 
HETATM    2  C   UNL     1     -12.174  12.791  65.743  1.00  0.00    -0.408 C  
HETATM    3  H   UNL     1     -13.488  13.240  64.393  1.00  0.00     0.000 HD 
ENDROOT
BRANCH   2   4
HETATM    4  N   UNL     1     -11.394  13.500  66.712  1.00  0.00    -0.317 N  
HETATM    5  C   UNL     1     -11.940  13.795  68.021  1.00  0.00    -0.355 C  
HETATM    6  O   UNL     1     -10.110  14.641  65.146  1.00  0.00    -0.377 OA 
HETATM    7  C   UNL     1     -11.386  15.225  68.211  1.00  0.00    -0.336 C  
HETATM    8  N   UNL     1     -10.461  15.454  67.241  1.00  0.00    -0.276 NA 
HETATM    9  O   UNL     1     -11.648  16.016  69.105  1.00  0.00    -0.356 OA 
HETATM   10  C   UNL     1     -10.574  14.523  66.268  1.00  0.00    -0.304 C  
BRANCH   5  11
HETATM   11  N   UNL     1     -11.387  12.921  69.026  1.00  0.00    -0.276 N  
HETATM   12  H   UNL     1     -10.891  13.320  69.822  1.00  0.00     0.000 HD 
BRANCH  11  13
HETATM   13  C   UNL     1     -11.517  11.566  68.925  1.00  0.00    -0.289 C  
HETATM   14  O   UNL     1     -12.594  10.991  68.843  1.00  0.00    -0.366 OA 
BRANCH  13  15
HETATM   15  N   UNL     1     -10.307  10.929  68.846  1.00  0.00    -0.196 N  
HETATM   16  H   UNL     1      -9.605  11.075  69.571  1.00  0.00     0.000 HD 
BRANCH  15  17
HETATM   17  C   UNL     1     -10.027  10.059  67.742  1.00  0.00    -0.170 C  
BRANCH  17  18
HETATM   18  N   UNL     1     -10.909   8.922  67.710  1.00  0.00    -0.489 N  
HETATM   19  H   UNL     1     -11.917   9.055  67.619  1.00  0.00     0.000 HD 
BRANCH  18  20
HETATM   20  C   UNL     1     -10.384   7.660  67.800  1.00  0.00    -0.219 C  
HETATM   21  O   UNL     1     -11.062   6.645  67.892  1.00  0.00    -0.269 OA 
BRANCH  20  22
HETATM   22  N   UNL     1      -9.010   7.658  67.764  1.00  0.00    -0.131 N  
HETATM   23  H   UNL     1      -8.485   8.300  67.170  1.00  0.00     0.000 HD 
BRANCH  22  24
HETATM   24  C   UNL     1      -8.354   6.699  68.611  1.00  0.00    -0.123 C  
HETATM   25  N   UNL     1      -8.837   6.605  69.967  1.00  0.00    -0.141 N  
HETATM   26  O   UNL     1      -8.685   4.759  67.081  1.00  0.00    -0.105 OA 
HETATM   27  C   UNL     1      -8.809   5.301  70.418  1.00  0.00    -0.127 C  
HETATM   28  N   UNL     1      -8.606   4.484  69.354  1.00  0.00    -0.080 NA 
HETATM   29  O   UNL     1      -8.984   4.924  71.564  1.00  0.00    -0.131 OA 
HETATM   30  C   UNL     1      -8.572   5.220  68.207  1.00  0.00    -0.099 C  
BRANCH  25  31
HETATM   31  C   UNL     1      -9.029   7.736  70.819  1.00  0.00    -0.148 C  
HETATM   32  H   UNL     1     -10.538   8.732  71.503  1.00  0.00     0.000 HD 
HETATM   33  O   UNL     1     -10.410   7.980  70.936  1.00  0.00    -0.199 OA 
ENDBRANCH  25  31
ENDBRANCH  22  24
ENDBRANCH  20  22
ENDBRANCH  18  20
ENDBRANCH  17  18
ENDBRANCH  15  17
ENDBRANCH  13  15
ENDBRANCH  11  13
ENDBRANCH   5  11
ENDBRANCH   2   4
TORSDOF 10
ENDMDL
MODEL      369
REMARK 921   NORMALIZED FREE ENERGY PREDICTED BY IDOCK:   -3.71 KCAL/MOL
REMARK 922        TOTAL FREE ENERGY PREDICTED BY IDOCK:   -7.87 KCAL/MOL
REMARK 923 INTER-LIGAND FREE ENERGY PREDICTED BY IDOCK:   -6.27 KCAL/MOL
REMARK 924 INTRA-LIGAND FREE ENERGY PREDICTED BY IDOCK:   -1.60 KCAL/MOL
REMARK 927      BINDING AFFINITY PREDICTED BY RF-SCORE:    0.00 PKD
ROOT
HETATM    1  O   UNL     1     -10.664  14.757  65.951  1.00  0.00    -0.294 OA 
HETATM    2  C   UNL     1     -10.666  13.906  67.071  1.00  0.00    -0.283 C  
HETATM    3  H   UNL     1     -10.696  15.659  66.248  1.00  0.00     0.000 HD 
ENDROOT
BRANCH   2   4
HETATM    4  N   UNL     1     -10.617  12.546  66.623  1.00  0.00    -0.235 N  
HETATM    5  C   UNL     1      -9.346  11.867  66.472  1.00  0.00    -0.216 C  
HETATM    6  O   UNL     1     -12.601  12.659  65.416  1.00  0.00    -0.641 OA 
HETATM    7  C   UNL     1      -9.628  11.088  65.167  1.00  0.00    -0.237 C  
HETATM    8  N   UNL     1     -10.960  11.169  64.904  1.00  0.00    -0.185 NA 
HETATM    9  O   UNL     1      -8.838  10.437  64.500  1.00  0.00    -0.186 OA 
HETATM   10  C   UNL     1     -11.518  12.148  65.651  1.00  0.00    -0.355 C  
BRANCH   5  11
HETATM   11  N   UNL     1      -9.119  10.941  67.553  1.00  0.00    -0.140 N  
HETATM   12  H   UNL     1      -9.631  10.060  67.578  1.00  0.00     0.000 HD 
BRANCH  11  13
HETATM   13  C   UNL     1      -8.226  11.227  68.546  1.00  0.00    -0.150 C  
HETATM   14  O   UNL     1      -7.458  12.179  68.515  1.00  0.00    -0.108 OA 
BRANCH  13  15
HETATM   15  N   UNL     1      -8.343  10.377  69.614  1.00  0.00    -0.345 N  
HETATM   16  H   UNL     1      -9.255   9.998  69.867  1.00  0.00     0.000 HD 
BRANCH  15  17
HETATM   17  C   UNL     1      -7.182  10.021  70.375  1.00  0.00    -0.108 C  
BRANCH  17  18
HETATM   18  N   UNL     1      -7.204   8.642  70.787  1.00  0.00    -0.059 N  
HETATM   19  H   UNL     1      -6.491   7.993  70.452  1.00  0.00     0.000 HD 
BRANCH  18  20
HETATM   20  C   UNL     1      -8.191   8.208  71.632  1.00  0.00    -0.126 C  
HETATM   21  O   UNL     1      -8.889   8.954  72.305  1.00  0.00    -0.397 OA 
BRANCH  20  22
HETATM   22  N   UNL     1      -8.318   6.839  71.633  1.00  0.00    -0.111 N  
HETATM   23  H   UNL     1      -7.571   6.228  71.964  1.00  0.00     0.000 HD 
BRANCH  22  24
HETATM   24  C   UNL     1      -9.564   6.317  71.140  1.00  0.00    -0.175 C  
HETATM   25  N   UNL     1     -10.689   6.388  72.039  1.00  0.00    -0.220 N  
HETATM   26  O   UNL     1      -9.596   7.692  69.061  1.00  0.00    -0.150 OA 
HETATM   27  C   UNL     1     -11.858   6.659  71.355  1.00  0.00    -0.337 C  
HETATM   28  N   UNL     1     -11.537   7.052  70.097  1.00  0.00    -0.260 NA 
HETATM   29  O   UNL     1     -12.990   6.607  71.803  1.00  0.00    -0.319 OA 
HETATM   30  C   UNL     1     -10.181   7.113  69.965  1.00  0.00    -0.196 C  
BRANCH  25  31
HETATM   31  C   UNL     1     -10.648   5.945  73.396  1.00  0.00    -0.258 C  
HETATM   32  H   UNL     1     -10.600   4.242  74.310  1.00  0.00     0.000 HD 
HETATM   33  O   UNL     1     -10.627   4.537  73.408  1.00  0.00    -0.181 OA 
ENDBRANCH  25  31
ENDBRANCH  22  24
ENDBRANCH  20  22
ENDBRANCH  18  20
ENDBRANCH  17  18
ENDBRANCH  15  17
ENDBRANCH  13  15
ENDBRANCH  11  13
ENDBRANCH   5  11
ENDBRANCH   2   4
TORSDOF 10
ENDMDL
MODEL      370
REMARK 921   NORMALIZED FREE ENERGY PREDICTED BY IDOCK:   -3.70 KCAL/MOL
REMARK 922        TOTAL FREE ENERGY PREDICTED BY IDOCK:   -7.86 KCAL/MOL
REMARK 923 INTER-LIGAND FREE ENERGY PREDICTED BY IDOCK:   -6.23 KCAL/MOL
REMARK 924 INTRA-LIGAND FREE ENERGY PREDICTED BY IDOCK:   -1.63 KCAL/MOL
REMARK 927      BINDING AFFINITY PREDICTED BY RF-SCORE:    0.00 PKD
ROOT
HETATM    1  O   UNL     1      -9.173  20.545  66.144  1.00  0.00    -0.606 OA 
HETATM    2  C   UNL     1      -7.805  20.657  66.455  1.00  0.00    -0.011 C  
HETATM    3  H   UNL     1      -9.499  21.396  65.876  1.00  0.00     0.000 HD 
ENDROOT
BRANCH   2   4
HETATM    4  N   UNL     1      -7.313  19.373  66.860  1.00  0.00    -0.213 N  
HETATM    5  C   UNL     1      -7.863  18.710  68.025  1.00  0.00    -0.271 C  
HETATM    6  O   UNL     1      -5.192  19.674  65.958  1.00  0.00    -0.159 OA 
HETATM    7  C   UNL     1      -6.563  18.126  68.621  1.00  0.00    -0.233 C  
HETATM    8  N   UNL     1      -5.575  18.256  67.694  1.00  0.00    -0.149 NA 
HETATM    9  O   UNL     1      -6.418  17.567  69.698  1.00  0.00    -0.236 OA 
HETATM   10  C   UNL     1      -5.958  19.125  66.733  1.00  0.00    -0.162 C  
BRANCH   5  11
HETATM   11  N   UNL     1      -8.750  17.639  67.645  1.00  0.00    -0.230 N  
HETATM   12  H   UNL     1      -8.386  16.850  67.111  1.00  0.00     0.000 HD 
BRANCH  11  13
HETATM   13  C   UNL     1     -10.070  17.665  67.990  1.00  0.00    -0.343 C  
HETATM   14  O   UNL     1     -10.862  18.504  67.583  1.00  0.00    -0.412 OA 
BRANCH  13  15
HETATM   15  N   UNL     1     -10.425  16.602  68.778  1.00  0.00    -0.301 N  
HETATM   16  H   UNL     1      -9.917  16.415  69.642  1.00  0.00     0.000 HD 
BRANCH  15  17
HETATM   17  C   UNL     1     -11.510  15.752  68.386  1.00  0.00    -0.365 C  
BRANCH  17  18
HETATM   18  N   UNL     1     -11.063  14.432  68.026  1.00  0.00    -0.264 N  
HETATM   19  H   UNL     1     -10.693  13.802  68.738  1.00  0.00     0.000 HD 
BRANCH  18  20
HETATM   20  C   UNL     1     -11.140  14.027  66.720  1.00  0.00    -0.306 C  
HETATM   21  O   UNL     1     -12.159  13.593  66.200  1.00  0.00    -0.389 OA 
BRANCH  20  22
HETATM   22  N   UNL     1      -9.948  14.176  66.051  1.00  0.00    -0.313 N  
HETATM   23  H   UNL     1      -9.710  15.037  65.559  1.00  0.00     0.000 HD 
BRANCH  22  24
HETATM   24  C   UNL     1      -9.056  13.049  66.087  1.00  0.00     0.094 C  
HETATM   25  N   UNL     1      -8.636  12.604  67.393  1.00  0.00    -0.180 N  
HETATM   26  O   UNL     1     -10.502  11.553  64.715  1.00  0.00    -0.268 OA 
HETATM   27  C   UNL     1      -8.524  11.229  67.440  1.00  0.00    -0.137 C  
HETATM   28  N   UNL     1      -9.115  10.713  66.333  1.00  0.00    -0.161 NA 
HETATM   29  O   UNL     1      -8.027  10.570  68.337  1.00  0.00    -0.107 OA 
HETATM   30  C   UNL     1      -9.674  11.716  65.598  1.00  0.00    -0.236 C  
BRANCH  25  31
HETATM   31  C   UNL     1      -8.121  13.478  68.399  1.00  0.00    -0.145 C  
HETATM   32  H   UNL     1      -7.548  15.322  68.491  1.00  0.00     0.000 HD 
HETATM   33  O   UNL     1      -7.891  14.741  67.822  1.00  0.00    -0.125 OA 
ENDBRANCH  25  31
ENDBRANCH  22  24
ENDBRANCH  20  22
ENDBRANCH  18  20
ENDBRANCH  17  18
ENDBRANCH  15  17
ENDBRANCH  13  15
ENDBRANCH  11  13
ENDBRANCH   5  11
ENDBRANCH   2   4
TORSDOF 10
ENDMDL
MODEL      371
REMARK 921   NORMALIZED FREE ENERGY PREDICTED BY IDOCK:   -3.70 KCAL/MOL
REMARK 922        TOTAL FREE ENERGY PREDICTED BY IDOCK:   -7.85 KCAL/MOL
REMARK 923 INTER-LIGAND FREE ENERGY PREDICTED BY IDOCK:   -6.62 KCAL/MOL
REMARK 924 INTRA-LIGAND FREE ENERGY PREDICTED BY IDOCK:   -1.23 KCAL/MOL
REMARK 927      BINDING AFFINITY PREDICTED BY RF-SCORE:    0.00 PKD
ROOT
HETATM    1  O   UNL     1     -11.105  13.502  69.906  1.00  0.00    -0.468 OA 
HETATM    2  C   UNL     1     -11.736  12.300  69.534  1.00  0.00    -0.332 C  
HETATM    3  H   UNL     1     -10.943  14.019  69.127  1.00  0.00     0.000 HD 
ENDROOT
BRANCH   2   4
HETATM    4  N   UNL     1     -11.980  11.519  70.709  1.00  0.00    -0.302 N  
HETATM    5  C   UNL     1     -11.930  10.072  70.653  1.00  0.00    -0.313 C  
HETATM    6  O   UNL     1     -13.346  13.101  71.726  1.00  0.00    -0.409 OA 
HETATM    7  C   UNL     1     -13.128   9.740  71.571  1.00  0.00    -0.411 C  
HETATM    8  N   UNL     1     -13.506  10.883  72.204  1.00  0.00    -0.269 NA 
HETATM    9  O   UNL     1     -13.630   8.645  71.779  1.00  0.00    -0.367 OA 
HETATM   10  C   UNL     1     -12.955  11.953  71.590  1.00  0.00    -0.342 C  
BRANCH   5  11
HETATM   11  N   UNL     1     -10.712   9.570  71.240  1.00  0.00    -0.343 N  
HETATM   12  H   UNL     1     -10.690   9.340  72.233  1.00  0.00     0.000 HD 
BRANCH  11  13
HETATM   13  C   UNL     1      -9.588   9.397  70.485  1.00  0.00    -0.271 C  
HETATM   14  O   UNL     1      -8.465   9.704  70.859  1.00  0.00    -0.253 OA 
BRANCH  13  15
HETATM   15  N   UNL     1      -9.850   8.769  69.296  1.00  0.00    -0.176 N  
HETATM   16  H   UNL     1     -10.631   8.117  69.224  1.00  0.00     0.000 HD 
BRANCH  15  17
HETATM   17  C   UNL     1      -9.026   9.029  68.153  1.00  0.00    -0.133 C  
BRANCH  17  18
HETATM   18  N   UNL     1      -9.528   8.392  66.964  1.00  0.00    -0.163 N  
HETATM   19  H   UNL     1     -10.235   8.855  66.392  1.00  0.00     0.000 HD 
BRANCH  18  20
HETATM   20  C   UNL     1      -9.050   7.159  66.607  1.00  0.00    -0.149 C  
HETATM   21  O   UNL     1      -7.900   6.790  66.807  1.00  0.00    -0.103 OA 
BRANCH  20  22
HETATM   22  N   UNL     1     -10.009   6.376  66.009  1.00  0.00    -0.391 N  
HETATM   23  H   UNL     1     -10.493   6.670  65.161  1.00  0.00     0.000 HD 
BRANCH  22  24
HETATM   24  C   UNL     1     -10.289   5.118  66.647  1.00  0.00    -0.281 C  
HETATM   25  N   UNL     1      -9.326   4.065  66.439  1.00  0.00    -0.165 N  
HETATM   26  O   UNL     1     -10.561   6.064  68.937  1.00  0.00    -0.227 OA 
HETATM   27  C   UNL     1      -9.176   3.295  67.575  1.00  0.00    -0.193 C  
HETATM   28  N   UNL     1      -9.767   3.940  68.612  1.00  0.00    -0.105 NA 
HETATM   29  O   UNL     1      -8.577   2.237  67.662  1.00  0.00    -0.083 OA 
HETATM   30  C   UNL     1     -10.237   5.150  68.194  1.00  0.00    -0.111 C  
BRANCH  25  31
HETATM   31  C   UNL     1      -8.827   3.690  65.154  1.00  0.00    -0.120 C  
HETATM   32  H   UNL     1      -9.487   2.696  63.633  1.00  0.00     0.000 HD 
HETATM   33  O   UNL     1      -9.818   2.946  64.488  1.00  0.00    -0.143 OA 
ENDBRANCH  25  31
ENDBRANCH  22  24
ENDBRANCH  20  22
ENDBRANCH  18  20
ENDBRANCH  17  18
ENDBRANCH  15  17
ENDBRANCH  13  15
ENDBRANCH  11  13
ENDBRANCH   5  11
ENDBRANCH   2   4
TORSDOF 10
ENDMDL
MODEL      372
REMARK 921   NORMALIZED FREE ENERGY PREDICTED BY IDOCK:   -3.67 KCAL/MOL
REMARK 922        TOTAL FREE ENERGY PREDICTED BY IDOCK:   -7.81 KCAL/MOL
REMARK 923 INTER-LIGAND FREE ENERGY PREDICTED BY IDOCK:   -6.15 KCAL/MOL
REMARK 924 INTRA-LIGAND FREE ENERGY PREDICTED BY IDOCK:   -1.66 KCAL/MOL
REMARK 927      BINDING AFFINITY PREDICTED BY RF-SCORE:    0.00 PKD
ROOT
HETATM    1  O   UNL     1     -10.950  13.605  69.643  1.00  0.00    -0.453 OA 
HETATM    2  C   UNL     1     -11.992  12.697  69.376  1.00  0.00    -0.260 C  
HETATM    3  H   UNL     1     -10.882  14.218  68.920  1.00  0.00     0.000 HD 
ENDROOT
BRANCH   2   4
HETATM    4  N   UNL     1     -12.095  11.773  70.466  1.00  0.00    -0.374 N  
HETATM    5  C   UNL     1     -12.158  10.348  70.216  1.00  0.00    -0.286 C  
HETATM    6  O   UNL     1     -13.159  13.264  71.898  1.00  0.00    -0.386 OA 
HETATM    7  C   UNL     1     -13.210   9.950  71.276  1.00  0.00    -0.383 C  
HETATM    8  N   UNL     1     -13.396  11.012  72.107  1.00  0.00    -0.357 NA 
HETATM    9  O   UNL     1     -13.747   8.863  71.426  1.00  0.00    -0.351 OA 
HETATM   10  C   UNL     1     -12.878  12.128  71.550  1.00  0.00    -0.289 C  
BRANCH   5  11
HETATM   11  N   UNL     1     -10.899   9.710  70.515  1.00  0.00    -0.284 N  
HETATM   12  H   UNL     1     -10.564   9.687  71.477  1.00  0.00     0.000 HD 
BRANCH  11  13
HETATM   13  C   UNL     1     -10.151   9.138  69.527  1.00  0.00    -0.197 C  
HETATM   14  O   UNL     1      -9.927   7.937  69.454  1.00  0.00    -0.181 OA 
BRANCH  13  15
HETATM   15  N   UNL     1      -9.749  10.046  68.584  1.00  0.00    -0.154 N  
HETATM   16  H   UNL     1      -9.163  10.836  68.853  1.00  0.00     0.000 HD 
BRANCH  15  17
HETATM   17  C   UNL     1     -10.154   9.886  67.219  1.00  0.00    -0.211 C  
BRANCH  17  18
HETATM   18  N   UNL     1      -9.111  10.252  66.296  1.00  0.00    -0.151 N  
HETATM   19  H   UNL     1      -8.889   9.648  65.505  1.00  0.00     0.000 HD 
BRANCH  18  20
HETATM   20  C   UNL     1      -8.420  11.419  66.490  1.00  0.00    -0.170 C  
HETATM   21  O   UNL     1      -8.934  12.460  66.874  1.00  0.00    -0.202 OA 
BRANCH  20  22
HETATM   22  N   UNL     1      -7.078  11.287  66.217  1.00  0.00    -0.336 N  
HETATM   23  H   UNL     1      -6.694  11.490  65.294  1.00  0.00     0.000 HD 
BRANCH  22  24
HETATM   24  C   UNL     1      -6.249  10.847  67.306  1.00  0.00    -0.064 C  
HETATM   25  N   UNL     1      -6.288  11.647  68.505  1.00  0.00    -0.051 N  
HETATM   26  O   UNL     1      -7.158   8.527  67.380  1.00  0.00    -0.077 OA 
HETATM   27  C   UNL     1      -6.198  10.859  69.634  1.00  0.00    -0.085 C  
HETATM   28  N   UNL     1      -6.388   9.566  69.271  1.00  0.00    -0.044 NA 
HETATM   29  O   UNL     1      -6.027  11.244  70.778  1.00  0.00    -0.317 OA 
HETATM   30  C   UNL     1      -6.671   9.498  67.939  1.00  0.00    -0.066 C  
BRANCH  25  31
HETATM   31  C   UNL     1      -6.135  13.068  68.514  1.00  0.00    -0.076 C  
HETATM   32  H   UNL     1      -5.669  14.433  67.227  1.00  0.00     0.000 HD 
HETATM   33  O   UNL     1      -5.771  13.488  67.221  1.00  0.00    -0.346 OA 
ENDBRANCH  25  31
ENDBRANCH  22  24
ENDBRANCH  20  22
ENDBRANCH  18  20
ENDBRANCH  17  18
ENDBRANCH  15  17
ENDBRANCH  13  15
ENDBRANCH  11  13
ENDBRANCH   5  11
ENDBRANCH   2   4
TORSDOF 10
ENDMDL
MODEL      373
REMARK 921   NORMALIZED FREE ENERGY PREDICTED BY IDOCK:   -3.67 KCAL/MOL
REMARK 922        TOTAL FREE ENERGY PREDICTED BY IDOCK:   -7.81 KCAL/MOL
REMARK 923 INTER-LIGAND FREE ENERGY PREDICTED BY IDOCK:   -6.64 KCAL/MOL
REMARK 924 INTRA-LIGAND FREE ENERGY PREDICTED BY IDOCK:   -1.16 KCAL/MOL
REMARK 927      BINDING AFFINITY PREDICTED BY RF-SCORE:    0.00 PKD
ROOT
HETATM    1  O   UNL     1     -11.493  16.217  71.363  1.00  0.00    -0.421 OA 
HETATM    2  C   UNL     1     -12.215  15.625  70.310  1.00  0.00    -0.386 C  
HETATM    3  H   UNL     1     -11.718  17.138  71.413  1.00  0.00     0.000 HD 
ENDROOT
BRANCH   2   4
HETATM    4  N   UNL     1     -11.875  14.235  70.236  1.00  0.00    -0.296 N  
HETATM    5  C   UNL     1     -11.377  13.667  69.000  1.00  0.00    -0.287 C  
HETATM    6  O   UNL     1     -13.360  13.573  71.897  1.00  0.00    -0.391 OA 
HETATM    7  C   UNL     1     -12.118  12.311  69.028  1.00  0.00    -0.145 C  
HETATM    8  N   UNL     1     -12.664  12.152  70.264  1.00  0.00     0.075 NA 
HETATM    9  O   UNL     1     -12.167  11.466  68.146  1.00  0.00    -0.602 OA 
HETATM   10  C   UNL     1     -12.670  13.332  70.920  1.00  0.00    -0.254 C  
BRANCH   5  11
HETATM   11  N   UNL     1      -9.954  13.446  69.064  1.00  0.00    -0.421 N  
HETATM   12  H   UNL     1      -9.400  13.935  69.767  1.00  0.00     0.000 HD 
BRANCH  11  13
HETATM   13  C   UNL     1      -9.337  12.591  68.198  1.00  0.00    -0.210 C  
HETATM   14  O   UNL     1      -9.472  12.640  66.983  1.00  0.00    -0.206 OA 
BRANCH  13  15
HETATM   15  N   UNL     1      -8.488  11.724  68.835  1.00  0.00    -0.368 N  
HETATM   16  H   UNL     1      -7.569  12.043  69.140  1.00  0.00     0.000 HD 
BRANCH  15  17
HETATM   17  C   UNL     1      -8.893  10.370  69.071  1.00  0.00    -0.172 C  
BRANCH  17  18
HETATM   18  N   UNL     1     -10.141  10.293  69.784  1.00  0.00    -0.343 N  
HETATM   19  H   UNL     1     -10.947  10.834  69.472  1.00  0.00     0.000 HD 
BRANCH  18  20
HETATM   20  C   UNL     1     -10.237   9.486  70.887  1.00  0.00    -0.286 C  
HETATM   21  O   UNL     1     -11.007   9.690  71.816  1.00  0.00    -0.259 OA 
BRANCH  20  22
HETATM   22  N   UNL     1      -9.380   8.412  70.830  1.00  0.00    -0.156 N  
HETATM   23  H   UNL     1      -8.853   8.187  69.986  1.00  0.00     0.000 HD 
BRANCH  22  24
HETATM   24  C   UNL     1      -9.268   7.624  72.027  1.00  0.00    -0.138 C  
HETATM   25  N   UNL     1      -9.368   6.195  71.866  1.00  0.00    -0.151 N  
HETATM   26  O   UNL     1      -7.095   8.602  72.759  1.00  0.00    -0.276 OA 
HETATM   27  C   UNL     1      -8.520   5.534  72.732  1.00  0.00    -0.120 C  
HETATM   28  N   UNL     1      -7.656   6.438  73.259  1.00  0.00    -0.090 NA 
HETATM   29  O   UNL     1      -8.501   4.337  72.959  1.00  0.00    -0.093 OA 
HETATM   30  C   UNL     1      -7.876   7.664  72.703  1.00  0.00    -0.101 C  
BRANCH  25  31
HETATM   31  C   UNL     1     -10.411   5.552  71.132  1.00  0.00    -0.236 C  
HETATM   32  H   UNL     1     -12.295   5.858  70.818  1.00  0.00     0.000 HD 
HETATM   33  O   UNL     1     -11.600   6.285  71.306  1.00  0.00    -0.308 OA 
ENDBRANCH  25  31
ENDBRANCH  22  24
ENDBRANCH  20  22
ENDBRANCH  18  20
ENDBRANCH  17  18
ENDBRANCH  15  17
ENDBRANCH  13  15
ENDBRANCH  11  13
ENDBRANCH   5  11
ENDBRANCH   2   4
TORSDOF 10
ENDMDL
MODEL      374
REMARK 921   NORMALIZED FREE ENERGY PREDICTED BY IDOCK:   -3.67 KCAL/MOL
REMARK 922        TOTAL FREE ENERGY PREDICTED BY IDOCK:   -7.80 KCAL/MOL
REMARK 923 INTER-LIGAND FREE ENERGY PREDICTED BY IDOCK:   -7.13 KCAL/MOL
REMARK 924 INTRA-LIGAND FREE ENERGY PREDICTED BY IDOCK:   -0.68 KCAL/MOL
REMARK 927      BINDING AFFINITY PREDICTED BY RF-SCORE:    0.00 PKD
ROOT
HETATM    1  O   UNL     1     -11.122  15.733  64.242  1.00  0.00    -0.811 OA 
HETATM    2  C   UNL     1     -11.183  15.680  65.647  1.00  0.00    -0.106 C  
HETATM    3  H   UNL     1     -10.992  16.635  63.973  1.00  0.00     0.000 HD 
ENDROOT
BRANCH   2   4
HETATM    4  N   UNL     1     -11.379  14.320  66.054  1.00  0.00    -0.328 N  
HETATM    5  C   UNL     1     -10.262  13.398  66.095  1.00  0.00    -0.301 C  
HETATM    6  O   UNL     1     -13.599  14.221  65.372  1.00  0.00    -0.516 OA 
HETATM    7  C   UNL     1     -10.956  12.133  65.541  1.00  0.00    -0.301 C  
HETATM    8  N   UNL     1     -12.297  12.361  65.520  1.00  0.00    -0.624 NA 
HETATM    9  O   UNL     1     -10.440  11.068  65.237  1.00  0.00    -0.273 OA 
HETATM   10  C   UNL     1     -12.542  13.682  65.660  1.00  0.00    -0.484 C  
BRANCH   5  11
HETATM   11  N   UNL     1      -9.829  13.163  67.450  1.00  0.00    -0.222 N  
HETATM   12  H   UNL     1     -10.375  12.548  68.052  1.00  0.00     0.000 HD 
BRANCH  11  13
HETATM   13  C   UNL     1      -8.699  13.753  67.937  1.00  0.00    -0.183 C  
HETATM   14  O   UNL     1      -8.370  14.904  67.684  1.00  0.00    -0.147 OA 
BRANCH  13  15
HETATM   15  N   UNL     1      -8.018  12.939  68.805  1.00  0.00    -0.329 N  
HETATM   16  H   UNL     1      -7.551  13.339  69.618  1.00  0.00     0.000 HD 
BRANCH  15  17
HETATM   17  C   UNL     1      -7.964  11.527  68.567  1.00  0.00    -0.143 C  
BRANCH  17  18
HETATM   18  N   UNL     1      -8.506  10.770  69.664  1.00  0.00    -0.366 N  
HETATM   19  H   UNL     1      -7.914  10.512  70.454  1.00  0.00     0.000 HD 
BRANCH  18  20
HETATM   20  C   UNL     1      -9.825  10.400  69.640  1.00  0.00    -0.144 C  
HETATM   21  O   UNL     1     -10.574  10.608  68.694  1.00  0.00    -0.179 OA 
BRANCH  20  22
HETATM   22  N   UNL     1     -10.213   9.756  70.792  1.00  0.00    -0.340 N  
HETATM   23  H   UNL     1     -10.955  10.121  71.389  1.00  0.00     0.000 HD 
BRANCH  22  24
HETATM   24  C   UNL     1      -9.512   8.541  71.105  1.00  0.00    -0.195 C  
HETATM   25  N   UNL     1      -9.569   7.494  70.114  1.00  0.00    -0.168 N  
HETATM   26  O   UNL     1      -7.323   9.636  71.572  1.00  0.00    -0.266 OA 
HETATM   27  C   UNL     1      -8.374   6.806  70.046  1.00  0.00    -0.135 C  
HETATM   28  N   UNL     1      -7.435   7.510  70.726  1.00  0.00    -0.075 NA 
HETATM   29  O   UNL     1      -8.167   5.769  69.441  1.00  0.00    -0.105 OA 
HETATM   30  C   UNL     1      -7.972   8.679  71.178  1.00  0.00    -0.138 C  
BRANCH  25  31
HETATM   31  C   UNL     1     -10.782   7.042  69.509  1.00  0.00    -0.241 C  
HETATM   32  H   UNL     1     -12.670   7.394  69.726  1.00  0.00     0.000 HD 
HETATM   33  O   UNL     1     -11.864   7.695  70.128  1.00  0.00    -0.009 OA 
ENDBRANCH  25  31
ENDBRANCH  22  24
ENDBRANCH  20  22
ENDBRANCH  18  20
ENDBRANCH  17  18
ENDBRANCH  15  17
ENDBRANCH  13  15
ENDBRANCH  11  13
ENDBRANCH   5  11
ENDBRANCH   2   4
TORSDOF 10
ENDMDL
MODEL      375
REMARK 921   NORMALIZED FREE ENERGY PREDICTED BY IDOCK:   -3.66 KCAL/MOL
REMARK 922        TOTAL FREE ENERGY PREDICTED BY IDOCK:   -7.80 KCAL/MOL
REMARK 923 INTER-LIGAND FREE ENERGY PREDICTED BY IDOCK:   -6.31 KCAL/MOL
REMARK 924 INTRA-LIGAND FREE ENERGY PREDICTED BY IDOCK:   -1.49 KCAL/MOL
REMARK 927      BINDING AFFINITY PREDICTED BY RF-SCORE:    0.00 PKD
ROOT
HETATM    1  O   UNL     1      -7.923   4.418  68.654  1.00  0.00    -0.077 OA 
HETATM    2  C   UNL     1      -9.141   4.183  69.319  1.00  0.00    -0.127 C  
HETATM    3  H   UNL     1      -7.476   3.590  68.526  1.00  0.00     0.000 HD 
ENDROOT
BRANCH   2   4
HETATM    4  N   UNL     1      -9.815   5.432  69.512  1.00  0.00    -0.177 N  
HETATM    5  C   UNL     1     -10.294   5.812  70.825  1.00  0.00    -0.237 C  
HETATM    6  O   UNL     1     -10.627   5.562  67.338  1.00  0.00    -0.232 OA 
HETATM    7  C   UNL     1     -11.644   6.450  70.428  1.00  0.00    -0.373 C  
HETATM    8  N   UNL     1     -11.658   6.607  69.076  1.00  0.00    -0.074 NA 
HETATM    9  O   UNL     1     -12.538   6.833  71.168  1.00  0.00    -0.353 OA 
HETATM   10  C   UNL     1     -10.672   5.870  68.518  1.00  0.00    -0.255 C  
BRANCH   5  11
HETATM   11  N   UNL     1      -9.441   6.809  71.422  1.00  0.00    -0.161 N  
HETATM   12  H   UNL     1      -8.428   6.706  71.362  1.00  0.00     0.000 HD 
BRANCH  11  13
HETATM   13  C   UNL     1      -9.970   7.890  72.068  1.00  0.00    -0.193 C  
HETATM   14  O   UNL     1     -10.100   7.959  73.282  1.00  0.00    -0.313 OA 
BRANCH  13  15
HETATM   15  N   UNL     1     -10.263   8.917  71.211  1.00  0.00    -0.262 N  
HETATM   16  H   UNL     1     -11.173   9.375  71.255  1.00  0.00     0.000 HD 
BRANCH  15  17
HETATM   17  C   UNL     1      -9.290   9.348  70.251  1.00  0.00    -0.252 C  
BRANCH  17  18
HETATM   18  N   UNL     1      -9.782   9.262  68.901  1.00  0.00    -0.158 N  
HETATM   19  H   UNL     1      -9.463   8.516  68.284  1.00  0.00     0.000 HD 
BRANCH  18  20
HETATM   20  C   UNL     1     -10.684  10.191  68.453  1.00  0.00    -0.230 C  
HETATM   21  O   UNL     1     -11.465  10.789  69.181  1.00  0.00    -0.257 OA 
BRANCH  20  22
HETATM   22  N   UNL     1     -10.606  10.387  67.094  1.00  0.00    -0.256 N  
HETATM   23  H   UNL     1     -11.017   9.731  66.431  1.00  0.00     0.000 HD 
BRANCH  22  24
HETATM   24  C   UNL     1      -9.911  11.570  66.663  1.00  0.00    -0.207 C  
HETATM   25  N   UNL     1     -10.492  12.832  67.050  1.00  0.00    -0.236 N  
HETATM   26  O   UNL     1      -7.705  10.918  67.622  1.00  0.00    -0.105 OA 
HETATM   27  C   UNL     1      -9.515  13.762  67.344  1.00  0.00    -0.224 C  
HETATM   28  N   UNL     1      -8.327  13.116  67.451  1.00  0.00    -0.180 NA 
HETATM   29  O   UNL     1      -9.680  14.955  67.528  1.00  0.00    -0.211 OA 
HETATM   30  C   UNL     1      -8.517  11.774  67.304  1.00  0.00    -0.160 C  
BRANCH  25  31
HETATM   31  C   UNL     1     -11.870  13.160  66.863  1.00  0.00    -0.386 C  
HETATM   32  H   UNL     1     -13.312  12.548  65.730  1.00  0.00     0.000 HD 
HETATM   33  O   UNL     1     -12.396  12.330  65.855  1.00  0.00    -0.618 OA 
ENDBRANCH  25  31
ENDBRANCH  22  24
ENDBRANCH  20  22
ENDBRANCH  18  20
ENDBRANCH  17  18
ENDBRANCH  15  17
ENDBRANCH  13  15
ENDBRANCH  11  13
ENDBRANCH   5  11
ENDBRANCH   2   4
TORSDOF 10
ENDMDL
MODEL      376
REMARK 921   NORMALIZED FREE ENERGY PREDICTED BY IDOCK:   -3.66 KCAL/MOL
REMARK 922        TOTAL FREE ENERGY PREDICTED BY IDOCK:   -7.79 KCAL/MOL
REMARK 923 INTER-LIGAND FREE ENERGY PREDICTED BY IDOCK:   -6.95 KCAL/MOL
REMARK 924 INTRA-LIGAND FREE ENERGY PREDICTED BY IDOCK:   -0.85 KCAL/MOL
REMARK 927      BINDING AFFINITY PREDICTED BY RF-SCORE:    0.00 PKD
ROOT
HETATM    1  O   UNL     1     -12.857  13.287  65.098  1.00  0.00    -0.670 OA 
HETATM    2  C   UNL     1     -11.922  12.499  65.793  1.00  0.00    -0.420 C  
HETATM    3  H   UNL     1     -13.264  12.759  64.422  1.00  0.00     0.000 HD 
ENDROOT
BRANCH   2   4
HETATM    4  N   UNL     1     -11.307  13.296  66.812  1.00  0.00    -0.314 N  
HETATM    5  C   UNL     1     -11.922  13.420  68.118  1.00  0.00    -0.321 C  
HETATM    6  O   UNL     1     -10.236  14.731  65.331  1.00  0.00    -0.341 OA 
HETATM    7  C   UNL     1     -11.653  14.918  68.384  1.00  0.00    -0.325 C  
HETATM    8  N   UNL     1     -10.771  15.363  67.449  1.00  0.00    -0.291 NA 
HETATM    9  O   UNL     1     -12.076  15.603  69.304  1.00  0.00    -0.347 OA 
HETATM   10  C   UNL     1     -10.689  14.475  66.435  1.00  0.00    -0.309 C  
BRANCH   5  11
HETATM   11  N   UNL     1     -11.231  12.619  69.098  1.00  0.00    -0.350 N  
HETATM   12  H   UNL     1     -10.420  13.005  69.581  1.00  0.00     0.000 HD 
BRANCH  11  13
HETATM   13  C   UNL     1     -11.647  11.352  69.388  1.00  0.00    -0.323 C  
HETATM   14  O   UNL     1     -12.530  10.770  68.773  1.00  0.00    -0.366 OA 
BRANCH  13  15
HETATM   15  N   UNL     1     -10.909  10.777  70.389  1.00  0.00    -0.416 N  
HETATM   16  H   UNL     1     -10.191  11.318  70.869  1.00  0.00     0.000 HD 
BRANCH  15  17
HETATM   17  C   UNL     1     -11.148   9.414  70.761  1.00  0.00    -0.300 C  
BRANCH  17  18
HETATM   18  N   UNL     1     -10.060   8.550  70.387  1.00  0.00    -0.186 N  
HETATM   19  H   UNL     1      -9.240   8.930  69.913  1.00  0.00     0.000 HD 
BRANCH  18  20
HETATM   20  C   UNL     1     -10.133   7.212  70.672  1.00  0.00    -0.191 C  
HETATM   21  O   UNL     1     -10.411   6.765  71.777  1.00  0.00    -0.206 OA 
BRANCH  20  22
HETATM   22  N   UNL     1      -9.873   6.424  69.575  1.00  0.00    -0.152 N  
HETATM   23  H   UNL     1     -10.515   5.692  69.273  1.00  0.00     0.000 HD 
BRANCH  22  24
HETATM   24  C   UNL     1      -8.644   6.693  68.879  1.00  0.00    -0.126 C  
HETATM   25  N   UNL     1      -8.701   7.692  67.840  1.00  0.00    -0.125 N  
HETATM   26  O   UNL     1      -7.303   7.165  70.926  1.00  0.00    -0.073 OA 
HETATM   27  C   UNL     1      -7.542   8.441  67.803  1.00  0.00    -0.102 C  
HETATM   28  N   UNL     1      -6.834   8.191  68.933  1.00  0.00    -0.060 NA 
HETATM   29  O   UNL     1      -7.216   9.233  66.936  1.00  0.00    -0.085 OA 
HETATM   30  C   UNL     1      -7.539   7.350  69.742  1.00  0.00    -0.095 C  
BRANCH  25  31
HETATM   31  C   UNL     1      -9.688   7.703  66.807  1.00  0.00    -0.222 C  
HETATM   32  H   UNL     1     -11.525   8.281  66.632  1.00  0.00     0.000 HD 
HETATM   33  O   UNL     1     -10.868   8.273  67.319  1.00  0.00    -0.232 OA 
ENDBRANCH  25  31
ENDBRANCH  22  24
ENDBRANCH  20  22
ENDBRANCH  18  20
ENDBRANCH  17  18
ENDBRANCH  15  17
ENDBRANCH  13  15
ENDBRANCH  11  13
ENDBRANCH   5  11
ENDBRANCH   2   4
TORSDOF 10
ENDMDL
MODEL      377
REMARK 921   NORMALIZED FREE ENERGY PREDICTED BY IDOCK:   -3.66 KCAL/MOL
REMARK 922        TOTAL FREE ENERGY PREDICTED BY IDOCK:   -7.79 KCAL/MOL
REMARK 923 INTER-LIGAND FREE ENERGY PREDICTED BY IDOCK:   -6.96 KCAL/MOL
REMARK 924 INTRA-LIGAND FREE ENERGY PREDICTED BY IDOCK:   -0.83 KCAL/MOL
REMARK 927      BINDING AFFINITY PREDICTED BY RF-SCORE:    0.00 PKD
ROOT
HETATM    1  O   UNL     1      -8.129  11.552  68.346  1.00  0.00    -0.136 OA 
HETATM    2  C   UNL     1      -8.952  10.566  67.773  1.00  0.00    -0.132 C  
HETATM    3  H   UNL     1      -7.231  11.400  68.077  1.00  0.00     0.000 HD 
ENDROOT
BRANCH   2   4
HETATM    4  N   UNL     1     -10.306  10.796  68.180  1.00  0.00    -0.164 N  
HETATM    5  C   UNL     1     -10.841  12.141  68.225  1.00  0.00    -0.223 C  
HETATM    6  O   UNL     1     -10.440   8.902  69.522  1.00  0.00    -0.219 OA 
HETATM    7  C   UNL     1     -11.672  12.041  69.524  1.00  0.00    -0.342 C  
HETATM    8  N   UNL     1     -11.746  10.730  69.880  1.00  0.00    -0.303 NA 
HETATM    9  O   UNL     1     -12.244  12.943  70.118  1.00  0.00    -0.322 OA 
HETATM   10  C   UNL     1     -10.822  10.016  69.200  1.00  0.00    -0.222 C  
BRANCH   5  11
HETATM   11  N   UNL     1     -11.715  12.393  67.106  1.00  0.00    -0.361 N  
HETATM   12  H   UNL     1     -12.140  11.608  66.614  1.00  0.00     0.000 HD 
BRANCH  11  13
HETATM   13  C   UNL     1     -11.979  13.667  66.695  1.00  0.00    -0.415 C  
HETATM   14  O   UNL     1     -12.821  13.949  65.852  1.00  0.00    -0.472 OA 
BRANCH  13  15
HETATM   15  N   UNL     1     -11.255  14.600  67.390  1.00  0.00    -0.329 N  
HETATM   16  H   UNL     1     -11.000  14.427  68.361  1.00  0.00     0.000 HD 
BRANCH  15  17
HETATM   17  C   UNL     1     -10.858  15.819  66.749  1.00  0.00    -0.254 C  
BRANCH  17  18
HETATM   18  N   UNL     1     -10.191  16.717  67.655  1.00  0.00    -0.277 N  
HETATM   19  H   UNL     1     -10.494  17.688  67.734  1.00  0.00     0.000 HD 
BRANCH  18  20
HETATM   20  C   UNL     1      -9.146  16.256  68.412  1.00  0.00    -0.203 C  
HETATM   21  O   UNL     1      -9.248  15.926  69.586  1.00  0.00    -0.236 OA 
BRANCH  20  22
HETATM   22  N   UNL     1      -7.970  16.192  67.702  1.00  0.00    -0.141 N  
HETATM   23  H   UNL     1      -7.827  15.513  66.955  1.00  0.00     0.000 HD 
BRANCH  22  24
HETATM   24  C   UNL     1      -6.954  17.139  68.073  1.00  0.00    -0.171 C  
HETATM   25  N   UNL     1      -7.389  18.497  68.285  1.00  0.00    -0.268 N  
HETATM   26  O   UNL     1      -6.103  15.832  70.018  1.00  0.00    -0.163 OA 
HETATM   27  C   UNL     1      -6.693  19.089  69.320  1.00  0.00    -0.296 C  
HETATM   28  N   UNL     1      -6.022  18.121  69.994  1.00  0.00    -0.211 NA 
HETATM   29  O   UNL     1      -6.705  20.269  69.623  1.00  0.00    -0.248 OA 
HETATM   30  C   UNL     1      -6.321  16.900  69.466  1.00  0.00    -0.233 C  
BRANCH  25  31
HETATM   31  C   UNL     1      -8.206  19.220  67.363  1.00  0.00    -0.282 C  
HETATM   32  H   UNL     1      -9.840  20.250  67.451  1.00  0.00     0.000 HD 
HETATM   33  O   UNL     1      -9.296  19.769  68.064  1.00  0.00    -0.339 OA 
ENDBRANCH  25  31
ENDBRANCH  22  24
ENDBRANCH  20  22
ENDBRANCH  18  20
ENDBRANCH  17  18
ENDBRANCH  15  17
ENDBRANCH  13  15
ENDBRANCH  11  13
ENDBRANCH   5  11
ENDBRANCH   2   4
TORSDOF 10
ENDMDL
MODEL      378
REMARK 921   NORMALIZED FREE ENERGY PREDICTED BY IDOCK:   -3.65 KCAL/MOL
REMARK 922        TOTAL FREE ENERGY PREDICTED BY IDOCK:   -7.78 KCAL/MOL
REMARK 923 INTER-LIGAND FREE ENERGY PREDICTED BY IDOCK:   -6.05 KCAL/MOL
REMARK 924 INTRA-LIGAND FREE ENERGY PREDICTED BY IDOCK:   -1.72 KCAL/MOL
REMARK 927      BINDING AFFINITY PREDICTED BY RF-SCORE:    0.00 PKD
ROOT
HETATM    1  O   UNL     1     -11.605   6.645  72.020  1.00  0.00    -0.273 OA 
HETATM    2  C   UNL     1     -11.808   6.697  70.628  1.00  0.00    -0.383 C  
HETATM    3  H   UNL     1     -12.428   6.432  72.444  1.00  0.00     0.000 HD 
ENDROOT
BRANCH   2   4
HETATM    4  N   UNL     1     -10.567   7.018  69.989  1.00  0.00    -0.223 N  
HETATM    5  C   UNL     1      -9.614   5.974  69.672  1.00  0.00    -0.148 C  
HETATM    6  O   UNL     1     -10.454   9.180  70.835  1.00  0.00    -0.232 OA 
HETATM    7  C   UNL     1      -8.303   6.710  70.033  1.00  0.00    -0.135 C  
HETATM    8  N   UNL     1      -8.593   8.026  70.218  1.00  0.00    -0.131 NA 
HETATM    9  O   UNL     1      -7.173   6.246  70.080  1.00  0.00    -0.075 OA 
HETATM   10  C   UNL     1      -9.927   8.189  70.356  1.00  0.00    -0.188 C  
BRANCH   5  11
HETATM   11  N   UNL     1      -9.627   5.666  68.264  1.00  0.00    -0.117 N  
HETATM   12  H   UNL     1      -9.443   4.712  67.956  1.00  0.00     0.000 HD 
BRANCH  11  13
HETATM   13  C   UNL     1      -9.883   6.634  67.336  1.00  0.00    -0.131 C  
HETATM   14  O   UNL     1     -11.007   6.923  66.949  1.00  0.00    -0.377 OA 
BRANCH  13  15
HETATM   15  N   UNL     1      -8.750   7.299  66.949  1.00  0.00    -0.122 N  
HETATM   16  H   UNL     1      -7.836   6.982  67.274  1.00  0.00     0.000 HD 
BRANCH  15  17
HETATM   17  C   UNL     1      -8.849   8.440  66.088  1.00  0.00    -0.165 C  
BRANCH  17  18
HETATM   18  N   UNL     1      -8.309   9.628  66.696  1.00  0.00    -0.123 N  
HETATM   19  H   UNL     1      -7.321   9.857  66.590  1.00  0.00     0.000 HD 
BRANCH  18  20
HETATM   20  C   UNL     1      -9.135  10.449  67.419  1.00  0.00    -0.135 C  
HETATM   21  O   UNL     1      -8.735  11.280  68.223  1.00  0.00    -0.144 OA 
BRANCH  20  22
HETATM   22  N   UNL     1     -10.464  10.244  67.131  1.00  0.00    -0.241 N  
HETATM   23  H   UNL     1     -10.937   9.370  67.362  1.00  0.00     0.000 HD 
BRANCH  22  24
HETATM   24  C   UNL     1     -11.148  11.332  66.486  1.00  0.00    -0.216 C  
HETATM   25  N   UNL     1     -11.335  12.527  67.271  1.00  0.00    -0.295 N  
HETATM   26  O   UNL     1      -9.644  11.421  64.501  1.00  0.00    -0.231 OA 
HETATM   27  C   UNL     1     -11.214  13.660  66.492  1.00  0.00    -0.310 C  
HETATM   28  N   UNL     1     -10.677  13.304  65.298  1.00  0.00    -0.301 NA 
HETATM   29  O   UNL     1     -11.489  14.801  66.821  1.00  0.00    -0.351 OA 
HETATM   30  C   UNL     1     -10.379  11.973  65.305  1.00  0.00    -0.275 C  
BRANCH  25  31
HETATM   31  C   UNL     1     -11.868  12.528  68.597  1.00  0.00    -0.297 C  
HETATM   32  H   UNL     1     -12.795  11.268  69.733  1.00  0.00     0.000 HD 
HETATM   33  O   UNL     1     -12.440  11.268  68.852  1.00  0.00    -0.433 OA 
ENDBRANCH  25  31
ENDBRANCH  22  24
ENDBRANCH  20  22
ENDBRANCH  18  20
ENDBRANCH  17  18
ENDBRANCH  15  17
ENDBRANCH  13  15
ENDBRANCH  11  13
ENDBRANCH   5  11
ENDBRANCH   2   4
TORSDOF 10
ENDMDL
MODEL      379
REMARK 921   NORMALIZED FREE ENERGY PREDICTED BY IDOCK:   -3.62 KCAL/MOL
REMARK 922        TOTAL FREE ENERGY PREDICTED BY IDOCK:   -7.73 KCAL/MOL
REMARK 923 INTER-LIGAND FREE ENERGY PREDICTED BY IDOCK:   -6.35 KCAL/MOL
REMARK 924 INTRA-LIGAND FREE ENERGY PREDICTED BY IDOCK:   -1.38 KCAL/MOL
REMARK 927      BINDING AFFINITY PREDICTED BY RF-SCORE:    0.00 PKD
ROOT
HETATM    1  O   UNL     1      -8.695  14.333  69.364  1.00  0.00    -0.359 OA 
HETATM    2  C   UNL     1      -8.896  13.952  68.024  1.00  0.00    -0.184 C  
HETATM    3  H   UNL     1      -7.801  14.636  69.467  1.00  0.00     0.000 HD 
ENDROOT
BRANCH   2   4
HETATM    4  N   UNL     1     -10.245  13.495  67.868  1.00  0.00    -0.241 N  
HETATM    5  C   UNL     1     -10.573  12.505  66.862  1.00  0.00    -0.236 C  
HETATM    6  O   UNL     1     -11.217  15.452  68.660  1.00  0.00    -0.272 OA 
HETATM    7  C   UNL     1     -11.920  13.080  66.369  1.00  0.00    -0.402 C  
HETATM    8  N   UNL     1     -12.308  14.053  67.238  1.00  0.00    -0.274 NA 
HETATM    9  O   UNL     1     -12.590  12.706  65.418  1.00  0.00    -0.641 OA 
HETATM   10  C   UNL     1     -11.267  14.415  68.019  1.00  0.00    -0.280 C  
BRANCH   5  11
HETATM   11  N   UNL     1     -10.785  11.208  67.456  1.00  0.00    -0.220 N  
HETATM   12  H   UNL     1     -11.303  11.135  68.331  1.00  0.00     0.000 HD 
BRANCH  11  13
HETATM   13  C   UNL     1     -10.301  10.078  66.864  1.00  0.00    -0.234 C  
HETATM   14  O   UNL     1      -9.834  10.050  65.733  1.00  0.00    -0.240 OA 
BRANCH  13  15
HETATM   15  N   UNL     1     -10.322   8.997  67.706  1.00  0.00    -0.233 N  
HETATM   16  H   UNL     1     -11.205   8.531  67.916  1.00  0.00     0.000 HD 
BRANCH  15  17
HETATM   17  C   UNL     1      -9.104   8.523  68.292  1.00  0.00    -0.138 C  
BRANCH  17  18
HETATM   18  N   UNL     1      -8.732   9.280  69.459  1.00  0.00    -0.137 N  
HETATM   19  H   UNL     1      -7.800   9.689  69.531  1.00  0.00     0.000 HD 
BRANCH  18  20
HETATM   20  C   UNL     1      -9.639   9.446  70.471  1.00  0.00    -0.271 C  
HETATM   21  O   UNL     1     -10.780   9.856  70.303  1.00  0.00    -0.268 OA 
BRANCH  20  22
HETATM   22  N   UNL     1      -9.131   9.089  71.698  1.00  0.00    -0.189 N  
HETATM   23  H   UNL     1      -8.804   9.785  72.369  1.00  0.00     0.000 HD 
BRANCH  22  24
HETATM   24  C   UNL     1      -9.086   7.680  71.981  1.00  0.00    -0.131 C  
HETATM   25  N   UNL     1     -10.211   6.900  71.528  1.00  0.00    -0.196 N  
HETATM   26  O   UNL     1      -6.857   7.293  70.937  1.00  0.00    -0.051 OA 
HETATM   27  C   UNL     1      -9.811   5.653  71.092  1.00  0.00    -0.177 C  
HETATM   28  N   UNL     1      -8.460   5.658  70.962  1.00  0.00    -0.121 NA 
HETATM   29  O   UNL     1     -10.534   4.711  70.819  1.00  0.00    -0.121 OA 
HETATM   30  C   UNL     1      -7.975   6.903  71.234  1.00  0.00    -0.108 C  
BRANCH  25  31
HETATM   31  C   UNL     1     -11.573   7.254  71.777  1.00  0.00    -0.275 C  
HETATM   32  H   UNL     1     -12.547   8.172  73.172  1.00  0.00     0.000 HD 
HETATM   33  O   UNL     1     -11.641   7.937  73.006  1.00  0.00    -0.351 OA 
ENDBRANCH  25  31
ENDBRANCH  22  24
ENDBRANCH  20  22
ENDBRANCH  18  20
ENDBRANCH  17  18
ENDBRANCH  15  17
ENDBRANCH  13  15
ENDBRANCH  11  13
ENDBRANCH   5  11
ENDBRANCH   2   4
TORSDOF 10
ENDMDL
MODEL      380
REMARK 921   NORMALIZED FREE ENERGY PREDICTED BY IDOCK:   -3.62 KCAL/MOL
REMARK 922        TOTAL FREE ENERGY PREDICTED BY IDOCK:   -7.73 KCAL/MOL
REMARK 923 INTER-LIGAND FREE ENERGY PREDICTED BY IDOCK:   -6.29 KCAL/MOL
REMARK 924 INTRA-LIGAND FREE ENERGY PREDICTED BY IDOCK:   -1.44 KCAL/MOL
REMARK 927      BINDING AFFINITY PREDICTED BY RF-SCORE:    0.00 PKD
ROOT
HETATM    1  O   UNL     1     -10.318  11.648  68.842  1.00  0.00    -0.275 OA 
HETATM    2  C   UNL     1     -11.529  12.176  69.329  1.00  0.00    -0.302 C  
HETATM    3  H   UNL     1     -10.129  12.039  67.997  1.00  0.00     0.000 HD 
ENDROOT
BRANCH   2   4
HETATM    4  N   UNL     1     -11.815  11.586  70.602  1.00  0.00    -0.279 N  
HETATM    5  C   UNL     1     -11.800  10.146  70.765  1.00  0.00    -0.351 C  
HETATM    6  O   UNL     1     -13.159  13.333  71.339  1.00  0.00    -0.337 OA 
HETATM    7  C   UNL     1     -13.024   9.983  71.695  1.00  0.00    -0.449 C  
HETATM    8  N   UNL     1     -13.384  11.216  72.141  1.00  0.00    -0.354 NA 
HETATM    9  O   UNL     1     -13.557   8.944  72.054  1.00  0.00    -0.382 OA 
HETATM   10  C   UNL     1     -12.794  12.169  71.386  1.00  0.00    -0.276 C  
BRANCH   5  11
HETATM   11  N   UNL     1     -10.607   9.711  71.448  1.00  0.00    -0.236 N  
HETATM   12  H   UNL     1     -10.490   9.921  72.439  1.00  0.00     0.000 HD 
BRANCH  11  13
HETATM   13  C   UNL     1      -9.632   9.022  70.786  1.00  0.00    -0.249 C  
HETATM   14  O   UNL     1      -9.588   8.906  69.569  1.00  0.00    -0.166 OA 
BRANCH  13  15
HETATM   15  N   UNL     1      -8.665   8.545  71.632  1.00  0.00    -0.182 N  
HETATM   16  H   UNL     1      -7.685   8.573  71.354  1.00  0.00     0.000 HD 
BRANCH  15  17
HETATM   17  C   UNL     1      -9.034   8.005  72.907  1.00  0.00    -0.239 C  
BRANCH  17  18
HETATM   18  N   UNL     1      -8.366   6.761  73.184  1.00  0.00    -0.114 N  
HETATM   19  H   UNL     1      -8.157   6.492  74.146  1.00  0.00     0.000 HD 
BRANCH  18  20
HETATM   20  C   UNL     1      -8.014   5.940  72.146  1.00  0.00    -0.107 C  
HETATM   21  O   UNL     1      -7.174   6.228  71.304  1.00  0.00    -0.075 OA 
BRANCH  20  22
HETATM   22  N   UNL     1      -8.700   4.748  72.160  1.00  0.00    -0.122 N  
HETATM   23  H   UNL     1      -8.613   4.086  72.931  1.00  0.00     0.000 HD 
BRANCH  22  24
HETATM   24  C   UNL     1      -9.547   4.490  71.028  1.00  0.00    -0.178 C  
HETATM   25  N   UNL     1     -10.508   5.515  70.699  1.00  0.00    -0.266 N  
HETATM   26  O   UNL     1      -7.688   4.030  69.434  1.00  0.00    -0.053 OA 
HETATM   27  C   UNL     1     -10.666   5.630  69.333  1.00  0.00    -0.295 C  
HETATM   28  N   UNL     1      -9.665   4.946  68.726  1.00  0.00    -0.156 NA 
HETATM   29  O   UNL     1     -11.523   6.274  68.752  1.00  0.00    -0.294 OA 
HETATM   30  C   UNL     1      -8.814   4.443  69.666  1.00  0.00    -0.088 C  
BRANCH  25  31
HETATM   31  C   UNL     1     -11.388   6.110  71.654  1.00  0.00    -0.284 C  
HETATM   32  H   UNL     1     -12.265   5.556  73.286  1.00  0.00     0.000 HD 
HETATM   33  O   UNL     1     -11.679   5.161  72.651  1.00  0.00    -0.181 OA 
ENDBRANCH  25  31
ENDBRANCH  22  24
ENDBRANCH  20  22
ENDBRANCH  18  20
ENDBRANCH  17  18
ENDBRANCH  15  17
ENDBRANCH  13  15
ENDBRANCH  11  13
ENDBRANCH   5  11
ENDBRANCH   2   4
TORSDOF 10
ENDMDL
MODEL      381
REMARK 921   NORMALIZED FREE ENERGY PREDICTED BY IDOCK:   -3.60 KCAL/MOL
REMARK 922        TOTAL FREE ENERGY PREDICTED BY IDOCK:   -7.70 KCAL/MOL
REMARK 923 INTER-LIGAND FREE ENERGY PREDICTED BY IDOCK:   -7.21 KCAL/MOL
REMARK 924 INTRA-LIGAND FREE ENERGY PREDICTED BY IDOCK:   -0.49 KCAL/MOL
REMARK 927      BINDING AFFINITY PREDICTED BY RF-SCORE:    0.00 PKD
ROOT
HETATM    1  O   UNL     1      -8.942  11.842  65.575  1.00  0.00    -0.420 OA 
HETATM    2  C   UNL     1      -9.667  12.678  66.444  1.00  0.00    -0.258 C  
HETATM    3  H   UNL     1      -8.409  12.381  65.003  1.00  0.00     0.000 HD 
ENDROOT
BRANCH   2   4
HETATM    4  N   UNL     1     -10.473  11.867  67.307  1.00  0.00    -0.218 N  
HETATM    5  C   UNL     1     -10.553  12.157  68.724  1.00  0.00    -0.201 C  
HETATM    6  O   UNL     1     -10.298   9.949  66.004  1.00  0.00    -0.224 OA 
HETATM    7  C   UNL     1     -10.529  10.715  69.280  1.00  0.00    -0.227 C  
HETATM    8  N   UNL     1     -10.708   9.857  68.240  1.00  0.00    -0.229 NA 
HETATM    9  O   UNL     1     -10.444  10.364  70.448  1.00  0.00    -0.183 OA 
HETATM   10  C   UNL     1     -10.513  10.504  67.070  1.00  0.00    -0.249 C  
BRANCH   5  11
HETATM   11  N   UNL     1     -11.806  12.787  69.057  1.00  0.00    -0.305 N  
HETATM   12  H   UNL     1     -12.653  12.518  68.557  1.00  0.00     0.000 HD 
BRANCH  11  13
HETATM   13  C   UNL     1     -11.875  13.739  70.033  1.00  0.00    -0.307 C  
HETATM   14  O   UNL     1     -12.445  13.575  71.103  1.00  0.00    -0.354 OA 
BRANCH  13  15
HETATM   15  N   UNL     1     -11.167  14.867  69.712  1.00  0.00    -0.269 N  
HETATM   16  H   UNL     1     -10.286  15.068  70.184  1.00  0.00     0.000 HD 
BRANCH  15  17
HETATM   17  C   UNL     1     -11.666  15.764  68.712  1.00  0.00    -0.378 C  
BRANCH  17  18
HETATM   18  N   UNL     1     -10.976  17.027  68.722  1.00  0.00    -0.247 N  
HETATM   19  H   UNL     1     -11.466  17.884  68.462  1.00  0.00     0.000 HD 
BRANCH  18  20
HETATM   20  C   UNL     1      -9.655  17.070  69.085  1.00  0.00    -0.135 C  
HETATM   21  O   UNL     1      -8.927  16.088  69.125  1.00  0.00    -0.237 OA 
BRANCH  20  22
HETATM   22  N   UNL     1      -9.234  18.344  69.388  1.00  0.00     0.221 N  
HETATM   23  H   UNL     1      -9.247  18.703  70.342  1.00  0.00     0.000 HD 
BRANCH  22  24
HETATM   24  C   UNL     1      -8.774  19.140  68.282  1.00  0.00    -0.338 C  
HETATM   25  N   UNL     1      -7.694  18.589  67.501  1.00  0.00    -0.228 N  
HETATM   26  O   UNL     1     -11.015  19.398  67.222  1.00  0.00    -0.491 OA 
HETATM   27  C   UNL     1      -7.843  18.890  66.162  1.00  0.00    -0.250 C  
HETATM   28  N   UNL     1      -9.099  19.363  65.966  1.00  0.00    -0.438 NA 
HETATM   29  O   UNL     1      -7.016  18.720  65.283  1.00  0.00    -0.509 OA 
HETATM   30  C   UNL     1      -9.799  19.311  67.135  1.00  0.00    -0.339 C  
BRANCH  25  31
HETATM   31  C   UNL     1      -6.491  18.069  68.069  1.00  0.00    -0.188 C  
HETATM   32  H   UNL     1      -5.202  18.649  69.388  1.00  0.00     0.000 HD 
HETATM   33  O   UNL     1      -6.002  18.994  69.010  1.00  0.00    -0.211 OA 
ENDBRANCH  25  31
ENDBRANCH  22  24
ENDBRANCH  20  22
ENDBRANCH  18  20
ENDBRANCH  17  18
ENDBRANCH  15  17
ENDBRANCH  13  15
ENDBRANCH  11  13
ENDBRANCH   5  11
ENDBRANCH   2   4
TORSDOF 10
ENDMDL
MODEL      382
REMARK 921   NORMALIZED FREE ENERGY PREDICTED BY IDOCK:   -3.60 KCAL/MOL
REMARK 922        TOTAL FREE ENERGY PREDICTED BY IDOCK:   -7.70 KCAL/MOL
REMARK 923 INTER-LIGAND FREE ENERGY PREDICTED BY IDOCK:   -6.54 KCAL/MOL
REMARK 924 INTRA-LIGAND FREE ENERGY PREDICTED BY IDOCK:   -1.15 KCAL/MOL
REMARK 927      BINDING AFFINITY PREDICTED BY RF-SCORE:    0.00 PKD
ROOT
HETATM    1  O   UNL     1     -11.523   5.692  73.067  1.00  0.00    -0.442 OA 
HETATM    2  C   UNL     1     -10.214   5.222  73.278  1.00  0.00    -0.189 C  
HETATM    3  H   UNL     1     -12.119   5.206  73.625  1.00  0.00     0.000 HD 
ENDROOT
BRANCH   2   4
HETATM    4  N   UNL     1      -9.315   5.955  72.437  1.00  0.00    -0.144 N  
HETATM    5  C   UNL     1      -9.003   5.479  71.105  1.00  0.00    -0.141 C  
HETATM    6  O   UNL     1      -8.120   6.901  74.193  1.00  0.00    -0.113 OA 
HETATM    7  C   UNL     1      -7.493   5.807  71.065  1.00  0.00    -0.090 C  
HETATM    8  N   UNL     1      -7.203   6.599  72.133  1.00  0.00    -0.080 NA 
HETATM    9  O   UNL     1      -6.682   5.496  70.206  1.00  0.00    -0.044 OA 
HETATM   10  C   UNL     1      -8.217   6.557  73.026  1.00  0.00    -0.111 C  
BRANCH   5  11
HETATM   11  N   UNL     1      -9.695   6.249  70.101  1.00  0.00    -0.162 N  
HETATM   12  H   UNL     1      -9.986   7.203  70.311  1.00  0.00     0.000 HD 
BRANCH  11  13
HETATM   13  C   UNL     1      -9.967   5.718  68.874  1.00  0.00    -0.161 C  
HETATM   14  O   UNL     1      -9.631   4.592  68.531  1.00  0.00    -0.145 OA 
BRANCH  13  15
HETATM   15  N   UNL     1     -10.728   6.554  68.100  1.00  0.00    -0.253 N  
HETATM   16  H   UNL     1     -11.680   6.290  67.847  1.00  0.00     0.000 HD 
BRANCH  15  17
HETATM   17  C   UNL     1     -10.184   7.799  67.645  1.00  0.00    -0.219 C  
BRANCH  17  18
HETATM   18  N   UNL     1     -11.120   8.884  67.781  1.00  0.00    -0.445 N  
HETATM   19  H   UNL     1     -12.026   8.843  67.313  1.00  0.00     0.000 HD 
BRANCH  18  20
HETATM   20  C   UNL     1     -10.786   9.971  68.545  1.00  0.00    -0.231 C  
HETATM   21  O   UNL     1      -9.641  10.239  68.884  1.00  0.00    -0.171 OA 
BRANCH  20  22
HETATM   22  N   UNL     1     -11.879  10.735  68.880  1.00  0.00    -0.480 N  
HETATM   23  H   UNL     1     -12.785  10.605  68.431  1.00  0.00     0.000 HD 
BRANCH  22  24
HETATM   24  C   UNL     1     -11.671  11.728  69.898  1.00  0.00    -0.323 C  
HETATM   25  N   UNL     1     -11.932  13.096  69.522  1.00  0.00    -0.309 N  
HETATM   26  O   UNL     1     -13.141  10.647  71.595  1.00  0.00    -0.425 OA 
HETATM   27  C   UNL     1     -12.490  13.803  70.568  1.00  0.00    -0.339 C  
HETATM   28  N   UNL     1     -12.878  12.922  71.523  1.00  0.00    -0.336 NA 
HETATM   29  O   UNL     1     -12.659  15.009  70.622  1.00  0.00    -0.329 OA 
HETATM   30  C   UNL     1     -12.651  11.647  71.094  1.00  0.00    -0.335 C  
BRANCH  25  31
HETATM   31  C   UNL     1     -11.410  13.706  68.341  1.00  0.00    -0.295 C  
HETATM   32  H   UNL     1      -9.656  14.061  67.607  1.00  0.00     0.000 HD 
HETATM   33  O   UNL     1     -10.004  13.655  68.393  1.00  0.00    -0.231 OA 
ENDBRANCH  25  31
ENDBRANCH  22  24
ENDBRANCH  20  22
ENDBRANCH  18  20
ENDBRANCH  17  18
ENDBRANCH  15  17
ENDBRANCH  13  15
ENDBRANCH  11  13
ENDBRANCH   5  11
ENDBRANCH   2   4
TORSDOF 10
ENDMDL
MODEL      383
REMARK 921   NORMALIZED FREE ENERGY PREDICTED BY IDOCK:   -3.59 KCAL/MOL
REMARK 922        TOTAL FREE ENERGY PREDICTED BY IDOCK:   -7.68 KCAL/MOL
REMARK 923 INTER-LIGAND FREE ENERGY PREDICTED BY IDOCK:   -6.47 KCAL/MOL
REMARK 924 INTRA-LIGAND FREE ENERGY PREDICTED BY IDOCK:   -1.21 KCAL/MOL
REMARK 927      BINDING AFFINITY PREDICTED BY RF-SCORE:    0.00 PKD
ROOT
HETATM    1  O   UNL     1     -11.346   6.973  71.730  1.00  0.00    -0.243 OA 
HETATM    2  C   UNL     1     -10.320   6.743  70.795  1.00  0.00    -0.204 C  
HETATM    3  H   UNL     1     -11.727   6.140  71.981  1.00  0.00     0.000 HD 
ENDROOT
BRANCH   2   4
HETATM    4  N   UNL     1      -9.746   7.999  70.416  1.00  0.00    -0.178 N  
HETATM    5  C   UNL     1      -8.966   8.113  69.200  1.00  0.00    -0.144 C  
HETATM    6  O   UNL     1      -9.577   8.811  72.587  1.00  0.00    -0.224 OA 
HETATM    7  C   UNL     1      -7.846   9.052  69.704  1.00  0.00    -0.088 C  
HETATM    8  N   UNL     1      -8.218   9.543  70.917  1.00  0.00    -0.297 NA 
HETATM    9  O   UNL     1      -6.826   9.382  69.117  1.00  0.00    -0.049 OA 
HETATM   10  C   UNL     1      -9.241   8.814  71.414  1.00  0.00    -0.255 C  
BRANCH   5  11
HETATM   11  N   UNL     1      -9.717   8.767  68.158  1.00  0.00    -0.153 N  
HETATM   12  H   UNL     1     -10.517   9.349  68.404  1.00  0.00     0.000 HD 
BRANCH  11  13
HETATM   13  C   UNL     1      -9.373   8.617  66.845  1.00  0.00    -0.170 C  
HETATM   14  O   UNL     1      -9.171   7.533  66.315  1.00  0.00    -0.174 OA 
BRANCH  13  15
HETATM   15  N   UNL     1      -9.357   9.810  66.171  1.00  0.00    -0.177 N  
HETATM   16  H   UNL     1     -10.211  10.161  65.738  1.00  0.00     0.000 HD 
BRANCH  15  17
HETATM   17  C   UNL     1      -8.141  10.561  66.074  1.00  0.00    -0.148 C  
BRANCH  17  18
HETATM   18  N   UNL     1      -8.020  11.537  67.125  1.00  0.00    -0.152 N  
HETATM   19  H   UNL     1      -7.232  11.501  67.772  1.00  0.00     0.000 HD 
BRANCH  18  20
HETATM   20  C   UNL     1      -8.972  12.514  67.249  1.00  0.00    -0.192 C  
HETATM   21  O   UNL     1      -9.887  12.475  68.062  1.00  0.00    -0.201 OA 
BRANCH  20  22
HETATM   22  N   UNL     1      -8.780  13.552  66.367  1.00  0.00    -0.424 N  
HETATM   23  H   UNL     1      -7.849  13.828  66.056  1.00  0.00     0.000 HD 
BRANCH  22  24
HETATM   24  C   UNL     1      -9.965  14.224  65.910  1.00  0.00    -0.319 C  
HETATM   25  N   UNL     1     -11.019  13.385  65.395  1.00  0.00    -0.282 N  
HETATM   26  O   UNL     1     -10.359  15.487  68.022  1.00  0.00    -0.240 OA 
HETATM   27  C   UNL     1     -12.262  13.880  65.734  1.00  0.00    -0.460 C  
HETATM   28  N   UNL     1     -12.099  14.837  66.681  1.00  0.00    -0.205 NA 
HETATM   29  O   UNL     1     -13.338  13.501  65.304  1.00  0.00    -0.618 OA 
HETATM   30  C   UNL     1     -10.781  14.930  67.020  1.00  0.00    -0.307 C  
BRANCH  25  31
HETATM   31  C   UNL     1     -10.812  12.361  64.421  1.00  0.00    -0.337 C  
HETATM   32  H   UNL     1      -9.738  12.142  62.828  1.00  0.00     0.000 HD 
HETATM   33  O   UNL     1      -9.877  12.822  63.476  1.00  0.00    -0.230 OA 
ENDBRANCH  25  31
ENDBRANCH  22  24
ENDBRANCH  20  22
ENDBRANCH  18  20
ENDBRANCH  17  18
ENDBRANCH  15  17
ENDBRANCH  13  15
ENDBRANCH  11  13
ENDBRANCH   5  11
ENDBRANCH   2   4
TORSDOF 10
ENDMDL
MODEL      384
REMARK 921   NORMALIZED FREE ENERGY PREDICTED BY IDOCK:   -3.59 KCAL/MOL
REMARK 922        TOTAL FREE ENERGY PREDICTED BY IDOCK:   -7.68 KCAL/MOL
REMARK 923 INTER-LIGAND FREE ENERGY PREDICTED BY IDOCK:   -5.67 KCAL/MOL
REMARK 924 INTRA-LIGAND FREE ENERGY PREDICTED BY IDOCK:   -2.01 KCAL/MOL
REMARK 927      BINDING AFFINITY PREDICTED BY RF-SCORE:    0.00 PKD
ROOT
HETATM    1  O   UNL     1     -10.200   5.186  73.885  1.00  0.00    -0.183 OA 
HETATM    2  C   UNL     1      -8.894   4.662  73.903  1.00  0.00    -0.104 C  
HETATM    3  H   UNL     1     -10.443   5.439  74.768  1.00  0.00     0.000 HD 
ENDROOT
BRANCH   2   4
HETATM    4  N   UNL     1      -8.528   4.279  72.572  1.00  0.00    -0.103 N  
HETATM    5  C   UNL     1      -9.539   4.137  71.544  1.00  0.00    -0.168 C  
HETATM    6  O   UNL     1      -6.625   3.108  73.212  1.00  0.00    -0.023 OA 
HETATM    7  C   UNL     1      -8.999   2.877  70.829  1.00  0.00    -0.095 C  
HETATM    8  N   UNL     1      -7.741   2.637  71.287  1.00  0.00    -0.043 NA 
HETATM    9  O   UNL     1      -9.541   2.227  69.948  1.00  0.00    -0.088 OA 
HETATM   10  C   UNL     1      -7.519   3.346  72.416  1.00  0.00    -0.057 C  
BRANCH   5  11
HETATM   11  N   UNL     1      -9.522   5.258  70.637  1.00  0.00    -0.161 N  
HETATM   12  H   UNL     1      -8.662   5.489  70.140  1.00  0.00     0.000 HD 
BRANCH  11  13
HETATM   13  C   UNL     1     -10.641   6.013  70.434  1.00  0.00    -0.268 C  
HETATM   14  O   UNL     1     -11.325   5.955  69.421  1.00  0.00    -0.346 OA 
BRANCH  13  15
HETATM   15  N   UNL     1     -10.956   6.782  71.523  1.00  0.00    -0.234 N  
HETATM   16  H   UNL     1     -10.224   7.073  72.171  1.00  0.00     0.000 HD 
BRANCH  15  17
HETATM   17  C   UNL     1     -12.314   7.176  71.751  1.00  0.00    -0.350 C  
BRANCH  17  18
HETATM   18  N   UNL     1     -12.779   8.119  70.768  1.00  0.00    -0.465 N  
HETATM   19  H   UNL     1     -13.508   7.854  70.106  1.00  0.00     0.000 HD 
BRANCH  18  20
HETATM   20  C   UNL     1     -12.235   9.376  70.730  1.00  0.00    -0.162 C  
HETATM   21  O   UNL     1     -12.174  10.121  71.699  1.00  0.00    -0.382 OA 
BRANCH  20  22
HETATM   22  N   UNL     1     -11.752   9.702  69.485  1.00  0.00    -0.438 N  
HETATM   23  H   UNL     1     -12.027   9.188  68.648  1.00  0.00     0.000 HD 
BRANCH  22  24
HETATM   24  C   UNL     1     -10.837  10.810  69.430  1.00  0.00    -0.244 C  
HETATM   25  N   UNL     1      -9.459  10.490  69.147  1.00  0.00    -0.201 N  
HETATM   26  O   UNL     1     -12.137  12.115  67.751  1.00  0.00    -0.508 OA 
HETATM   27  C   UNL     1      -8.874  11.459  68.356  1.00  0.00    -0.167 C  
HETATM   28  N   UNL     1      -9.853  12.257  67.861  1.00  0.00    -0.195 NA 
HETATM   29  O   UNL     1      -7.689  11.566  68.095  1.00  0.00    -0.106 OA 
HETATM   30  C   UNL     1     -11.072  11.788  68.253  1.00  0.00    -0.240 C  
BRANCH  25  31
HETATM   31  C   UNL     1      -8.724   9.476  69.834  1.00  0.00    -0.210 C  
HETATM   32  H   UNL     1      -8.162   7.663  69.467  1.00  0.00     0.000 HD 
HETATM   33  O   UNL     1      -8.651   8.338  69.010  1.00  0.00    -0.133 OA 
ENDBRANCH  25  31
ENDBRANCH  22  24
ENDBRANCH  20  22
ENDBRANCH  18  20
ENDBRANCH  17  18
ENDBRANCH  15  17
ENDBRANCH  13  15
ENDBRANCH  11  13
ENDBRANCH   5  11
ENDBRANCH   2   4
TORSDOF 10
ENDMDL
MODEL      385
REMARK 921   NORMALIZED FREE ENERGY PREDICTED BY IDOCK:   -3.56 KCAL/MOL
REMARK 922        TOTAL FREE ENERGY PREDICTED BY IDOCK:   -7.64 KCAL/MOL
REMARK 923 INTER-LIGAND FREE ENERGY PREDICTED BY IDOCK:   -6.43 KCAL/MOL
REMARK 924 INTRA-LIGAND FREE ENERGY PREDICTED BY IDOCK:   -1.21 KCAL/MOL
REMARK 927      BINDING AFFINITY PREDICTED BY RF-SCORE:    0.00 PKD
ROOT
HETATM    1  O   UNL     1      -8.863   8.542  66.590  1.00  0.00    -0.125 OA 
HETATM    2  C   UNL     1     -10.113   9.009  66.143  1.00  0.00    -0.172 C  
HETATM    3  H   UNL     1      -8.905   7.599  66.695  1.00  0.00     0.000 HD 
ENDROOT
BRANCH   2   4
HETATM    4  N   UNL     1     -10.049  10.432  65.986  1.00  0.00    -0.240 N  
HETATM    5  C   UNL     1     -11.162  11.266  66.393  1.00  0.00    -0.121 C  
HETATM    6  O   UNL     1      -8.581  10.372  64.185  1.00  0.00    -0.177 OA 
HETATM    7  C   UNL     1     -11.155  12.283  65.230  1.00  0.00    -0.316 C  
HETATM    8  N   UNL     1     -10.003  12.114  64.526  1.00  0.00    -0.240 NA 
HETATM    9  O   UNL     1     -11.979  13.154  64.993  1.00  0.00    -0.343 OA 
HETATM   10  C   UNL     1      -9.431  10.936  64.855  1.00  0.00    -0.235 C  
BRANCH   5  11
HETATM   11  N   UNL     1     -10.879  11.942  67.635  1.00  0.00    -0.217 N  
HETATM   12  H   UNL     1     -10.706  12.947  67.631  1.00  0.00     0.000 HD 
BRANCH  11  13
HETATM   13  C   UNL     1     -10.840  11.256  68.814  1.00  0.00    -0.208 C  
HETATM   14  O   UNL     1      -9.857  11.210  69.541  1.00  0.00     0.024 OA 
BRANCH  13  15
HETATM   15  N   UNL     1     -12.048  10.694  69.131  1.00  0.00    -0.536 N  
HETATM   16  H   UNL     1     -12.559  10.156  68.432  1.00  0.00     0.000 HD 
BRANCH  15  17
HETATM   17  C   UNL     1     -12.594  10.865  70.445  1.00  0.00    -0.294 C  
BRANCH  17  18
HETATM   18  N   UNL     1     -13.085   9.628  70.994  1.00  0.00    -0.533 N  
HETATM   19  H   UNL     1     -13.834   9.119  70.525  1.00  0.00     0.000 HD 
BRANCH  18  20
HETATM   20  C   UNL     1     -12.538   9.141  72.152  1.00  0.00    -0.381 C  
HETATM   21  O   UNL     1     -13.164   8.997  73.193  1.00  0.00    -0.200 OA 
BRANCH  20  22
HETATM   22  N   UNL     1     -11.209   8.818  72.011  1.00  0.00    -0.364 N  
HETATM   23  H   UNL     1     -10.482   9.532  71.980  1.00  0.00     0.000 HD 
BRANCH  22  24
HETATM   24  C   UNL     1     -10.904   7.417  71.910  1.00  0.00    -0.229 C  
HETATM   25  N   UNL     1     -10.202   6.997  70.722  1.00  0.00    -0.195 N  
HETATM   26  O   UNL     1      -9.741   7.263  74.110  1.00  0.00    -0.268 OA 
HETATM   27  C   UNL     1      -9.295   5.996  71.005  1.00  0.00    -0.161 C  
HETATM   28  N   UNL     1      -9.146   5.920  72.352  1.00  0.00    -0.141 NA 
HETATM   29  O   UNL     1      -8.684   5.318  70.197  1.00  0.00    -0.116 OA 
HETATM   30  C   UNL     1      -9.883   6.898  72.952  1.00  0.00    -0.172 C  
BRANCH  25  31
HETATM   31  C   UNL     1     -10.603   7.354  69.398  1.00  0.00    -0.226 C  
HETATM   32  H   UNL     1     -11.051   6.412  67.770  1.00  0.00     0.000 HD 
HETATM   33  O   UNL     1     -10.784   6.175  68.651  1.00  0.00    -0.244 OA 
ENDBRANCH  25  31
ENDBRANCH  22  24
ENDBRANCH  20  22
ENDBRANCH  18  20
ENDBRANCH  17  18
ENDBRANCH  15  17
ENDBRANCH  13  15
ENDBRANCH  11  13
ENDBRANCH   5  11
ENDBRANCH   2   4
TORSDOF 10
ENDMDL
MODEL      386
REMARK 921   NORMALIZED FREE ENERGY PREDICTED BY IDOCK:   -3.56 KCAL/MOL
REMARK 922        TOTAL FREE ENERGY PREDICTED BY IDOCK:   -7.63 KCAL/MOL
REMARK 923 INTER-LIGAND FREE ENERGY PREDICTED BY IDOCK:   -6.51 KCAL/MOL
REMARK 924 INTRA-LIGAND FREE ENERGY PREDICTED BY IDOCK:   -1.12 KCAL/MOL
REMARK 927      BINDING AFFINITY PREDICTED BY RF-SCORE:    0.00 PKD
ROOT
HETATM    1  O   UNL     1      -9.545   8.897  65.341  1.00  0.00    -0.454 OA 
HETATM    2  C   UNL     1      -9.059  10.059  64.715  1.00  0.00    -0.224 C  
HETATM    3  H   UNL     1      -9.199   8.136  64.890  1.00  0.00     0.000 HD 
ENDROOT
BRANCH   2   4
HETATM    4  N   UNL     1      -9.581  11.207  65.394  1.00  0.00    -0.220 N  
HETATM    5  C   UNL     1      -9.999  11.114  66.778  1.00  0.00    -0.208 C  
HETATM    6  O   UNL     1     -10.394  12.230  63.472  1.00  0.00    -0.429 OA 
HETATM    7  C   UNL     1     -11.269  11.992  66.719  1.00  0.00    -0.322 C  
HETATM    8  N   UNL     1     -11.278  12.646  65.526  1.00  0.00    -0.292 NA 
HETATM    9  O   UNL     1     -12.105  12.159  67.595  1.00  0.00    -0.522 OA 
HETATM   10  C   UNL     1     -10.390  12.075  64.682  1.00  0.00    -0.287 C  
BRANCH   5  11
HETATM   11  N   UNL     1      -9.029  11.719  67.658  1.00  0.00    -0.164 N  
HETATM   12  H   UNL     1      -8.957  12.735  67.704  1.00  0.00     0.000 HD 
BRANCH  11  13
HETATM   13  C   UNL     1      -8.206  10.950  68.428  1.00  0.00    -0.133 C  
HETATM   14  O   UNL     1      -7.079  10.612  68.091  1.00  0.00    -0.079 OA 
BRANCH  13  15
HETATM   15  N   UNL     1      -8.751  10.668  69.653  1.00  0.00    -0.389 N  
HETATM   16  H   UNL     1      -8.713  11.361  70.400  1.00  0.00     0.000 HD 
BRANCH  15  17
HETATM   17  C   UNL     1      -9.373   9.398  69.884  1.00  0.00    -0.214 C  
BRANCH  17  18
HETATM   18  N   UNL     1      -9.397   9.050  71.280  1.00  0.00    -0.257 N  
HETATM   19  H   UNL     1      -8.525   8.926  71.795  1.00  0.00     0.000 HD 
BRANCH  18  20
HETATM   20  C   UNL     1     -10.601   8.886  71.913  1.00  0.00    -0.349 C  
HETATM   21  O   UNL     1     -11.382   9.801  72.140  1.00  0.00     0.170 OA 
BRANCH  20  22
HETATM   22  N   UNL     1     -10.843   7.576  72.254  1.00  0.00    -0.241 N  
HETATM   23  H   UNL     1     -11.577   7.317  72.913  1.00  0.00     0.000 HD 
BRANCH  22  24
HETATM   24  C   UNL     1     -10.002   6.592  71.628  1.00  0.00    -0.173 C  
HETATM   25  N   UNL     1      -9.732   5.400  72.393  1.00  0.00    -0.154 N  
HETATM   26  O   UNL     1     -11.357   6.404  69.545  1.00  0.00    -0.390 OA 
HETATM   27  C   UNL     1      -9.677   4.286  71.578  1.00  0.00    -0.174 C  
HETATM   28  N   UNL     1     -10.172   4.621  70.360  1.00  0.00    -0.198 NA 
HETATM   29  O   UNL     1      -9.297   3.172  71.895  1.00  0.00    -0.109 OA 
HETATM   30  C   UNL     1     -10.617   5.910  70.382  1.00  0.00    -0.286 C  
BRANCH  25  31
HETATM   31  C   UNL     1      -9.288   5.413  73.750  1.00  0.00    -0.136 C  
HETATM   32  H   UNL     1     -10.021   5.950  75.457  1.00  0.00     0.000 HD 
HETATM   33  O   UNL     1     -10.316   5.941  74.554  1.00  0.00    -0.276 OA 
ENDBRANCH  25  31
ENDBRANCH  22  24
ENDBRANCH  20  22
ENDBRANCH  18  20
ENDBRANCH  17  18
ENDBRANCH  15  17
ENDBRANCH  13  15
ENDBRANCH  11  13
ENDBRANCH   5  11
ENDBRANCH   2   4
TORSDOF 10
ENDMDL
MODEL      387
REMARK 921   NORMALIZED FREE ENERGY PREDICTED BY IDOCK:   -3.56 KCAL/MOL
REMARK 922        TOTAL FREE ENERGY PREDICTED BY IDOCK:   -7.63 KCAL/MOL
REMARK 923 INTER-LIGAND FREE ENERGY PREDICTED BY IDOCK:   -6.13 KCAL/MOL
REMARK 924 INTRA-LIGAND FREE ENERGY PREDICTED BY IDOCK:   -1.50 KCAL/MOL
REMARK 927      BINDING AFFINITY PREDICTED BY RF-SCORE:    0.00 PKD
ROOT
HETATM    1  O   UNL     1     -11.630  11.295  63.379  1.00  0.00    -0.729 OA 
HETATM    2  C   UNL     1     -12.182  12.587  63.437  1.00  0.00    -0.517 C  
HETATM    3  H   UNL     1     -11.992  10.837  62.630  1.00  0.00     0.000 HD 
ENDROOT
BRANCH   2   4
HETATM    4  N   UNL     1     -11.636  13.277  64.568  1.00  0.00    -0.352 N  
HETATM    5  C   UNL     1     -11.567  12.627  65.861  1.00  0.00    -0.396 C  
HETATM    6  O   UNL     1     -12.183  15.400  63.795  1.00  0.00    -0.543 OA 
HETATM    7  C   UNL     1     -11.956  13.819  66.765  1.00  0.00    -0.426 C  
HETATM    8  N   UNL     1     -11.926  14.951  66.010  1.00  0.00    -0.138 NA 
HETATM    9  O   UNL     1     -12.183  13.805  67.965  1.00  0.00    -0.323 OA 
HETATM   10  C   UNL     1     -11.902  14.629  64.698  1.00  0.00    -0.452 C  
BRANCH   5  11
HETATM   11  N   UNL     1     -10.221  12.207  66.162  1.00  0.00    -0.222 N  
HETATM   12  H   UNL     1      -9.438  12.813  65.916  1.00  0.00     0.000 HD 
BRANCH  11  13
HETATM   13  C   UNL     1      -9.979  11.009  66.770  1.00  0.00    -0.203 C  
HETATM   14  O   UNL     1      -9.815  10.881  67.976  1.00  0.00    -0.165 OA 
BRANCH  13  15
HETATM   15  N   UNL     1     -10.022   9.959  65.891  1.00  0.00    -0.278 N  
HETATM   16  H   UNL     1     -10.358  10.104  64.940  1.00  0.00     0.000 HD 
BRANCH  15  17
HETATM   17  C   UNL     1      -9.595   8.658  66.311  1.00  0.00    -0.252 C  
BRANCH  17  18
HETATM   18  N   UNL     1      -8.308   8.689  66.954  1.00  0.00    -0.108 N  
HETATM   19  H   UNL     1      -7.557   9.267  66.575  1.00  0.00     0.000 HD 
BRANCH  18  20
HETATM   20  C   UNL     1      -8.098   7.937  68.079  1.00  0.00    -0.126 C  
HETATM   21  O   UNL     1      -7.675   8.391  69.134  1.00  0.00    -0.089 OA 
BRANCH  20  22
HETATM   22  N   UNL     1      -8.430   6.614  67.897  1.00  0.00    -0.119 N  
HETATM   23  H   UNL     1      -9.218   6.332  67.315  1.00  0.00     0.000 HD 
BRANCH  22  24
HETATM   24  C   UNL     1      -7.603   5.654  68.575  1.00  0.00    -0.085 C  
HETATM   25  N   UNL     1      -8.112   4.306  68.647  1.00  0.00    -0.076 N  
HETATM   26  O   UNL     1      -5.559   6.094  67.219  1.00  0.00    -0.008 OA 
HETATM   27  C   UNL     1      -7.095   3.381  68.530  1.00  0.00    -0.050 C  
HETATM   28  N   UNL     1      -5.979   4.022  68.101  1.00  0.00    -0.026 NA 
HETATM   29  O   UNL     1      -7.178   2.181  68.726  1.00  0.00    -0.043 OA 
HETATM   30  C   UNL     1      -6.264   5.335  67.866  1.00  0.00    -0.038 C  
BRANCH  25  31
HETATM   31  C   UNL     1      -9.434   3.982  69.080  1.00  0.00    -0.178 C  
HETATM   32  H   UNL     1     -10.556   4.413  70.595  1.00  0.00     0.000 HD 
HETATM   33  O   UNL     1      -9.676   4.628  70.307  1.00  0.00    -0.186 OA 
ENDBRANCH  25  31
ENDBRANCH  22  24
ENDBRANCH  20  22
ENDBRANCH  18  20
ENDBRANCH  17  18
ENDBRANCH  15  17
ENDBRANCH  13  15
ENDBRANCH  11  13
ENDBRANCH   5  11
ENDBRANCH   2   4
TORSDOF 10
ENDMDL
MODEL      388
REMARK 921   NORMALIZED FREE ENERGY PREDICTED BY IDOCK:   -3.55 KCAL/MOL
REMARK 922        TOTAL FREE ENERGY PREDICTED BY IDOCK:   -7.62 KCAL/MOL
REMARK 923 INTER-LIGAND FREE ENERGY PREDICTED BY IDOCK:   -7.01 KCAL/MOL
REMARK 924 INTRA-LIGAND FREE ENERGY PREDICTED BY IDOCK:   -0.61 KCAL/MOL
REMARK 927      BINDING AFFINITY PREDICTED BY RF-SCORE:    0.00 PKD
ROOT
HETATM    1  O   UNL     1      -7.489   6.395  72.854  1.00  0.00    -0.093 OA 
HETATM    2  C   UNL     1      -8.738   6.299  72.211  1.00  0.00    -0.132 C  
HETATM    3  H   UNL     1      -7.388   5.658  73.444  1.00  0.00     0.000 HD 
ENDROOT
BRANCH   2   4
HETATM    4  N   UNL     1      -8.891   7.411  71.322  1.00  0.00    -0.137 N  
HETATM    5  C   UNL     1     -10.204   7.794  70.845  1.00  0.00    -0.199 C  
HETATM    6  O   UNL     1      -6.768   7.224  70.393  1.00  0.00    -0.049 OA 
HETATM    7  C   UNL     1      -9.852   8.137  69.380  1.00  0.00    -0.182 C  
HETATM    8  N   UNL     1      -8.497   8.186  69.270  1.00  0.00    -0.133 NA 
HETATM    9  O   UNL     1     -10.621   8.401  68.467  1.00  0.00    -0.191 OA 
HETATM   10  C   UNL     1      -7.927   7.606  70.349  1.00  0.00    -0.097 C  
BRANCH   5  11
HETATM   11  N   UNL     1     -10.681   8.975  71.521  1.00  0.00    -0.325 N  
HETATM   12  H   UNL     1     -10.050   9.493  72.132  1.00  0.00     0.000 HD 
BRANCH  11  13
HETATM   13  C   UNL     1     -11.964   9.409  71.354  1.00  0.00    -0.371 C  
HETATM   14  O   UNL     1     -12.935   8.665  71.332  1.00  0.00    -0.314 OA 
BRANCH  13  15
HETATM   15  N   UNL     1     -12.049  10.775  71.296  1.00  0.00    -0.306 N  
HETATM   16  H   UNL     1     -11.820  11.336  72.116  1.00  0.00     0.000 HD 
BRANCH  15  17
HETATM   17  C   UNL     1     -12.462  11.415  70.082  1.00  0.00    -0.196 C  
BRANCH  17  18
HETATM   18  N   UNL     1     -11.575  12.482  69.701  1.00  0.00    -0.426 N  
HETATM   19  H   UNL     1     -10.652  12.273  69.320  1.00  0.00     0.000 HD 
BRANCH  18  20
HETATM   20  C   UNL     1     -11.980  13.782  69.855  1.00  0.00    -0.347 C  
HETATM   21  O   UNL     1     -11.796  14.437  70.873  1.00  0.00    -0.314 OA 
BRANCH  20  22
HETATM   22  N   UNL     1     -12.606  14.274  68.734  1.00  0.00    -0.411 N  
HETATM   23  H   UNL     1     -13.598  14.513  68.732  1.00  0.00     0.000 HD 
BRANCH  22  24
HETATM   24  C   UNL     1     -11.783  14.434  67.567  1.00  0.00    -0.387 C  
HETATM   25  N   UNL     1     -10.446  14.929  67.787  1.00  0.00    -0.252 N  
HETATM   26  O   UNL     1     -12.079  12.101  66.741  1.00  0.00    -0.609 OA 
HETATM   27  C   UNL     1      -9.545  14.334  66.927  1.00  0.00    -0.262 C  
HETATM   28  N   UNL     1     -10.149  13.270  66.342  1.00  0.00    -0.283 NA 
HETATM   29  O   UNL     1      -8.386  14.664  66.747  1.00  0.00    -0.184 OA 
HETATM   30  C   UNL     1     -11.404  13.113  66.855  1.00  0.00    -0.318 C  
BRANCH  25  31
HETATM   31  C   UNL     1     -10.150  16.085  68.572  1.00  0.00    -0.233 C  
HETATM   32  H   UNL     1      -8.923  16.530  69.999  1.00  0.00     0.000 HD 
HETATM   33  O   UNL     1      -9.121  15.762  69.476  1.00  0.00    -0.264 OA 
ENDBRANCH  25  31
ENDBRANCH  22  24
ENDBRANCH  20  22
ENDBRANCH  18  20
ENDBRANCH  17  18
ENDBRANCH  15  17
ENDBRANCH  13  15
ENDBRANCH  11  13
ENDBRANCH   5  11
ENDBRANCH   2   4
TORSDOF 10
ENDMDL
MODEL      389
REMARK 921   NORMALIZED FREE ENERGY PREDICTED BY IDOCK:   -3.55 KCAL/MOL
REMARK 922        TOTAL FREE ENERGY PREDICTED BY IDOCK:   -7.62 KCAL/MOL
REMARK 923 INTER-LIGAND FREE ENERGY PREDICTED BY IDOCK:   -6.21 KCAL/MOL
REMARK 924 INTRA-LIGAND FREE ENERGY PREDICTED BY IDOCK:   -1.40 KCAL/MOL
REMARK 927      BINDING AFFINITY PREDICTED BY RF-SCORE:    0.00 PKD
ROOT
HETATM    1  O   UNL     1      -6.231  12.216  68.015  1.00  0.00    -0.055 OA 
HETATM    2  C   UNL     1      -6.471  11.590  66.777  1.00  0.00    -0.128 C  
HETATM    3  H   UNL     1      -5.305  12.413  68.086  1.00  0.00     0.000 HD 
ENDROOT
BRANCH   2   4
HETATM    4  N   UNL     1      -7.868  11.293  66.670  1.00  0.00    -0.154 N  
HETATM    5  C   UNL     1      -8.321  10.174  65.868  1.00  0.00    -0.136 C  
HETATM    6  O   UNL     1      -8.571  13.479  67.030  1.00  0.00    -0.208 OA 
HETATM    7  C   UNL     1      -9.575  10.812  65.227  1.00  0.00    -0.229 C  
HETATM    8  N   UNL     1      -9.833  11.980  65.874  1.00  0.00    -0.236 NA 
HETATM    9  O   UNL     1     -10.284  10.348  64.347  1.00  0.00    -0.333 OA 
HETATM   10  C   UNL     1      -8.757  12.351  66.603  1.00  0.00    -0.119 C  
BRANCH   5  11
HETATM   11  N   UNL     1      -8.710   9.061  66.698  1.00  0.00    -0.125 N  
HETATM   12  H   UNL     1      -8.990   9.228  67.664  1.00  0.00     0.000 HD 
BRANCH  11  13
HETATM   13  C   UNL     1      -8.709   7.787  66.209  1.00  0.00    -0.155 C  
HETATM   14  O   UNL     1      -8.074   7.439  65.222  1.00  0.00    -0.121 OA 
BRANCH  13  15
HETATM   15  N   UNL     1      -9.431   6.926  66.992  1.00  0.00    -0.145 N  
HETATM   16  H   UNL     1      -8.966   6.149  67.460  1.00  0.00     0.000 HD 
BRANCH  15  17
HETATM   17  C   UNL     1     -10.842   7.120  67.154  1.00  0.00    -0.333 C  
BRANCH  17  18
HETATM   18  N   UNL     1     -11.205   7.345  68.529  1.00  0.00    -0.382 N  
HETATM   19  H   UNL     1     -11.912   8.041  68.767  1.00  0.00     0.000 HD 
BRANCH  18  20
HETATM   20  C   UNL     1     -10.594   6.617  69.515  1.00  0.00    -0.241 C  
HETATM   21  O   UNL     1     -10.752   5.413  69.670  1.00  0.00    -0.308 OA 
BRANCH  20  22
HETATM   22  N   UNL     1      -9.772   7.386  70.305  1.00  0.00    -0.172 N  
HETATM   23  H   UNL     1      -8.756   7.332  70.238  1.00  0.00     0.000 HD 
BRANCH  22  24
HETATM   24  C   UNL     1     -10.427   8.270  71.230  1.00  0.00    -0.211 C  
HETATM   25  N   UNL     1     -11.178   9.359  70.654  1.00  0.00    -0.265 N  
HETATM   26  O   UNL     1     -11.655   6.477  72.451  1.00  0.00    -0.277 OA 
HETATM   27  C   UNL     1     -12.322   9.617  71.383  1.00  0.00    -0.378 C  
HETATM   28  N   UNL     1     -12.525   8.586  72.241  1.00  0.00    -0.379 NA 
HETATM   29  O   UNL     1     -13.063  10.576  71.257  1.00  0.00    -0.377 OA 
HETATM   30  C   UNL     1     -11.578   7.625  72.040  1.00  0.00    -0.291 C  
BRANCH  25  31
HETATM   31  C   UNL     1     -10.659  10.237  69.654  1.00  0.00    -0.256 C  
HETATM   32  H   UNL     1      -8.935  10.574  68.846  1.00  0.00     0.000 HD 
HETATM   33  O   UNL     1      -9.281   9.990  69.511  1.00  0.00    -0.200 OA 
ENDBRANCH  25  31
ENDBRANCH  22  24
ENDBRANCH  20  22
ENDBRANCH  18  20
ENDBRANCH  17  18
ENDBRANCH  15  17
ENDBRANCH  13  15
ENDBRANCH  11  13
ENDBRANCH   5  11
ENDBRANCH   2   4
TORSDOF 10
ENDMDL
MODEL      390
REMARK 921   NORMALIZED FREE ENERGY PREDICTED BY IDOCK:   -3.54 KCAL/MOL
REMARK 922        TOTAL FREE ENERGY PREDICTED BY IDOCK:   -7.61 KCAL/MOL
REMARK 923 INTER-LIGAND FREE ENERGY PREDICTED BY IDOCK:   -6.62 KCAL/MOL
REMARK 924 INTRA-LIGAND FREE ENERGY PREDICTED BY IDOCK:   -0.99 KCAL/MOL
REMARK 927      BINDING AFFINITY PREDICTED BY RF-SCORE:    0.00 PKD
ROOT
HETATM    1  O   UNL     1      -8.248   7.716  66.644  1.00  0.00    -0.118 OA 
HETATM    2  C   UNL     1      -8.152   8.007  68.017  1.00  0.00    -0.129 C  
HETATM    3  H   UNL     1      -7.388   7.802  66.249  1.00  0.00     0.000 HD 
ENDROOT
BRANCH   2   4
HETATM    4  N   UNL     1      -9.448   7.877  68.612  1.00  0.00    -0.149 N  
HETATM    5  C   UNL     1     -10.233   9.054  68.925  1.00  0.00    -0.208 C  
HETATM    6  O   UNL     1      -8.993   5.851  69.655  1.00  0.00    -0.128 OA 
HETATM    7  C   UNL     1     -10.823   8.612  70.284  1.00  0.00    -0.235 C  
HETATM    8  N   UNL     1     -10.575   7.283  70.441  1.00  0.00    -0.221 NA 
HETATM    9  O   UNL     1     -11.472   9.283  71.072  1.00  0.00    -0.274 OA 
HETATM   10  C   UNL     1      -9.637   6.882  69.555  1.00  0.00    -0.148 C  
BRANCH   5  11
HETATM   11  N   UNL     1     -11.296   9.242  67.970  1.00  0.00    -0.268 N  
HETATM   12  H   UNL     1     -12.090   8.602  67.969  1.00  0.00     0.000 HD 
BRANCH  11  13
HETATM   13  C   UNL     1     -11.254  10.263  67.065  1.00  0.00     0.123 C  
HETATM   14  O   UNL     1     -11.844  11.325  67.212  1.00  0.00    -0.562 OA 
BRANCH  13  15
HETATM   15  N   UNL     1     -10.414   9.997  66.016  1.00  0.00    -0.138 N  
HETATM   16  H   UNL     1     -10.293   9.038  65.690  1.00  0.00     0.000 HD 
BRANCH  15  17
HETATM   17  C   UNL     1      -9.706  11.066  65.378  1.00  0.00    -0.232 C  
BRANCH  17  18
HETATM   18  N   UNL     1      -9.786  12.294  66.125  1.00  0.00    -0.240 N  
HETATM   19  H   UNL     1      -9.730  12.281  67.144  1.00  0.00     0.000 HD 
BRANCH  18  20
HETATM   20  C   UNL     1      -9.940  13.480  65.457  1.00  0.00    -0.219 C  
HETATM   21  O   UNL     1     -10.703  13.637  64.514  1.00  0.00    -0.399 OA 
BRANCH  20  22
HETATM   22  N   UNL     1      -9.149  14.480  65.973  1.00  0.00    -0.496 N  
HETATM   23  H   UNL     1      -8.134  14.392  66.027  1.00  0.00     0.000 HD 
BRANCH  22  24
HETATM   24  C   UNL     1      -9.835  15.658  66.432  1.00  0.00    -0.274 C  
HETATM   25  N   UNL     1     -10.435  15.581  67.741  1.00  0.00    -0.267 N  
HETATM   26  O   UNL     1      -7.916  17.209  66.078  1.00  0.00    -0.451 OA 
HETATM   27  C   UNL     1     -10.330  16.784  68.410  1.00  0.00    -0.319 C  
HETATM   28  N   UNL     1      -9.449  17.570  67.742  1.00  0.00    -0.265 NA 
HETATM   29  O   UNL     1     -10.886  17.088  69.451  1.00  0.00    -0.275 OA 
HETATM   30  C   UNL     1      -8.922  16.881  66.690  1.00  0.00    -0.252 C  
BRANCH  25  31
HETATM   31  C   UNL     1     -11.279  14.509  68.163  1.00  0.00    -0.284 C  
HETATM   32  H   UNL     1     -11.097  12.938  69.276  1.00  0.00     0.000 HD 
HETATM   33  O   UNL     1     -10.535  13.651  68.995  1.00  0.00    -0.189 OA 
ENDBRANCH  25  31
ENDBRANCH  22  24
ENDBRANCH  20  22
ENDBRANCH  18  20
ENDBRANCH  17  18
ENDBRANCH  15  17
ENDBRANCH  13  15
ENDBRANCH  11  13
ENDBRANCH   5  11
ENDBRANCH   2   4
TORSDOF 10
ENDMDL
MODEL      391
REMARK 921   NORMALIZED FREE ENERGY PREDICTED BY IDOCK:   -3.54 KCAL/MOL
REMARK 922        TOTAL FREE ENERGY PREDICTED BY IDOCK:   -7.61 KCAL/MOL
REMARK 923 INTER-LIGAND FREE ENERGY PREDICTED BY IDOCK:   -6.49 KCAL/MOL
REMARK 924 INTRA-LIGAND FREE ENERGY PREDICTED BY IDOCK:   -1.12 KCAL/MOL
REMARK 927      BINDING AFFINITY PREDICTED BY RF-SCORE:    0.00 PKD
ROOT
HETATM    1  O   UNL     1     -10.857   6.925  74.075  1.00  0.00    -0.464 OA 
HETATM    2  C   UNL     1     -10.811   7.749  72.935  1.00  0.00    -0.392 C  
HETATM    3  H   UNL     1     -11.645   7.123  74.567  1.00  0.00     0.000 HD 
ENDROOT
BRANCH   2   4
HETATM    4  N   UNL     1      -9.622   7.452  72.193  1.00  0.00    -0.145 N  
HETATM    5  C   UNL     1      -9.523   6.226  71.427  1.00  0.00    -0.156 C  
HETATM    6  O   UNL     1      -8.208   8.673  73.575  1.00  0.00    -0.404 OA 
HETATM    7  C   UNL     1      -8.054   5.855  71.731  1.00  0.00    -0.118 C  
HETATM    8  N   UNL     1      -7.461   6.924  72.328  1.00  0.00    -0.087 NA 
HETATM    9  O   UNL     1      -7.466   4.824  71.438  1.00  0.00    -0.072 OA 
HETATM   10  C   UNL     1      -8.403   7.797  72.749  1.00  0.00    -0.136 C  
BRANCH   5  11
HETATM   11  N   UNL     1      -9.679   6.480  70.016  1.00  0.00    -0.165 N  
HETATM   12  H   UNL     1     -10.081   5.759  69.417  1.00  0.00     0.000 HD 
BRANCH  11  13
HETATM   13  C   UNL     1      -9.296   7.671  69.471  1.00  0.00    -0.153 C  
HETATM   14  O   UNL     1     -10.015   8.661  69.428  1.00  0.00    -0.187 OA 
BRANCH  13  15
HETATM   15  N   UNL     1      -7.992   7.658  69.052  1.00  0.00    -0.119 N  
HETATM   16  H   UNL     1      -7.257   7.336  69.682  1.00  0.00     0.000 HD 
BRANCH  15  17
HETATM   17  C   UNL     1      -7.661   8.099  67.730  1.00  0.00    -0.098 C  
BRANCH  17  18
HETATM   18  N   UNL     1      -8.156   9.423  67.458  1.00  0.00    -0.109 N  
HETATM   19  H   UNL     1      -8.026  10.171  68.139  1.00  0.00     0.000 HD 
BRANCH  18  20
HETATM   20  C   UNL     1      -8.803   9.670  66.276  1.00  0.00    -0.151 C  
HETATM   21  O   UNL     1      -9.177   8.794  65.508  1.00  0.00    -0.203 OA 
BRANCH  20  22
HETATM   22  N   UNL     1      -8.998  11.013  66.053  1.00  0.00    -0.192 N  
HETATM   23  H   UNL     1      -8.313  11.712  66.342  1.00  0.00     0.000 HD 
BRANCH  22  24
HETATM   24  C   UNL     1     -10.221  11.376  65.390  1.00  0.00    -0.270 C  
HETATM   25  N   UNL     1     -10.793  12.649  65.752  1.00  0.00    -0.269 N  
HETATM   26  O   UNL     1      -9.344  11.066  63.078  1.00  0.00    -0.281 OA 
HETATM   27  C   UNL     1     -11.368  13.267  64.660  1.00  0.00    -0.346 C  
HETATM   28  N   UNL     1     -10.966  12.616  63.539  1.00  0.00    -0.424 NA 
HETATM   29  O   UNL     1     -12.077  14.258  64.675  1.00  0.00    -0.420 OA 
HETATM   30  C   UNL     1     -10.084  11.630  63.870  1.00  0.00    -0.357 C  
BRANCH  25  31
HETATM   31  C   UNL     1     -11.000  13.069  67.102  1.00  0.00    -0.269 C  
HETATM   32  H   UNL     1     -12.193  12.595  68.547  1.00  0.00     0.000 HD 
HETATM   33  O   UNL     1     -12.055  12.316  67.650  1.00  0.00    -0.502 OA 
ENDBRANCH  25  31
ENDBRANCH  22  24
ENDBRANCH  20  22
ENDBRANCH  18  20
ENDBRANCH  17  18
ENDBRANCH  15  17
ENDBRANCH  13  15
ENDBRANCH  11  13
ENDBRANCH   5  11
ENDBRANCH   2   4
TORSDOF 10
ENDMDL
MODEL      392
REMARK 921   NORMALIZED FREE ENERGY PREDICTED BY IDOCK:   -3.51 KCAL/MOL
REMARK 922        TOTAL FREE ENERGY PREDICTED BY IDOCK:   -7.56 KCAL/MOL
REMARK 923 INTER-LIGAND FREE ENERGY PREDICTED BY IDOCK:   -5.91 KCAL/MOL
REMARK 924 INTRA-LIGAND FREE ENERGY PREDICTED BY IDOCK:   -1.65 KCAL/MOL
REMARK 927      BINDING AFFINITY PREDICTED BY RF-SCORE:    0.00 PKD
ROOT
HETATM    1  O   UNL     1      -6.093   9.107  66.096  1.00  0.00    -0.057 OA 
HETATM    2  C   UNL     1      -7.071   9.853  65.411  1.00  0.00    -0.121 C  
HETATM    3  H   UNL     1      -5.269   9.179  65.630  1.00  0.00     0.000 HD 
ENDROOT
BRANCH   2   4
HETATM    4  N   UNL     1      -8.315   9.745  66.114  1.00  0.00    -0.119 N  
HETATM    5  C   UNL     1      -8.476   8.772  67.176  1.00  0.00    -0.110 C  
HETATM    6  O   UNL     1      -9.614  10.516  64.347  1.00  0.00    -0.246 OA 
HETATM    7  C   UNL     1      -9.917   8.303  66.873  1.00  0.00    -0.273 C  
HETATM    8  N   UNL     1     -10.460   9.158  65.964  1.00  0.00     0.112 NA 
HETATM    9  O   UNL     1     -10.528   7.380  67.391  1.00  0.00    -0.239 OA 
HETATM   10  C   UNL     1      -9.486   9.901  65.394  1.00  0.00    -0.257 C  
BRANCH   5  11
HETATM   11  N   UNL     1      -8.431   9.403  68.471  1.00  0.00    -0.118 N  
HETATM   12  H   UNL     1      -8.253   8.838  69.300  1.00  0.00     0.000 HD 
BRANCH  11  13
HETATM   13  C   UNL     1      -8.624  10.748  68.604  1.00  0.00    -0.151 C  
HETATM   14  O   UNL     1      -9.708  11.296  68.460  1.00  0.00    -0.187 OA 
BRANCH  13  15
HETATM   15  N   UNL     1      -7.485  11.403  68.993  1.00  0.00    -0.200 N  
HETATM   16  H   UNL     1      -7.160  11.331  69.957  1.00  0.00     0.000 HD 
BRANCH  15  17
HETATM   17  C   UNL     1      -6.753  12.189  68.046  1.00  0.00    -0.073 C  
BRANCH  17  18
HETATM   18  N   UNL     1      -7.619  12.964  67.197  1.00  0.00    -0.360 N  
HETATM   19  H   UNL     1      -8.162  12.509  66.463  1.00  0.00     0.000 HD 
BRANCH  18  20
HETATM   20  C   UNL     1      -7.708  14.319  67.383  1.00  0.00    -0.173 C  
HETATM   21  O   UNL     1      -6.752  15.034  67.651  1.00  0.00    -0.158 OA 
BRANCH  20  22
HETATM   22  N   UNL     1      -8.991  14.789  67.224  1.00  0.00    -0.188 N  
HETATM   23  H   UNL     1      -9.748  14.509  67.847  1.00  0.00     0.000 HD 
BRANCH  22  24
HETATM   24  C   UNL     1      -9.202  15.696  66.130  1.00  0.00    -0.343 C  
HETATM   25  N   UNL     1     -10.459  15.578  65.433  1.00  0.00    -0.379 N  
HETATM   26  O   UNL     1      -8.746  17.767  67.440  1.00  0.00    -0.231 OA 
HETATM   27  C   UNL     1     -10.932  16.814  65.041  1.00  0.00    -0.108 C  
HETATM   28  N   UNL     1     -10.212  17.770  65.680  1.00  0.00    -0.600 NA 
HETATM   29  O   UNL     1     -11.866  17.031  64.289  1.00  0.00    -0.411 OA 
HETATM   30  C   UNL     1      -9.326  17.185  66.536  1.00  0.00    -0.265 C  
BRANCH  25  31
HETATM   31  C   UNL     1     -10.985  14.339  64.954  1.00  0.00    -0.404 C  
HETATM   32  H   UNL     1     -10.335  12.530  64.745  1.00  0.00     0.000 HD 
HETATM   33  O   UNL     1      -9.986  13.354  65.063  1.00  0.00    -0.253 OA 
ENDBRANCH  25  31
ENDBRANCH  22  24
ENDBRANCH  20  22
ENDBRANCH  18  20
ENDBRANCH  17  18
ENDBRANCH  15  17
ENDBRANCH  13  15
ENDBRANCH  11  13
ENDBRANCH   5  11
ENDBRANCH   2   4
TORSDOF 10
ENDMDL
MODEL      393
REMARK 921   NORMALIZED FREE ENERGY PREDICTED BY IDOCK:   -3.51 KCAL/MOL
REMARK 922        TOTAL FREE ENERGY PREDICTED BY IDOCK:   -7.55 KCAL/MOL
REMARK 923 INTER-LIGAND FREE ENERGY PREDICTED BY IDOCK:   -6.15 KCAL/MOL
REMARK 924 INTRA-LIGAND FREE ENERGY PREDICTED BY IDOCK:   -1.40 KCAL/MOL
REMARK 927      BINDING AFFINITY PREDICTED BY RF-SCORE:    0.00 PKD
ROOT
HETATM    1  O   UNL     1      -6.199   9.835  67.597  1.00  0.00    -0.055 OA 
HETATM    2  C   UNL     1      -7.002   9.846  66.441  1.00  0.00    -0.095 C  
HETATM    3  H   UNL     1      -5.293   9.964  67.344  1.00  0.00     0.000 HD 
ENDROOT
BRANCH   2   4
HETATM    4  N   UNL     1      -8.369   9.651  66.822  1.00  0.00    -0.116 N  
HETATM    5  C   UNL     1      -8.700   8.869  67.996  1.00  0.00    -0.133 C  
HETATM    6  O   UNL     1      -9.214   9.862  64.667  1.00  0.00    -0.225 OA 
HETATM    7  C   UNL     1      -9.935   8.112  67.457  1.00  0.00    -0.192 C  
HETATM    8  N   UNL     1     -10.304   8.687  66.280  1.00  0.00    -0.092 NA 
HETATM    9  O   UNL     1     -10.551   7.204  67.996  1.00  0.00    -0.200 OA 
HETATM   10  C   UNL     1      -9.307   9.474  65.820  1.00  0.00    -0.233 C  
BRANCH   5  11
HETATM   11  N   UNL     1      -9.089   9.717  69.095  1.00  0.00    -0.155 N  
HETATM   12  H   UNL     1      -8.900   9.420  70.052  1.00  0.00     0.000 HD 
BRANCH  11  13
HETATM   13  C   UNL     1      -9.707  10.914  68.873  1.00  0.00    -0.187 C  
HETATM   14  O   UNL     1     -10.920  11.044  68.773  1.00  0.00    -0.188 OA 
BRANCH  13  15
HETATM   15  N   UNL     1      -8.825  11.962  68.855  1.00  0.00    -0.376 N  
HETATM   16  H   UNL     1      -7.954  11.904  69.382  1.00  0.00     0.000 HD 
BRANCH  15  17
HETATM   17  C   UNL     1      -9.127  13.138  68.095  1.00  0.00    -0.200 C  
BRANCH  17  18
HETATM   18  N   UNL     1      -9.475  14.253  68.936  1.00  0.00    -0.372 N  
HETATM   19  H   UNL     1      -9.065  14.345  69.865  1.00  0.00     0.000 HD 
BRANCH  18  20
HETATM   20  C   UNL     1     -10.362  15.191  68.477  1.00  0.00    -0.230 C  
HETATM   21  O   UNL     1     -11.560  15.178  68.730  1.00  0.00    -0.315 OA 
BRANCH  20  22
HETATM   22  N   UNL     1      -9.756  16.158  67.709  1.00  0.00    -0.228 N  
HETATM   23  H   UNL     1      -9.559  16.015  66.719  1.00  0.00     0.000 HD 
BRANCH  22  24
HETATM   24  C   UNL     1      -9.417  17.382  68.383  1.00  0.00    -0.293 C  
HETATM   25  N   UNL     1      -8.012  17.700  68.464  1.00  0.00    -0.276 N  
HETATM   26  O   UNL     1     -10.900  18.836  67.006  1.00  0.00    -0.405 OA 
HETATM   27  C   UNL     1      -7.800  19.058  68.341  1.00  0.00    -0.337 C  
HETATM   28  N   UNL     1      -8.947  19.633  67.899  1.00  0.00    -0.319 NA 
HETATM   29  O   UNL     1      -6.755  19.652  68.542  1.00  0.00    -0.275 OA 
HETATM   30  C   UNL     1      -9.883  18.670  67.662  1.00  0.00    -0.320 C  
BRANCH  25  31
HETATM   31  C   UNL     1      -7.016  16.779  68.911  1.00  0.00    -0.207 C  
HETATM   32  H   UNL     1      -6.111  15.234  68.181  1.00  0.00     0.000 HD 
HETATM   33  O   UNL     1      -6.773  15.847  67.884  1.00  0.00    -0.123 OA 
ENDBRANCH  25  31
ENDBRANCH  22  24
ENDBRANCH  20  22
ENDBRANCH  18  20
ENDBRANCH  17  18
ENDBRANCH  15  17
ENDBRANCH  13  15
ENDBRANCH  11  13
ENDBRANCH   5  11
ENDBRANCH   2   4
TORSDOF 10
ENDMDL
MODEL      394
REMARK 921   NORMALIZED FREE ENERGY PREDICTED BY IDOCK:   -3.50 KCAL/MOL
REMARK 922        TOTAL FREE ENERGY PREDICTED BY IDOCK:   -7.54 KCAL/MOL
REMARK 923 INTER-LIGAND FREE ENERGY PREDICTED BY IDOCK:   -6.17 KCAL/MOL
REMARK 924 INTRA-LIGAND FREE ENERGY PREDICTED BY IDOCK:   -1.37 KCAL/MOL
REMARK 927      BINDING AFFINITY PREDICTED BY RF-SCORE:    0.00 PKD
ROOT
HETATM    1  O   UNL     1      -8.173   6.110  68.951  1.00  0.00    -0.110 OA 
HETATM    2  C   UNL     1      -7.857   7.403  68.495  1.00  0.00    -0.122 C  
HETATM    3  H   UNL     1      -8.313   5.544  68.202  1.00  0.00     0.000 HD 
ENDROOT
BRANCH   2   4
HETATM    4  N   UNL     1      -7.645   8.257  69.625  1.00  0.00    -0.091 N  
HETATM    5  C   UNL     1      -7.850   9.687  69.513  1.00  0.00    -0.117 C  
HETATM    6  O   UNL     1      -6.079   6.871  70.638  1.00  0.00    -0.027 OA 
HETATM    7  C   UNL     1      -6.655  10.182  70.359  1.00  0.00    -0.132 C  
HETATM    8  N   UNL     1      -6.132   9.113  71.019  1.00  0.00    -0.056 NA 
HETATM    9  O   UNL     1      -6.262  11.330  70.499  1.00  0.00    -0.290 OA 
HETATM   10  C   UNL     1      -6.594   7.965  70.476  1.00  0.00    -0.037 C  
BRANCH   5  11
HETATM   11  N   UNL     1      -9.087  10.087  70.136  1.00  0.00    -0.379 N  
HETATM   12  H   UNL     1      -9.097  10.320  71.129  1.00  0.00     0.000 HD 
BRANCH  11  13
HETATM   13  C   UNL     1     -10.244  10.158  69.416  1.00  0.00    -0.227 C  
HETATM   14  O   UNL     1     -11.029   9.227  69.298  1.00  0.00    -0.191 OA 
BRANCH  13  15
HETATM   15  N   UNL     1     -10.467  11.411  68.909  1.00  0.00    -0.232 N  
HETATM   16  H   UNL     1     -10.709  12.179  69.535  1.00  0.00     0.000 HD 
BRANCH  15  17
HETATM   17  C   UNL     1     -10.361  11.642  67.499  1.00  0.00    -0.197 C  
BRANCH  17  18
HETATM   18  N   UNL     1      -9.780  12.924  67.200  1.00  0.00    -0.216 N  
HETATM   19  H   UNL     1      -8.789  12.998  66.967  1.00  0.00     0.000 HD 
BRANCH  18  20
HETATM   20  C   UNL     1     -10.567  14.044  67.230  1.00  0.00    -0.273 C  
HETATM   21  O   UNL     1     -11.725  14.053  67.627  1.00  0.00    -0.335 OA 
BRANCH  20  22
HETATM   22  N   UNL     1      -9.909  15.163  66.775  1.00  0.00    -0.235 N  
HETATM   23  H   UNL     1      -8.910  15.154  66.571  1.00  0.00     0.000 HD 
BRANCH  22  24
HETATM   24  C   UNL     1     -10.710  16.344  66.604  1.00  0.00    -0.173 C  
HETATM   25  N   UNL     1     -10.247  17.535  67.273  1.00  0.00    -0.324 N  
HETATM   26  O   UNL     1     -10.699  16.285  64.112  1.00  0.00    -0.320 OA 
HETATM   27  C   UNL     1     -10.484  18.661  66.511  1.00  0.00    -0.420 C  
HETATM   28  N   UNL     1     -10.818  18.267  65.256  1.00  0.00    -0.513 NA 
HETATM   29  O   UNL     1     -10.371  19.820  66.871  1.00  0.00    -0.417 OA 
HETATM   30  C   UNL     1     -10.734  16.909  65.162  1.00  0.00    -0.103 C  
BRANCH  25  31
HETATM   31  C   UNL     1      -9.873  17.574  68.651  1.00  0.00    -0.338 C  
HETATM   32  H   UNL     1     -10.327  16.589  70.252  1.00  0.00     0.000 HD 
HETATM   33  O   UNL     1     -10.575  16.564  69.335  1.00  0.00    -0.295 OA 
ENDBRANCH  25  31
ENDBRANCH  22  24
ENDBRANCH  20  22
ENDBRANCH  18  20
ENDBRANCH  17  18
ENDBRANCH  15  17
ENDBRANCH  13  15
ENDBRANCH  11  13
ENDBRANCH   5  11
ENDBRANCH   2   4
TORSDOF 10
ENDMDL
MODEL      395
REMARK 921   NORMALIZED FREE ENERGY PREDICTED BY IDOCK:   -3.50 KCAL/MOL
REMARK 922        TOTAL FREE ENERGY PREDICTED BY IDOCK:   -7.54 KCAL/MOL
REMARK 923 INTER-LIGAND FREE ENERGY PREDICTED BY IDOCK:   -6.16 KCAL/MOL
REMARK 924 INTRA-LIGAND FREE ENERGY PREDICTED BY IDOCK:   -1.38 KCAL/MOL
REMARK 927      BINDING AFFINITY PREDICTED BY RF-SCORE:    0.00 PKD
ROOT
HETATM    1  O   UNL     1     -11.337   7.200  71.814  1.00  0.00    -0.241 OA 
HETATM    2  C   UNL     1     -10.354   6.991  70.830  1.00  0.00    -0.206 C  
HETATM    3  H   UNL     1     -11.717   6.363  72.053  1.00  0.00     0.000 HD 
ENDROOT
BRANCH   2   4
HETATM    4  N   UNL     1      -9.781   8.254  70.469  1.00  0.00    -0.170 N  
HETATM    5  C   UNL     1      -9.308   8.487  69.119  1.00  0.00    -0.153 C  
HETATM    6  O   UNL     1      -9.027   8.755  72.610  1.00  0.00    -0.380 OA 
HETATM    7  C   UNL     1      -8.023   9.286  69.435  1.00  0.00    -0.099 C  
HETATM    8  N   UNL     1      -8.050   9.629  70.752  1.00  0.00    -0.277 NA 
HETATM    9  O   UNL     1      -7.148   9.635  68.657  1.00  0.00    -0.070 OA 
HETATM   10  C   UNL     1      -8.984   8.898  71.399  1.00  0.00    -0.229 C  
BRANCH   5  11
HETATM   11  N   UNL     1     -10.227   9.315  68.380  1.00  0.00    -0.195 N  
HETATM   12  H   UNL     1     -10.883   9.911  68.884  1.00  0.00     0.000 HD 
BRANCH  11  13
HETATM   13  C   UNL     1     -10.232   9.312  67.015  1.00  0.00    -0.262 C  
HETATM   14  O   UNL     1     -10.330   8.298  66.338  1.00  0.00    -0.227 OA 
BRANCH  13  15
HETATM   15  N   UNL     1     -10.197  10.578  66.491  1.00  0.00    -0.224 N  
HETATM   16  H   UNL     1     -11.063  11.097  66.353  1.00  0.00     0.000 HD 
BRANCH  15  17
HETATM   17  C   UNL     1      -8.941  11.170  66.136  1.00  0.00    -0.195 C  
BRANCH  17  18
HETATM   18  N   UNL     1      -8.513  12.152  67.097  1.00  0.00    -0.177 N  
HETATM   19  H   UNL     1      -7.615  12.052  67.571  1.00  0.00     0.000 HD 
BRANCH  18  20
HETATM   20  C   UNL     1      -9.321  13.224  67.370  1.00  0.00    -0.217 C  
HETATM   21  O   UNL     1      -9.920  13.375  68.426  1.00  0.00    -0.235 OA 
BRANCH  20  22
HETATM   22  N   UNL     1      -9.376  14.121  66.328  1.00  0.00    -0.463 N  
HETATM   23  H   UNL     1      -9.839  13.897  65.448  1.00  0.00     0.000 HD 
BRANCH  22  24
HETATM   24  C   UNL     1      -8.742  15.392  66.552  1.00  0.00    -0.300 C  
HETATM   25  N   UNL     1      -9.417  16.296  67.449  1.00  0.00    -0.226 N  
HETATM   26  O   UNL     1      -6.537  14.447  67.231  1.00  0.00    -0.283 OA 
HETATM   27  C   UNL     1      -8.514  17.012  68.210  1.00  0.00    -0.233 C  
HETATM   28  N   UNL     1      -7.292  16.438  68.077  1.00  0.00    -0.133 NA 
HETATM   29  O   UNL     1      -8.762  17.968  68.924  1.00  0.00    -0.233 OA 
HETATM   30  C   UNL     1      -7.390  15.320  67.302  1.00  0.00    -0.195 C  
BRANCH  25  31
HETATM   31  C   UNL     1     -10.805  16.621  67.350  1.00  0.00    -0.186 C  
HETATM   32  H   UNL     1     -12.290  16.806  68.574  1.00  0.00     0.000 HD 
HETATM   33  O   UNL     1     -11.367  16.590  68.640  1.00  0.00    -0.344 OA 
ENDBRANCH  25  31
ENDBRANCH  22  24
ENDBRANCH  20  22
ENDBRANCH  18  20
ENDBRANCH  17  18
ENDBRANCH  15  17
ENDBRANCH  13  15
ENDBRANCH  11  13
ENDBRANCH   5  11
ENDBRANCH   2   4
TORSDOF 10
ENDMDL
MODEL      396
REMARK 921   NORMALIZED FREE ENERGY PREDICTED BY IDOCK:   -3.49 KCAL/MOL
REMARK 922        TOTAL FREE ENERGY PREDICTED BY IDOCK:   -7.53 KCAL/MOL
REMARK 923 INTER-LIGAND FREE ENERGY PREDICTED BY IDOCK:   -6.07 KCAL/MOL
REMARK 924 INTRA-LIGAND FREE ENERGY PREDICTED BY IDOCK:   -1.46 KCAL/MOL
REMARK 927      BINDING AFFINITY PREDICTED BY RF-SCORE:    0.00 PKD
ROOT
HETATM    1  O   UNL     1     -12.461  15.966  71.722  1.00  0.00    -0.429 OA 
HETATM    2  C   UNL     1     -13.130  15.136  70.803  1.00  0.00    -0.397 C  
HETATM    3  H   UNL     1     -12.918  16.796  71.778  1.00  0.00     0.000 HD 
ENDROOT
BRANCH   2   4
HETATM    4  N   UNL     1     -12.440  13.884  70.719  1.00  0.00    -0.357 N  
HETATM    5  C   UNL     1     -11.951  13.400  69.444  1.00  0.00    -0.315 C  
HETATM    6  O   UNL     1     -13.495  12.945  72.565  1.00  0.00    -0.540 OA 
HETATM    7  C   UNL     1     -12.292  11.900  69.593  1.00  0.00    -0.048 C  
HETATM    8  N   UNL     1     -12.631  11.670  70.891  1.00  0.00    -0.348 NA 
HETATM    9  O   UNL     1     -12.211  11.026  68.744  1.00  0.00    -0.546 OA 
HETATM   10  C   UNL     1     -12.880  12.842  71.516  1.00  0.00    -0.270 C  
BRANCH   5  11
HETATM   11  N   UNL     1     -10.523  13.567  69.336  1.00  0.00    -0.421 N  
HETATM   12  H   UNL     1      -9.981  13.807  70.166  1.00  0.00     0.000 HD 
BRANCH  11  13
HETATM   13  C   UNL     1      -9.886  13.408  68.139  1.00  0.00    -0.234 C  
HETATM   14  O   UNL     1     -10.438  13.530  67.055  1.00  0.00    -0.262 OA 
BRANCH  13  15
HETATM   15  N   UNL     1      -8.544  13.177  68.289  1.00  0.00    -0.193 N  
HETATM   16  H   UNL     1      -8.042  13.578  69.081  1.00  0.00     0.000 HD 
BRANCH  15  17
HETATM   17  C   UNL     1      -7.846  12.372  67.331  1.00  0.00    -0.174 C  
BRANCH  17  18
HETATM   18  N   UNL     1      -8.546  11.151  67.034  1.00  0.00    -0.143 N  
HETATM   19  H   UNL     1      -9.563  11.109  67.108  1.00  0.00     0.000 HD 
BRANCH  18  20
HETATM   20  C   UNL     1      -7.837  10.044  66.648  1.00  0.00    -0.111 C  
HETATM   21  O   UNL     1      -6.648   9.880  66.887  1.00  0.00    -0.066 OA 
BRANCH  20  22
HETATM   22  N   UNL     1      -8.612   9.130  65.974  1.00  0.00    -0.140 N  
HETATM   23  H   UNL     1      -9.536   9.368  65.615  1.00  0.00     0.000 HD 
BRANCH  22  24
HETATM   24  C   UNL     1      -8.045   7.819  65.805  1.00  0.00    -0.125 C  
HETATM   25  N   UNL     1      -8.935   6.704  66.017  1.00  0.00    -0.142 N  
HETATM   26  O   UNL     1      -7.159   8.232  63.512  1.00  0.00    -0.083 OA 
HETATM   27  C   UNL     1      -8.663   5.675  65.138  1.00  0.00    -0.093 C  
HETATM   28  N   UNL     1      -7.837   6.145  64.170  1.00  0.00    -0.113 NA 
HETATM   29  O   UNL     1      -9.116   4.544  65.180  1.00  0.00    -0.140 OA 
HETATM   30  C   UNL     1      -7.620   7.478  64.356  1.00  0.00    -0.111 C  
BRANCH  25  31
HETATM   31  C   UNL     1      -9.773   6.566  67.165  1.00  0.00    -0.143 C  
HETATM   32  H   UNL     1      -9.648   6.990  69.048  1.00  0.00     0.000 HD 
HETATM   33  O   UNL     1      -9.091   7.082  68.283  1.00  0.00    -0.128 OA 
ENDBRANCH  25  31
ENDBRANCH  22  24
ENDBRANCH  20  22
ENDBRANCH  18  20
ENDBRANCH  17  18
ENDBRANCH  15  17
ENDBRANCH  13  15
ENDBRANCH  11  13
ENDBRANCH   5  11
ENDBRANCH   2   4
TORSDOF 10
ENDMDL
MODEL      397
REMARK 921   NORMALIZED FREE ENERGY PREDICTED BY IDOCK:   -3.49 KCAL/MOL
REMARK 922        TOTAL FREE ENERGY PREDICTED BY IDOCK:   -7.52 KCAL/MOL
REMARK 923 INTER-LIGAND FREE ENERGY PREDICTED BY IDOCK:   -6.71 KCAL/MOL
REMARK 924 INTRA-LIGAND FREE ENERGY PREDICTED BY IDOCK:   -0.81 KCAL/MOL
REMARK 927      BINDING AFFINITY PREDICTED BY RF-SCORE:    0.00 PKD
ROOT
HETATM    1  O   UNL     1     -13.003  13.177  65.091  1.00  0.00    -0.695 OA 
HETATM    2  C   UNL     1     -11.942  12.545  65.766  1.00  0.00    -0.420 C  
HETATM    3  H   UNL     1     -13.388  12.563  64.478  1.00  0.00     0.000 HD 
ENDROOT
BRANCH   2   4
HETATM    4  N   UNL     1     -11.361  13.471  66.691  1.00  0.00    -0.313 N  
HETATM    5  C   UNL     1     -11.666  13.385  68.105  1.00  0.00    -0.362 C  
HETATM    6  O   UNL     1     -11.117  15.185  65.139  1.00  0.00    -0.362 OA 
HETATM    7  C   UNL     1     -11.781  14.891  68.432  1.00  0.00    -0.309 C  
HETATM    8  N   UNL     1     -11.304  15.593  67.369  1.00  0.00    -0.230 NA 
HETATM    9  O   UNL     1     -12.157  15.404  69.476  1.00  0.00    -0.333 OA 
HETATM   10  C   UNL     1     -11.210  14.787  66.289  1.00  0.00    -0.343 C  
BRANCH   5  11
HETATM   11  N   UNL     1     -10.568  12.809  68.841  1.00  0.00    -0.401 N  
HETATM   12  H   UNL     1      -9.775  13.395  69.102  1.00  0.00     0.000 HD 
BRANCH  11  13
HETATM   13  C   UNL     1     -10.574  11.490  69.193  1.00  0.00    -0.136 C  
HETATM   14  O   UNL     1     -11.586  10.804  69.238  1.00  0.00    -0.269 OA 
BRANCH  13  15
HETATM   15  N   UNL     1      -9.313  11.002  69.409  1.00  0.00    -0.403 N  
HETATM   16  H   UNL     1      -8.528  11.645  69.515  1.00  0.00     0.000 HD 
BRANCH  15  17
HETATM   17  C   UNL     1      -9.097   9.588  69.486  1.00  0.00    -0.185 C  
BRANCH  17  18
HETATM   18  N   UNL     1      -7.948   9.171  68.724  1.00  0.00    -0.099 N  
HETATM   19  H   UNL     1      -7.196   9.831  68.524  1.00  0.00     0.000 HD 
BRANCH  18  20
HETATM   20  C   UNL     1      -7.873   7.880  68.271  1.00  0.00    -0.120 C  
HETATM   21  O   UNL     1      -7.935   6.898  68.998  1.00  0.00    -0.112 OA 
BRANCH  20  22
HETATM   22  N   UNL     1      -7.734   7.810  66.905  1.00  0.00    -0.101 N  
HETATM   23  H   UNL     1      -6.979   8.291  66.415  1.00  0.00     0.000 HD 
BRANCH  22  24
HETATM   24  C   UNL     1      -8.711   7.019  66.207  1.00  0.00    -0.146 C  
HETATM   25  N   UNL     1      -8.564   5.588  66.302  1.00  0.00    -0.121 N  
HETATM   26  O   UNL     1     -10.694   8.096  67.265  1.00  0.00    -0.298 OA 
HETATM   27  C   UNL     1      -9.793   4.963  66.365  1.00  0.00    -0.209 C  
HETATM   28  N   UNL     1     -10.741   5.904  66.604  1.00  0.00    -0.286 NA 
HETATM   29  O   UNL     1     -10.006   3.766  66.274  1.00  0.00    -0.123 OA 
HETATM   30  C   UNL     1     -10.150   7.121  66.769  1.00  0.00    -0.208 C  
BRANCH  25  31
HETATM   31  C   UNL     1      -7.335   4.900  66.060  1.00  0.00    -0.078 C  
HETATM   32  H   UNL     1      -5.788   4.392  67.102  1.00  0.00     0.000 HD 
HETATM   33  O   UNL     1      -6.605   4.849  67.262  1.00  0.00    -0.047 OA 
ENDBRANCH  25  31
ENDBRANCH  22  24
ENDBRANCH  20  22
ENDBRANCH  18  20
ENDBRANCH  17  18
ENDBRANCH  15  17
ENDBRANCH  13  15
ENDBRANCH  11  13
ENDBRANCH   5  11
ENDBRANCH   2   4
TORSDOF 10
ENDMDL
MODEL      398
REMARK 921   NORMALIZED FREE ENERGY PREDICTED BY IDOCK:   -3.48 KCAL/MOL
REMARK 922        TOTAL FREE ENERGY PREDICTED BY IDOCK:   -7.52 KCAL/MOL
REMARK 923 INTER-LIGAND FREE ENERGY PREDICTED BY IDOCK:   -6.57 KCAL/MOL
REMARK 924 INTRA-LIGAND FREE ENERGY PREDICTED BY IDOCK:   -0.95 KCAL/MOL
REMARK 927      BINDING AFFINITY PREDICTED BY RF-SCORE:    0.00 PKD
ROOT
HETATM    1  O   UNL     1     -11.463  13.528  63.488  1.00  0.00    -0.613 OA 
HETATM    2  C   UNL     1     -12.302  13.794  64.586  1.00  0.00    -0.372 C  
HETATM    3  H   UNL     1     -11.992  13.216  62.764  1.00  0.00     0.000 HD 
ENDROOT
BRANCH   2   4
HETATM    4  N   UNL     1     -11.504  14.265  65.678  1.00  0.00    -0.323 N  
HETATM    5  C   UNL     1     -11.856  13.929  67.043  1.00  0.00    -0.415 C  
HETATM    6  O   UNL     1     -10.742  16.162  64.571  1.00  0.00    -0.586 OA 
HETATM    7  C   UNL     1     -11.544  15.280  67.726  1.00  0.00    -0.265 C  
HETATM    8  N   UNL     1     -10.860  16.054  66.840  1.00  0.00    -0.258 NA 
HETATM    9  O   UNL     1     -11.783  15.609  68.878  1.00  0.00    -0.364 OA 
HETATM   10  C   UNL     1     -10.973  15.540  65.596  1.00  0.00    -0.303 C  
BRANCH   5  11
HETATM   11  N   UNL     1     -10.987  12.905  67.568  1.00  0.00    -0.249 N  
HETATM   12  H   UNL     1     -10.080  13.165  67.954  1.00  0.00     0.000 HD 
BRANCH  11  13
HETATM   13  C   UNL     1     -11.362  11.593  67.556  1.00  0.00    -0.298 C  
HETATM   14  O   UNL     1     -12.254  11.135  68.257  1.00  0.00    -0.613 OA 
BRANCH  13  15
HETATM   15  N   UNL     1     -10.683  10.865  66.614  1.00  0.00    -0.251 N  
HETATM   16  H   UNL     1     -11.198  10.335  65.912  1.00  0.00     0.000 HD 
BRANCH  15  17
HETATM   17  C   UNL     1      -9.251  10.850  66.618  1.00  0.00    -0.168 C  
BRANCH  17  18
HETATM   18  N   UNL     1      -8.722   9.527  66.820  1.00  0.00    -0.127 N  
HETATM   19  H   UNL     1      -7.880   9.228  66.327  1.00  0.00     0.000 HD 
BRANCH  18  20
HETATM   20  C   UNL     1      -9.359   8.671  67.680  1.00  0.00    -0.137 C  
HETATM   21  O   UNL     1      -9.795   9.004  68.774  1.00  0.00    -0.163 OA 
BRANCH  20  22
HETATM   22  N   UNL     1      -9.465   7.397  67.173  1.00  0.00    -0.142 N  
HETATM   23  H   UNL     1      -9.971   7.202  66.310  1.00  0.00     0.000 HD 
BRANCH  22  24
HETATM   24  C   UNL     1      -8.821   6.358  67.929  1.00  0.00    -0.113 C  
HETATM   25  N   UNL     1      -7.492   6.645  68.412  1.00  0.00    -0.093 N  
HETATM   26  O   UNL     1     -10.666   6.080  69.580  1.00  0.00    -0.265 OA 
HETATM   27  C   UNL     1      -7.285   6.093  69.659  1.00  0.00    -0.074 C  
HETATM   28  N   UNL     1      -8.483   5.698  70.159  1.00  0.00    -0.117 NA 
HETATM   29  O   UNL     1      -6.221   6.009  70.250  1.00  0.00    -0.029 OA 
HETATM   30  C   UNL     1      -9.479   6.045  69.295  1.00  0.00    -0.132 C  
BRANCH  25  31
HETATM   31  C   UNL     1      -6.447   7.166  67.590  1.00  0.00    -0.048 C  
HETATM   32  H   UNL     1      -5.390   8.784  67.528  1.00  0.00     0.000 HD 
HETATM   33  O   UNL     1      -6.085   8.437  68.075  1.00  0.00    -0.048 OA 
ENDBRANCH  25  31
ENDBRANCH  22  24
ENDBRANCH  20  22
ENDBRANCH  18  20
ENDBRANCH  17  18
ENDBRANCH  15  17
ENDBRANCH  13  15
ENDBRANCH  11  13
ENDBRANCH   5  11
ENDBRANCH   2   4
TORSDOF 10
ENDMDL
MODEL      399
REMARK 921   NORMALIZED FREE ENERGY PREDICTED BY IDOCK:   -3.48 KCAL/MOL
REMARK 922        TOTAL FREE ENERGY PREDICTED BY IDOCK:   -7.52 KCAL/MOL
REMARK 923 INTER-LIGAND FREE ENERGY PREDICTED BY IDOCK:   -6.19 KCAL/MOL
REMARK 924 INTRA-LIGAND FREE ENERGY PREDICTED BY IDOCK:   -1.33 KCAL/MOL
REMARK 927      BINDING AFFINITY PREDICTED BY RF-SCORE:    0.00 PKD
ROOT
HETATM    1  O   UNL     1     -10.122   5.340  67.950  1.00  0.00    -0.160 OA 
HETATM    2  C   UNL     1     -11.205   6.238  67.904  1.00  0.00    -0.106 C  
HETATM    3  H   UNL     1     -10.326   4.583  67.414  1.00  0.00     0.000 HD 
ENDROOT
BRANCH   2   4
HETATM    4  N   UNL     1     -10.898   7.379  68.713  1.00  0.00    -0.106 N  
HETATM    5  C   UNL     1      -9.873   8.317  68.302  1.00  0.00    -0.172 C  
HETATM    6  O   UNL     1     -11.548   6.391  70.714  1.00  0.00    -0.344 OA 
HETATM    7  C   UNL     1      -9.220   8.597  69.674  1.00  0.00    -0.157 C  
HETATM    8  N   UNL     1     -10.026   8.079  70.641  1.00  0.00    -0.189 NA 
HETATM    9  O   UNL     1      -8.202   9.233  69.902  1.00  0.00    -0.115 OA 
HETATM   10  C   UNL     1     -10.918   7.228  70.088  1.00  0.00    -0.260 C  
BRANCH   5  11
HETATM   11  N   UNL     1     -10.455   9.529  67.782  1.00  0.00    -0.240 N  
HETATM   12  H   UNL     1     -10.957  10.156  68.410  1.00  0.00     0.000 HD 
BRANCH  11  13
HETATM   13  C   UNL     1     -10.342   9.851  66.460  1.00  0.00    -0.188 C  
HETATM   14  O   UNL     1     -10.049   9.044  65.588  1.00  0.00    -0.082 OA 
BRANCH  13  15
HETATM   15  N   UNL     1     -10.672  11.157  66.210  1.00  0.00    -0.261 N  
HETATM   16  H   UNL     1     -10.711  11.498  65.250  1.00  0.00     0.000 HD 
BRANCH  15  17
HETATM   17  C   UNL     1     -10.962  12.041  67.299  1.00  0.00    -0.262 C  
BRANCH  17  18
HETATM   18  N   UNL     1     -10.656  13.412  66.982  1.00  0.00    -0.263 N  
HETATM   19  H   UNL     1     -11.398  14.111  66.949  1.00  0.00     0.000 HD 
BRANCH  18  20
HETATM   20  C   UNL     1      -9.358  13.770  66.726  1.00  0.00    -0.266 C  
HETATM   21  O   UNL     1      -8.420  12.984  66.735  1.00  0.00    -0.129 OA 
BRANCH  20  22
HETATM   22  N   UNL     1      -9.228  15.110  66.444  1.00  0.00    -0.285 N  
HETATM   23  H   UNL     1      -9.395  15.482  65.510  1.00  0.00     0.000 HD 
BRANCH  22  24
HETATM   24  C   UNL     1      -8.843  15.954  67.542  1.00  0.00    -0.189 C  
HETATM   25  N   UNL     1      -8.134  17.163  67.203  1.00  0.00    -0.185 N  
HETATM   26  O   UNL     1     -11.128  16.135  68.522  1.00  0.00    -0.322 OA 
HETATM   27  C   UNL     1      -8.497  18.205  68.033  1.00  0.00    -0.262 C  
HETATM   28  N   UNL     1      -9.609  17.839  68.719  1.00  0.00    -0.309 NA 
HETATM   29  O   UNL     1      -7.954  19.293  68.114  1.00  0.00    -0.285 OA 
HETATM   30  C   UNL     1     -10.022  16.607  68.303  1.00  0.00    -0.261 C  
BRANCH  25  31
HETATM   31  C   UNL     1      -7.002  17.200  66.332  1.00  0.00    -0.261 C  
HETATM   32  H   UNL     1      -6.475  18.199  64.763  1.00  0.00     0.000 HD 
HETATM   33  O   UNL     1      -7.227  18.174  65.342  1.00  0.00    -0.529 OA 
ENDBRANCH  25  31
ENDBRANCH  22  24
ENDBRANCH  20  22
ENDBRANCH  18  20
ENDBRANCH  17  18
ENDBRANCH  15  17
ENDBRANCH  13  15
ENDBRANCH  11  13
ENDBRANCH   5  11
ENDBRANCH   2   4
TORSDOF 10
ENDMDL
MODEL      400
REMARK 921   NORMALIZED FREE ENERGY PREDICTED BY IDOCK:   -3.48 KCAL/MOL
REMARK 922        TOTAL FREE ENERGY PREDICTED BY IDOCK:   -7.51 KCAL/MOL
REMARK 923 INTER-LIGAND FREE ENERGY PREDICTED BY IDOCK:   -5.30 KCAL/MOL
REMARK 924 INTRA-LIGAND FREE ENERGY PREDICTED BY IDOCK:   -2.21 KCAL/MOL
REMARK 927      BINDING AFFINITY PREDICTED BY RF-SCORE:    0.00 PKD
ROOT
HETATM    1  O   UNL     1      -9.579   9.281  68.740  1.00  0.00    -0.151 OA 
HETATM    2  C   UNL     1      -9.644  10.583  69.269  1.00  0.00    -0.181 C  
HETATM    3  H   UNL     1      -9.297   8.684  69.422  1.00  0.00     0.000 HD 
ENDROOT
BRANCH   2   4
HETATM    4  N   UNL     1     -10.069  11.484  68.240  1.00  0.00    -0.193 N  
HETATM    5  C   UNL     1      -9.340  12.711  67.991  1.00  0.00    -0.209 C  
HETATM    6  O   UNL     1     -12.308  10.865  68.338  1.00  0.00    -0.477 OA 
HETATM    7  C   UNL     1     -10.529  13.665  67.732  1.00  0.00    -0.240 C  
HETATM    8  N   UNL     1     -11.653  12.912  67.592  1.00  0.00    -0.334 NA 
HETATM    9  O   UNL     1     -10.498  14.878  67.594  1.00  0.00    -0.245 OA 
HETATM   10  C   UNL     1     -11.428  11.659  68.047  1.00  0.00    -0.315 C  
BRANCH   5  11
HETATM   11  N   UNL     1      -8.532  12.606  66.802  1.00  0.00    -0.384 N  
HETATM   12  H   UNL     1      -8.262  13.451  66.301  1.00  0.00     0.000 HD 
BRANCH  11  13
HETATM   13  C   UNL     1      -8.122  11.389  66.338  1.00  0.00    -0.106 C  
HETATM   14  O   UNL     1      -7.374  10.643  66.956  1.00  0.00    -0.094 OA 
BRANCH  13  15
HETATM   15  N   UNL     1      -8.707  11.062  65.143  1.00  0.00    -0.353 N  
HETATM   16  H   UNL     1      -8.391  11.507  64.282  1.00  0.00     0.000 HD 
BRANCH  15  17
HETATM   17  C   UNL     1      -9.764  10.096  65.105  1.00  0.00    -0.304 C  
BRANCH  17  18
HETATM   18  N   UNL     1      -9.352   8.819  65.626  1.00  0.00    -0.401 N  
HETATM   19  H   UNL     1      -9.839   8.406  66.422  1.00  0.00     0.000 HD 
BRANCH  18  20
HETATM   20  C   UNL     1      -8.301   8.161  65.043  1.00  0.00    -0.136 C  
HETATM   21  O   UNL     1      -8.051   8.201  63.846  1.00  0.00    -0.154 OA 
BRANCH  20  22
HETATM   22  N   UNL     1      -7.547   7.461  65.956  1.00  0.00    -0.085 N  
HETATM   23  H   UNL     1      -6.548   7.631  66.073  1.00  0.00     0.000 HD 
BRANCH  22  24
HETATM   24  C   UNL     1      -8.247   6.477  66.735  1.00  0.00    -0.110 C  
HETATM   25  N   UNL     1      -8.094   5.104  66.320  1.00  0.00    -0.108 N  
HETATM   26  O   UNL     1      -7.299   7.183  68.929  1.00  0.00    -0.088 OA 
HETATM   27  C   UNL     1      -8.049   4.256  67.409  1.00  0.00    -0.099 C  
HETATM   28  N   UNL     1      -7.878   5.003  68.528  1.00  0.00    -0.082 NA 
HETATM   29  O   UNL     1      -8.103   3.038  67.384  1.00  0.00    -0.076 OA 
HETATM   30  C   UNL     1      -7.739   6.316  68.188  1.00  0.00    -0.104 C  
BRANCH  25  31
HETATM   31  C   UNL     1      -8.268   4.659  64.974  1.00  0.00    -0.115 C  
HETATM   32  H   UNL     1      -9.741   4.048  63.881  1.00  0.00     0.000 HD 
HETATM   33  O   UNL     1      -9.625   4.344  64.777  1.00  0.00    -0.161 OA 
ENDBRANCH  25  31
ENDBRANCH  22  24
ENDBRANCH  20  22
ENDBRANCH  18  20
ENDBRANCH  17  18
ENDBRANCH  15  17
ENDBRANCH  13  15
ENDBRANCH  11  13
ENDBRANCH   5  11
ENDBRANCH   2   4
TORSDOF 10
ENDMDL
MODEL      401
REMARK 921   NORMALIZED FREE ENERGY PREDICTED BY IDOCK:   -3.46 KCAL/MOL
REMARK 922        TOTAL FREE ENERGY PREDICTED BY IDOCK:   -7.48 KCAL/MOL
REMARK 923 INTER-LIGAND FREE ENERGY PREDICTED BY IDOCK:   -5.70 KCAL/MOL
REMARK 924 INTRA-LIGAND FREE ENERGY PREDICTED BY IDOCK:   -1.79 KCAL/MOL
REMARK 927      BINDING AFFINITY PREDICTED BY RF-SCORE:    0.00 PKD
ROOT
HETATM    1  O   UNL     1     -10.094   3.856  66.927  1.00  0.00    -0.314 OA 
HETATM    2  C   UNL     1     -10.473   5.116  66.426  1.00  0.00    -0.303 C  
HETATM    3  H   UNL     1     -10.534   3.180  66.426  1.00  0.00     0.000 HD 
ENDROOT
BRANCH   2   4
HETATM    4  N   UNL     1      -9.809   6.136  67.181  1.00  0.00    -0.132 N  
HETATM    5  C   UNL     1      -8.410   6.429  66.949  1.00  0.00    -0.110 C  
HETATM    6  O   UNL     1     -11.184   5.937  69.045  1.00  0.00    -0.315 OA 
HETATM    7  C   UNL     1      -7.950   6.649  68.408  1.00  0.00    -0.111 C  
HETATM    8  N   UNL     1      -9.059   6.733  69.193  1.00  0.00    -0.139 NA 
HETATM    9  O   UNL     1      -6.810   6.802  68.819  1.00  0.00    -0.061 OA 
HETATM   10  C   UNL     1     -10.136   6.274  68.519  1.00  0.00    -0.157 C  
BRANCH   5  11
HETATM   11  N   UNL     1      -8.250   7.650  66.199  1.00  0.00    -0.117 N  
HETATM   12  H   UNL     1      -8.143   8.534  66.694  1.00  0.00     0.000 HD 
BRANCH  11  13
HETATM   13  C   UNL     1      -8.240   7.638  64.834  1.00  0.00    -0.095 C  
HETATM   14  O   UNL     1      -7.926   6.663  64.165  1.00  0.00    -0.118 OA 
BRANCH  13  15
HETATM   15  N   UNL     1      -8.699   8.813  64.299  1.00  0.00    -0.402 N  
HETATM   16  H   UNL     1      -8.525   9.029  63.317  1.00  0.00     0.000 HD 
BRANCH  15  17
HETATM   17  C   UNL     1      -9.423   9.738  65.119  1.00  0.00    -0.273 C  
BRANCH  17  18
HETATM   18  N   UNL     1      -8.761  11.013  65.214  1.00  0.00    -0.341 N  
HETATM   19  H   UNL     1      -8.997  11.765  64.566  1.00  0.00     0.000 HD 
BRANCH  18  20
HETATM   20  C   UNL     1      -7.812  11.209  66.183  1.00  0.00    -0.072 C  
HETATM   21  O   UNL     1      -6.838  10.484  66.339  1.00  0.00    -0.103 OA 
BRANCH  20  22
HETATM   22  N   UNL     1      -8.067  12.318  66.953  1.00  0.00    -0.334 N  
HETATM   23  H   UNL     1      -7.621  13.217  66.768  1.00  0.00     0.000 HD 
BRANCH  22  24
HETATM   24  C   UNL     1      -8.998  12.140  68.034  1.00  0.00    -0.189 C  
HETATM   25  N   UNL     1     -10.397  12.153  67.684  1.00  0.00    -0.201 N  
HETATM   26  O   UNL     1      -7.990  10.021  68.875  1.00  0.00    -0.089 OA 
HETATM   27  C   UNL     1     -11.111  11.252  68.448  1.00  0.00    -0.240 C  
HETATM   28  N   UNL     1     -10.232  10.439  69.085  1.00  0.00    -0.210 NA 
HETATM   29  O   UNL     1     -12.325  11.155  68.514  1.00  0.00    -0.561 OA 
HETATM   30  C   UNL     1      -8.960  10.742  68.699  1.00  0.00    -0.162 C  
BRANCH  25  31
HETATM   31  C   UNL     1     -11.002  13.166  66.878  1.00  0.00    -0.276 C  
HETATM   32  H   UNL     1     -11.338  13.439  64.994  1.00  0.00     0.000 HD 
HETATM   33  O   UNL     1     -10.936  12.766  65.531  1.00  0.00    -0.273 OA 
ENDBRANCH  25  31
ENDBRANCH  22  24
ENDBRANCH  20  22
ENDBRANCH  18  20
ENDBRANCH  17  18
ENDBRANCH  15  17
ENDBRANCH  13  15
ENDBRANCH  11  13
ENDBRANCH   5  11
ENDBRANCH   2   4
TORSDOF 10
ENDMDL
MODEL      402
REMARK 921   NORMALIZED FREE ENERGY PREDICTED BY IDOCK:   -3.46 KCAL/MOL
REMARK 922        TOTAL FREE ENERGY PREDICTED BY IDOCK:   -7.47 KCAL/MOL
REMARK 923 INTER-LIGAND FREE ENERGY PREDICTED BY IDOCK:   -5.84 KCAL/MOL
REMARK 924 INTRA-LIGAND FREE ENERGY PREDICTED BY IDOCK:   -1.64 KCAL/MOL
REMARK 927      BINDING AFFINITY PREDICTED BY RF-SCORE:    0.00 PKD
ROOT
HETATM    1  O   UNL     1     -10.342   5.632  69.076  1.00  0.00    -0.202 OA 
HETATM    2  C   UNL     1     -10.597   5.073  70.343  1.00  0.00    -0.072 C  
HETATM    3  H   UNL     1     -10.249   4.930  68.443  1.00  0.00     0.000 HD 
ENDROOT
BRANCH   2   4
HETATM    4  N   UNL     1     -10.737   6.131  71.299  1.00  0.00    -0.246 N  
HETATM    5  C   UNL     1     -10.791   7.512  70.863  1.00  0.00    -0.240 C  
HETATM    6  O   UNL     1      -9.723   4.970  73.038  1.00  0.00    -0.144 OA 
HETATM    7  C   UNL     1      -9.936   8.163  71.974  1.00  0.00    -0.233 C  
HETATM    8  N   UNL     1      -9.752   7.243  72.960  1.00  0.00    -0.169 NA 
HETATM    9  O   UNL     1      -9.540   9.317  72.035  1.00  0.00    -0.235 OA 
HETATM   10  C   UNL     1     -10.072   6.011  72.506  1.00  0.00    -0.178 C  
BRANCH   5  11
HETATM   11  N   UNL     1     -12.137   8.024  70.920  1.00  0.00    -0.469 N  
HETATM   12  H   UNL     1     -12.800   7.780  70.185  1.00  0.00     0.000 HD 
BRANCH  11  13
HETATM   13  C   UNL     1     -12.537   8.832  71.945  1.00  0.00    -0.371 C  
HETATM   14  O   UNL     1     -12.846   8.419  73.055  1.00  0.00    -0.147 OA 
BRANCH  13  15
HETATM   15  N   UNL     1     -12.476  10.161  71.617  1.00  0.00    -0.408 N  
HETATM   16  H   UNL     1     -12.384  10.864  72.350  1.00  0.00     0.000 HD 
BRANCH  15  17
HETATM   17  C   UNL     1     -12.541  10.562  70.243  1.00  0.00    -0.235 C  
BRANCH  17  18
HETATM   18  N   UNL     1     -11.273  11.035  69.753  1.00  0.00    -0.324 N  
HETATM   19  H   UNL     1     -10.468  11.088  70.378  1.00  0.00     0.000 HD 
BRANCH  18  20
HETATM   20  C   UNL     1     -11.156  11.413  68.442  1.00  0.00    -0.242 C  
HETATM   21  O   UNL     1     -12.014  12.038  67.834  1.00  0.00    -0.526 OA 
BRANCH  20  22
HETATM   22  N   UNL     1      -9.960  11.022  67.886  1.00  0.00    -0.171 N  
HETATM   23  H   UNL     1      -9.523  11.543  67.126  1.00  0.00     0.000 HD 
BRANCH  22  24
HETATM   24  C   UNL     1      -9.361   9.838  68.439  1.00  0.00    -0.133 C  
HETATM   25  N   UNL     1      -8.981   8.813  67.498  1.00  0.00    -0.134 N  
HETATM   26  O   UNL     1      -7.574  11.034  69.698  1.00  0.00    -0.064 OA 
HETATM   27  C   UNL     1      -7.811   8.190  67.883  1.00  0.00    -0.122 C  
HETATM   28  N   UNL     1      -7.238   8.926  68.868  1.00  0.00    -0.072 NA 
HETATM   29  O   UNL     1      -7.332   7.179  67.399  1.00  0.00    -0.087 OA 
HETATM   30  C   UNL     1      -7.972  10.054  69.086  1.00  0.00    -0.116 C  
BRANCH  25  31
HETATM   31  C   UNL     1      -9.849   8.312  66.480  1.00  0.00    -0.253 C  
HETATM   32  H   UNL     1     -11.575   7.442  66.416  1.00  0.00     0.000 HD 
HETATM   33  O   UNL     1     -10.997   7.776  67.092  1.00  0.00    -0.245 OA 
ENDBRANCH  25  31
ENDBRANCH  22  24
ENDBRANCH  20  22
ENDBRANCH  18  20
ENDBRANCH  17  18
ENDBRANCH  15  17
ENDBRANCH  13  15
ENDBRANCH  11  13
ENDBRANCH   5  11
ENDBRANCH   2   4
TORSDOF 10
ENDMDL
MODEL      403
REMARK 921   NORMALIZED FREE ENERGY PREDICTED BY IDOCK:   -3.45 KCAL/MOL
REMARK 922        TOTAL FREE ENERGY PREDICTED BY IDOCK:   -7.46 KCAL/MOL
REMARK 923 INTER-LIGAND FREE ENERGY PREDICTED BY IDOCK:   -5.76 KCAL/MOL
REMARK 924 INTRA-LIGAND FREE ENERGY PREDICTED BY IDOCK:   -1.70 KCAL/MOL
REMARK 927      BINDING AFFINITY PREDICTED BY RF-SCORE:    0.00 PKD
ROOT
HETATM    1  O   UNL     1      -7.998   5.044  68.591  1.00  0.00    -0.084 OA 
HETATM    2  C   UNL     1      -7.574   5.992  69.540  1.00  0.00    -0.093 C  
HETATM    3  H   UNL     1      -7.550   5.207  67.770  1.00  0.00     0.000 HD 
ENDROOT
BRANCH   2   4
HETATM    4  N   UNL     1      -8.250   5.747  70.779  1.00  0.00    -0.121 N  
HETATM    5  C   UNL     1      -8.678   6.851  71.613  1.00  0.00    -0.124 C  
HETATM    6  O   UNL     1      -7.273   3.668  71.136  1.00  0.00    -0.032 OA 
HETATM    7  C   UNL     1      -8.334   6.269  73.002  1.00  0.00    -0.117 C  
HETATM    8  N   UNL     1      -8.051   4.947  72.849  1.00  0.00    -0.101 NA 
HETATM    9  O   UNL     1      -8.370   6.838  74.082  1.00  0.00    -0.125 OA 
HETATM   10  C   UNL     1      -7.839   4.669  71.544  1.00  0.00    -0.099 C  
BRANCH   5  11
HETATM   11  N   UNL     1     -10.101   7.060  71.511  1.00  0.00    -0.188 N  
HETATM   12  H   UNL     1     -10.706   6.785  72.284  1.00  0.00     0.000 HD 
BRANCH  11  13
HETATM   13  C   UNL     1     -10.650   7.620  70.393  1.00  0.00    -0.230 C  
HETATM   14  O   UNL     1     -11.760   7.335  69.966  1.00  0.00    -0.127 OA 
BRANCH  13  15
HETATM   15  N   UNL     1      -9.852   8.593  69.852  1.00  0.00    -0.180 N  
HETATM   16  H   UNL     1      -8.960   8.343  69.426  1.00  0.00     0.000 HD 
BRANCH  15  17
HETATM   17  C   UNL     1     -10.272   9.963  69.886  1.00  0.00    -0.257 C  
BRANCH  17  18
HETATM   18  N   UNL     1     -11.351  10.223  68.970  1.00  0.00    -0.399 N  
HETATM   19  H   UNL     1     -12.021   9.489  68.741  1.00  0.00     0.000 HD 
BRANCH  18  20
HETATM   20  C   UNL     1     -11.471  11.467  68.407  1.00  0.00    -0.299 C  
HETATM   21  O   UNL     1     -11.208  12.508  68.993  1.00  0.00    -0.252 OA 
BRANCH  20  22
HETATM   22  N   UNL     1     -11.908  11.414  67.104  1.00  0.00     0.020 N  
HETATM   23  H   UNL     1     -12.815  11.020  66.855  1.00  0.00     0.000 HD 
BRANCH  22  24
HETATM   24  C   UNL     1     -11.013  11.947  66.113  1.00  0.00    -0.308 C  
HETATM   25  N   UNL     1     -10.181  10.993  65.421  1.00  0.00    -0.262 N  
HETATM   26  O   UNL     1     -12.768  13.164  64.830  1.00  0.00    -0.648 OA 
HETATM   27  C   UNL     1     -10.012  11.346  64.097  1.00  0.00    -0.290 C  
HETATM   28  N   UNL     1     -10.908  12.319  63.795  1.00  0.00    -0.402 NA 
HETATM   29  O   UNL     1      -9.231  10.846  63.306  1.00  0.00    -0.233 OA 
HETATM   30  C   UNL     1     -11.708  12.560  64.873  1.00  0.00    -0.359 C  
BRANCH  25  31
HETATM   31  C   UNL     1      -9.402   9.996  66.083  1.00  0.00    -0.173 C  
HETATM   32  H   UNL     1      -9.747   8.327  66.996  1.00  0.00     0.000 HD 
HETATM   33  O   UNL     1     -10.266   8.990  66.555  1.00  0.00    -0.278 OA 
ENDBRANCH  25  31
ENDBRANCH  22  24
ENDBRANCH  20  22
ENDBRANCH  18  20
ENDBRANCH  17  18
ENDBRANCH  15  17
ENDBRANCH  13  15
ENDBRANCH  11  13
ENDBRANCH   5  11
ENDBRANCH   2   4
TORSDOF 10
ENDMDL
MODEL      404
REMARK 921   NORMALIZED FREE ENERGY PREDICTED BY IDOCK:   -3.42 KCAL/MOL
REMARK 922        TOTAL FREE ENERGY PREDICTED BY IDOCK:   -7.42 KCAL/MOL
REMARK 923 INTER-LIGAND FREE ENERGY PREDICTED BY IDOCK:   -5.48 KCAL/MOL
REMARK 924 INTRA-LIGAND FREE ENERGY PREDICTED BY IDOCK:   -1.93 KCAL/MOL
REMARK 927      BINDING AFFINITY PREDICTED BY RF-SCORE:    0.00 PKD
ROOT
HETATM    1  O   UNL     1      -8.189   5.176  68.745  1.00  0.00    -0.085 OA 
HETATM    2  C   UNL     1      -7.780   6.178  69.643  1.00  0.00    -0.098 C  
HETATM    3  H   UNL     1      -7.966   5.443  67.861  1.00  0.00     0.000 HD 
ENDROOT
BRANCH   2   4
HETATM    4  N   UNL     1      -8.116   5.775  70.976  1.00  0.00    -0.118 N  
HETATM    5  C   UNL     1      -8.622   6.740  71.930  1.00  0.00    -0.120 C  
HETATM    6  O   UNL     1      -6.617   3.999  71.035  1.00  0.00    -0.029 OA 
HETATM    7  C   UNL     1      -7.877   6.260  73.196  1.00  0.00    -0.106 C  
HETATM    8  N   UNL     1      -7.321   5.048  72.927  1.00  0.00    -0.088 NA 
HETATM    9  O   UNL     1      -7.833   6.804  74.290  1.00  0.00    -0.106 OA 
HETATM   10  C   UNL     1      -7.314   4.831  71.593  1.00  0.00    -0.070 C  
BRANCH   5  11
HETATM   11  N   UNL     1     -10.044   6.594  72.116  1.00  0.00    -0.179 N  
HETATM   12  H   UNL     1     -10.394   5.983  72.853  1.00  0.00     0.000 HD 
BRANCH  11  13
HETATM   13  C   UNL     1     -10.928   7.261  71.319  1.00  0.00    -0.243 C  
HETATM   14  O   UNL     1     -11.255   6.883  70.202  1.00  0.00    -0.282 OA 
BRANCH  13  15
HETATM   15  N   UNL     1     -11.469   8.355  71.941  1.00  0.00    -0.295 N  
HETATM   16  H   UNL     1     -10.875   8.974  72.493  1.00  0.00     0.000 HD 
BRANCH  15  17
HETATM   17  C   UNL     1     -12.870   8.629  71.817  1.00  0.00    -0.359 C  
BRANCH  17  18
HETATM   18  N   UNL     1     -13.171   9.395  70.637  1.00  0.00    -0.478 N  
HETATM   19  H   UNL     1     -13.605   8.947  69.829  1.00  0.00     0.000 HD 
BRANCH  18  20
HETATM   20  C   UNL     1     -12.871  10.732  70.606  1.00  0.00    -0.293 C  
HETATM   21  O   UNL     1     -12.981  11.477  71.570  1.00  0.00    -0.431 OA 
BRANCH  20  22
HETATM   22  N   UNL     1     -12.420  11.142  69.374  1.00  0.00    -0.256 N  
HETATM   23  H   UNL     1     -12.983  11.034  68.530  1.00  0.00     0.000 HD 
BRANCH  22  24
HETATM   24  C   UNL     1     -11.108  11.730  69.342  1.00  0.00    -0.181 C  
HETATM   25  N   UNL     1     -10.175  11.166  68.398  1.00  0.00    -0.181 N  
HETATM   26  O   UNL     1     -11.900  14.068  68.998  1.00  0.00    -0.312 OA 
HETATM   27  C   UNL     1      -9.367  12.142  67.851  1.00  0.00    -0.192 C  
HETATM   28  N   UNL     1      -9.892  13.355  68.158  1.00  0.00    -0.229 NA 
HETATM   29  O   UNL     1      -8.376  11.965  67.164  1.00  0.00    -0.161 OA 
HETATM   30  C   UNL     1     -11.065  13.192  68.834  1.00  0.00    -0.266 C  
BRANCH  25  31
HETATM   31  C   UNL     1      -9.922   9.766  68.275  1.00  0.00    -0.153 C  
HETATM   32  H   UNL     1     -10.859   8.232  67.563  1.00  0.00     0.000 HD 
HETATM   33  O   UNL     1     -11.027   9.163  67.644  1.00  0.00    -0.173 OA 
ENDBRANCH  25  31
ENDBRANCH  22  24
ENDBRANCH  20  22
ENDBRANCH  18  20
ENDBRANCH  17  18
ENDBRANCH  15  17
ENDBRANCH  13  15
ENDBRANCH  11  13
ENDBRANCH   5  11
ENDBRANCH   2   4
TORSDOF 10
ENDMDL
MODEL      405
REMARK 921   NORMALIZED FREE ENERGY PREDICTED BY IDOCK:   -3.42 KCAL/MOL
REMARK 922        TOTAL FREE ENERGY PREDICTED BY IDOCK:   -7.41 KCAL/MOL
REMARK 923 INTER-LIGAND FREE ENERGY PREDICTED BY IDOCK:   -6.39 KCAL/MOL
REMARK 924 INTRA-LIGAND FREE ENERGY PREDICTED BY IDOCK:   -1.02 KCAL/MOL
REMARK 927      BINDING AFFINITY PREDICTED BY RF-SCORE:    0.00 PKD
ROOT
HETATM    1  O   UNL     1     -10.931  13.572  66.192  1.00  0.00    -0.284 OA 
HETATM    2  C   UNL     1     -10.415  12.531  65.398  1.00  0.00    -0.282 C  
HETATM    3  H   UNL     1     -11.381  14.193  65.633  1.00  0.00     0.000 HD 
ENDROOT
BRANCH   2   4
HETATM    4  N   UNL     1      -9.736  11.594  66.242  1.00  0.00    -0.212 N  
HETATM    5  C   UNL     1      -8.830  12.057  67.274  1.00  0.00    -0.183 C  
HETATM    6  O   UNL     1      -9.745   9.871  64.682  1.00  0.00    -0.303 OA 
HETATM    7  C   UNL     1      -7.718  10.994  67.131  1.00  0.00    -0.131 C  
HETATM    8  N   UNL     1      -8.184   9.997  66.332  1.00  0.00    -0.118 NA 
HETATM    9  O   UNL     1      -6.626  10.974  67.681  1.00  0.00    -0.062 OA 
HETATM   10  C   UNL     1      -9.292  10.411  65.678  1.00  0.00    -0.198 C  
BRANCH   5  11
HETATM   11  N   UNL     1      -9.434  11.958  68.580  1.00  0.00    -0.312 N  
HETATM   12  H   UNL     1      -9.007  12.441  69.369  1.00  0.00     0.000 HD 
BRANCH  11  13
HETATM   13  C   UNL     1     -10.570  11.226  68.774  1.00  0.00    -0.203 C  
HETATM   14  O   UNL     1     -10.574  10.020  68.980  1.00  0.00    -0.195 OA 
BRANCH  13  15
HETATM   15  N   UNL     1     -11.696  12.006  68.792  1.00  0.00    -0.304 N  
HETATM   16  H   UNL     1     -12.485  11.777  68.188  1.00  0.00     0.000 HD 
BRANCH  15  17
HETATM   17  C   UNL     1     -11.764  13.143  69.660  1.00  0.00    -0.303 C  
BRANCH  17  18
HETATM   18  N   UNL     1     -11.961  14.370  68.934  1.00  0.00    -0.438 N  
HETATM   19  H   UNL     1     -12.032  14.361  67.916  1.00  0.00     0.000 HD 
BRANCH  18  20
HETATM   20  C   UNL     1     -12.053  15.552  69.621  1.00  0.00    -0.328 C  
HETATM   21  O   UNL     1     -13.109  16.042  69.997  1.00  0.00     0.014 OA 
BRANCH  20  22
HETATM   22  N   UNL     1     -10.823  16.122  69.854  1.00  0.00    -0.338 N  
HETATM   23  H   UNL     1     -10.540  16.433  70.783  1.00  0.00     0.000 HD 
BRANCH  22  24
HETATM   24  C   UNL     1      -9.959  16.255  68.713  1.00  0.00    -0.237 C  
HETATM   25  N   UNL     1      -9.804  17.584  68.176  1.00  0.00    -0.291 N  
HETATM   26  O   UNL     1      -7.991  15.148  69.769  1.00  0.00    -0.192 OA 
HETATM   27  C   UNL     1      -8.515  17.796  67.730  1.00  0.00    -0.236 C  
HETATM   28  N   UNL     1      -7.731  16.791  68.193  1.00  0.00    -0.174 NA 
HETATM   29  O   UNL     1      -8.119  18.743  67.072  1.00  0.00    -0.248 OA 
HETATM   30  C   UNL     1      -8.464  15.965  68.993  1.00  0.00    -0.242 C  
BRANCH  25  31
HETATM   31  C   UNL     1     -10.900  18.449  67.875  1.00  0.00    -0.202 C  
HETATM   32  H   UNL     1     -11.136  20.156  66.997  1.00  0.00     0.000 HD 
HETATM   33  O   UNL     1     -10.407  19.580  67.197  1.00  0.00    -0.389 OA 
ENDBRANCH  25  31
ENDBRANCH  22  24
ENDBRANCH  20  22
ENDBRANCH  18  20
ENDBRANCH  17  18
ENDBRANCH  15  17
ENDBRANCH  13  15
ENDBRANCH  11  13
ENDBRANCH   5  11
ENDBRANCH   2   4
TORSDOF 10
ENDMDL
MODEL      406
REMARK 921   NORMALIZED FREE ENERGY PREDICTED BY IDOCK:   -3.41 KCAL/MOL
REMARK 922        TOTAL FREE ENERGY PREDICTED BY IDOCK:   -7.39 KCAL/MOL
REMARK 923 INTER-LIGAND FREE ENERGY PREDICTED BY IDOCK:   -6.43 KCAL/MOL
REMARK 924 INTRA-LIGAND FREE ENERGY PREDICTED BY IDOCK:   -0.97 KCAL/MOL
REMARK 927      BINDING AFFINITY PREDICTED BY RF-SCORE:    0.00 PKD
ROOT
HETATM    1  O   UNL     1     -13.295  14.555  65.435  1.00  0.00    -0.481 OA 
HETATM    2  C   UNL     1     -12.122  13.977  65.956  1.00  0.00    -0.439 C  
HETATM    3  H   UNL     1     -13.970  13.889  65.382  1.00  0.00     0.000 HD 
ENDROOT
BRANCH   2   4
HETATM    4  N   UNL     1     -11.104  14.981  66.035  1.00  0.00    -0.336 N  
HETATM    5  C   UNL     1     -10.762  15.581  67.309  1.00  0.00    -0.308 C  
HETATM    6  O   UNL     1     -11.398  15.742  63.859  1.00  0.00    -0.231 OA 
HETATM    7  C   UNL     1     -10.570  17.046  66.856  1.00  0.00    -0.208 C  
HETATM    8  N   UNL     1     -10.542  17.069  65.496  1.00  0.00    -0.564 NA 
HETATM    9  O   UNL     1     -10.394  18.029  67.560  1.00  0.00    -0.352 OA 
HETATM   10  C   UNL     1     -11.014  15.902  65.006  1.00  0.00    -0.412 C  
BRANCH   5  11
HETATM   11  N   UNL     1      -9.516  15.059  67.813  1.00  0.00    -0.194 N  
HETATM   12  H   UNL     1      -9.434  14.817  68.800  1.00  0.00     0.000 HD 
BRANCH  11  13
HETATM   13  C   UNL     1      -8.443  14.885  66.987  1.00  0.00    -0.231 C  
HETATM   14  O   UNL     1      -7.615  15.756  66.756  1.00  0.00    -0.218 OA 
BRANCH  13  15
HETATM   15  N   UNL     1      -8.353  13.603  66.512  1.00  0.00    -0.297 N  
HETATM   16  H   UNL     1      -8.384  13.428  65.508  1.00  0.00     0.000 HD 
BRANCH  15  17
HETATM   17  C   UNL     1      -8.218  12.509  67.427  1.00  0.00    -0.183 C  
BRANCH  17  18
HETATM   18  N   UNL     1      -9.072  11.403  67.082  1.00  0.00    -0.161 N  
HETATM   19  H   UNL     1      -9.218  11.150  66.105  1.00  0.00     0.000 HD 
BRANCH  18  20
HETATM   20  C   UNL     1      -9.687  10.691  68.078  1.00  0.00    -0.157 C  
HETATM   21  O   UNL     1     -10.840  10.882  68.440  1.00  0.00    -0.190 OA 
BRANCH  20  22
HETATM   22  N   UNL     1      -8.868   9.728  68.620  1.00  0.00    -0.123 N  
HETATM   23  H   UNL     1      -8.257   9.152  68.040  1.00  0.00     0.000 HD 
BRANCH  22  24
HETATM   24  C   UNL     1      -8.923   9.579  70.048  1.00  0.00    -0.223 C  
HETATM   25  N   UNL     1      -9.155   8.245  70.546  1.00  0.00    -0.145 N  
HETATM   26  O   UNL     1      -6.720  10.659  70.489  1.00  0.00    -0.312 OA 
HETATM   27  C   UNL     1      -8.441   8.013  71.704  1.00  0.00    -0.125 C  
HETATM   28  N   UNL     1      -7.531   9.008  71.854  1.00  0.00    -0.336 NA 
HETATM   29  O   UNL     1      -8.560   7.058  72.452  1.00  0.00    -0.120 OA 
HETATM   30  C   UNL     1      -7.585   9.847  70.781  1.00  0.00     0.268 C  
BRANCH  25  31
HETATM   31  C   UNL     1     -10.202   7.396  70.075  1.00  0.00    -0.209 C  
HETATM   32  H   UNL     1     -10.333   5.819  68.963  1.00  0.00     0.000 HD 
HETATM   33  O   UNL     1      -9.636   6.384  69.277  1.00  0.00    -0.138 OA 
ENDBRANCH  25  31
ENDBRANCH  22  24
ENDBRANCH  20  22
ENDBRANCH  18  20
ENDBRANCH  17  18
ENDBRANCH  15  17
ENDBRANCH  13  15
ENDBRANCH  11  13
ENDBRANCH   5  11
ENDBRANCH   2   4
TORSDOF 10
ENDMDL
MODEL      407
REMARK 921   NORMALIZED FREE ENERGY PREDICTED BY IDOCK:   -3.40 KCAL/MOL
REMARK 922        TOTAL FREE ENERGY PREDICTED BY IDOCK:   -7.38 KCAL/MOL
REMARK 923 INTER-LIGAND FREE ENERGY PREDICTED BY IDOCK:   -6.21 KCAL/MOL
REMARK 924 INTRA-LIGAND FREE ENERGY PREDICTED BY IDOCK:   -1.17 KCAL/MOL
REMARK 927      BINDING AFFINITY PREDICTED BY RF-SCORE:    0.00 PKD
ROOT
HETATM    1  O   UNL     1     -12.300   6.951  70.063  1.00  0.00    -0.619 OA 
HETATM    2  C   UNL     1     -12.327   6.779  71.460  1.00  0.00    -0.358 C  
HETATM    3  H   UNL     1     -13.180   7.138  69.759  1.00  0.00     0.000 HD 
ENDROOT
BRANCH   2   4
HETATM    4  N   UNL     1     -11.000   6.497  71.920  1.00  0.00    -0.240 N  
HETATM    5  C   UNL     1      -9.855   6.775  71.075  1.00  0.00    -0.182 C  
HETATM    6  O   UNL     1     -11.640   4.778  73.348  1.00  0.00    -0.323 OA 
HETATM    7  C   UNL     1      -9.000   5.526  71.388  1.00  0.00    -0.139 C  
HETATM    8  N   UNL     1      -9.549   4.894  72.460  1.00  0.00    -0.142 NA 
HETATM    9  O   UNL     1      -7.965   5.173  70.843  1.00  0.00    -0.092 OA 
HETATM   10  C   UNL     1     -10.800   5.355  72.676  1.00  0.00    -0.256 C  
BRANCH   5  11
HETATM   11  N   UNL     1      -9.162   7.962  71.511  1.00  0.00    -0.133 N  
HETATM   12  H   UNL     1      -8.765   7.996  72.450  1.00  0.00     0.000 HD 
BRANCH  11  13
HETATM   13  C   UNL     1      -9.030   9.040  70.685  1.00  0.00    -0.220 C  
HETATM   14  O   UNL     1      -8.019   9.726  70.620  1.00  0.00    -0.272 OA 
BRANCH  13  15
HETATM   15  N   UNL     1     -10.125   9.218  69.880  1.00  0.00    -0.197 N  
HETATM   16  H   UNL     1     -10.278   8.599  69.084  1.00  0.00     0.000 HD 
BRANCH  15  17
HETATM   17  C   UNL     1     -11.052  10.274  70.158  1.00  0.00    -0.319 C  
BRANCH  17  18
HETATM   18  N   UNL     1     -10.649  11.521  69.565  1.00  0.00    -0.448 N  
HETATM   19  H   UNL     1      -9.926  12.091  70.005  1.00  0.00     0.000 HD 
BRANCH  18  20
HETATM   20  C   UNL     1     -11.244  11.939  68.403  1.00  0.00    -0.258 C  
HETATM   21  O   UNL     1     -12.266  11.445  67.946  1.00  0.00    -0.592 OA 
BRANCH  20  22
HETATM   22  N   UNL     1     -10.572  12.983  67.813  1.00  0.00    -0.223 N  
HETATM   23  H   UNL     1     -10.980  13.915  67.743  1.00  0.00     0.000 HD 
BRANCH  22  24
HETATM   24  C   UNL     1      -9.261  12.687  67.302  1.00  0.00    -0.195 C  
HETATM   25  N   UNL     1      -8.149  13.029  68.153  1.00  0.00    -0.147 N  
HETATM   26  O   UNL     1      -9.722  10.283  66.833  1.00  0.00    -0.174 OA 
HETATM   27  C   UNL     1      -7.139  12.093  68.055  1.00  0.00    -0.096 C  
HETATM   28  N   UNL     1      -7.625  11.004  67.408  1.00  0.00    -0.106 NA 
HETATM   29  O   UNL     1      -6.011  12.189  68.508  1.00  0.00    -0.052 OA 
HETATM   30  C   UNL     1      -8.952  11.178  67.145  1.00  0.00    -0.145 C  
BRANCH  25  31
HETATM   31  C   UNL     1      -7.990  14.305  68.775  1.00  0.00    -0.119 C  
HETATM   32  H   UNL     1      -8.727  16.077  68.541  1.00  0.00     0.000 HD 
HETATM   33  O   UNL     1      -8.832  15.228  68.128  1.00  0.00    -0.166 OA 
ENDBRANCH  25  31
ENDBRANCH  22  24
ENDBRANCH  20  22
ENDBRANCH  18  20
ENDBRANCH  17  18
ENDBRANCH  15  17
ENDBRANCH  13  15
ENDBRANCH  11  13
ENDBRANCH   5  11
ENDBRANCH   2   4
TORSDOF 10
ENDMDL
MODEL      408
REMARK 921   NORMALIZED FREE ENERGY PREDICTED BY IDOCK:   -3.40 KCAL/MOL
REMARK 922        TOTAL FREE ENERGY PREDICTED BY IDOCK:   -7.38 KCAL/MOL
REMARK 923 INTER-LIGAND FREE ENERGY PREDICTED BY IDOCK:   -7.10 KCAL/MOL
REMARK 924 INTRA-LIGAND FREE ENERGY PREDICTED BY IDOCK:   -0.28 KCAL/MOL
REMARK 927      BINDING AFFINITY PREDICTED BY RF-SCORE:    0.00 PKD
ROOT
HETATM    1  O   UNL     1      -6.252  11.039  65.953  1.00  0.00    -0.270 OA 
HETATM    2  C   UNL     1      -7.129  11.877  66.667  1.00  0.00     0.082 C  
HETATM    3  H   UNL     1      -5.364  11.357  66.062  1.00  0.00     0.000 HD 
ENDROOT
BRANCH   2   4
HETATM    4  N   UNL     1      -8.469  11.398  66.502  1.00  0.00    -0.171 N  
HETATM    5  C   UNL     1      -9.287  11.094  67.659  1.00  0.00    -0.165 C  
HETATM    6  O   UNL     1      -8.083  10.420  64.429  1.00  0.00    -0.162 OA 
HETATM    7  C   UNL     1      -9.982   9.812  67.148  1.00  0.00    -0.198 C  
HETATM    8  N   UNL     1      -9.737   9.699  65.815  1.00  0.00    -0.264 NA 
HETATM    9  O   UNL     1     -10.699   9.047  67.777  1.00  0.00    -0.229 OA 
HETATM   10  C   UNL     1      -8.725  10.523  65.462  1.00  0.00    -0.185 C  
BRANCH   5  11
HETATM   11  N   UNL     1     -10.270  12.124  67.888  1.00  0.00    -0.193 N  
HETATM   12  H   UNL     1      -9.966  13.054  68.173  1.00  0.00     0.000 HD 
BRANCH  11  13
HETATM   13  C   UNL     1     -11.601  11.870  67.727  1.00  0.00    -0.323 C  
HETATM   14  O   UNL     1     -12.275  11.242  68.533  1.00  0.00    -0.588 OA 
BRANCH  13  15
HETATM   15  N   UNL     1     -12.115  12.466  66.606  1.00  0.00    -0.219 N  
HETATM   16  H   UNL     1     -13.106  12.373  66.387  1.00  0.00     0.000 HD 
BRANCH  15  17
HETATM   17  C   UNL     1     -11.257  13.220  65.741  1.00  0.00    -0.294 C  
BRANCH  17  18
HETATM   18  N   UNL     1     -11.518  14.634  65.813  1.00  0.00    -0.344 N  
HETATM   19  H   UNL     1     -12.436  14.973  66.102  1.00  0.00     0.000 HD 
BRANCH  18  20
HETATM   20  C   UNL     1     -10.524  15.520  65.490  1.00  0.00    -0.386 C  
HETATM   21  O   UNL     1     -10.693  16.505  64.784  1.00  0.00    -0.719 OA 
BRANCH  20  22
HETATM   22  N   UNL     1      -9.317  15.186  66.057  1.00  0.00    -0.397 N  
HETATM   23  H   UNL     1      -8.724  14.453  65.669  1.00  0.00     0.000 HD 
BRANCH  22  24
HETATM   24  C   UNL     1      -8.939  15.929  67.228  1.00  0.00    -0.195 C  
HETATM   25  N   UNL     1      -8.814  17.357  67.069  1.00  0.00    -0.228 N  
HETATM   26  O   UNL     1     -10.759  15.037  68.679  1.00  0.00    -0.231 OA 
HETATM   27  C   UNL     1      -9.249  18.025  68.195  1.00  0.00    -0.279 C  
HETATM   28  N   UNL     1      -9.920  17.147  68.982  1.00  0.00    -0.289 NA 
HETATM   29  O   UNL     1      -9.109  19.211  68.437  1.00  0.00    -0.331 OA 
HETATM   30  C   UNL     1      -9.994  15.935  68.361  1.00  0.00    -0.222 C  
BRANCH  25  31
HETATM   31  C   UNL     1      -8.067  17.974  66.019  1.00  0.00    -0.089 C  
HETATM   32  H   UNL     1      -6.198  18.194  65.574  1.00  0.00     0.000 HD 
HETATM   33  O   UNL     1      -6.696  17.783  66.272  1.00  0.00    -0.213 OA 
ENDBRANCH  25  31
ENDBRANCH  22  24
ENDBRANCH  20  22
ENDBRANCH  18  20
ENDBRANCH  17  18
ENDBRANCH  15  17
ENDBRANCH  13  15
ENDBRANCH  11  13
ENDBRANCH   5  11
ENDBRANCH   2   4
TORSDOF 10
ENDMDL
MODEL      409
REMARK 921   NORMALIZED FREE ENERGY PREDICTED BY IDOCK:   -3.38 KCAL/MOL
REMARK 922        TOTAL FREE ENERGY PREDICTED BY IDOCK:   -7.35 KCAL/MOL
REMARK 923 INTER-LIGAND FREE ENERGY PREDICTED BY IDOCK:   -6.14 KCAL/MOL
REMARK 924 INTRA-LIGAND FREE ENERGY PREDICTED BY IDOCK:   -1.21 KCAL/MOL
REMARK 927      BINDING AFFINITY PREDICTED BY RF-SCORE:    0.00 PKD
ROOT
HETATM    1  O   UNL     1      -8.084   6.736  71.919  1.00  0.00    -0.101 OA 
HETATM    2  C   UNL     1      -8.909   7.068  70.830  1.00  0.00    -0.149 C  
HETATM    3  H   UNL     1      -8.387   5.919  72.298  1.00  0.00     0.000 HD 
ENDROOT
BRANCH   2   4
HETATM    4  N   UNL     1      -8.453   8.300  70.258  1.00  0.00    -0.123 N  
HETATM    5  C   UNL     1      -9.345   9.112  69.456  1.00  0.00    -0.163 C  
HETATM    6  O   UNL     1      -6.223   7.654  70.137  1.00  0.00    -0.033 OA 
HETATM    7  C   UNL     1      -8.358   9.559  68.353  1.00  0.00    -0.118 C  
HETATM    8  N   UNL     1      -7.100   9.232  68.753  1.00  0.00    -0.072 NA 
HETATM    9  O   UNL     1      -8.612  10.169  67.325  1.00  0.00    -0.125 OA 
HETATM   10  C   UNL     1      -7.156   8.356  69.780  1.00  0.00    -0.051 C  
BRANCH   5  11
HETATM   11  N   UNL     1      -9.806  10.263  70.193  1.00  0.00    -0.405 N  
HETATM   12  H   UNL     1      -9.234  10.639  70.947  1.00  0.00     0.000 HD 
BRANCH  11  13
HETATM   13  C   UNL     1     -11.000  10.855  69.894  1.00  0.00    -0.199 C  
HETATM   14  O   UNL     1     -12.086  10.326  70.084  1.00  0.00    -0.254 OA 
BRANCH  13  15
HETATM   15  N   UNL     1     -10.846  12.136  69.434  1.00  0.00    -0.453 N  
HETATM   16  H   UNL     1     -10.188  12.766  69.891  1.00  0.00     0.000 HD 
BRANCH  15  17
HETATM   17  C   UNL     1     -11.610  12.589  68.310  1.00  0.00    -0.328 C  
BRANCH  17  18
HETATM   18  N   UNL     1     -10.926  12.370  67.063  1.00  0.00    -0.250 N  
HETATM   19  H   UNL     1     -10.639  11.429  66.791  1.00  0.00     0.000 HD 
BRANCH  18  20
HETATM   20  C   UNL     1     -10.663  13.436  66.243  1.00  0.00    -0.287 C  
HETATM   21  O   UNL     1      -9.934  13.377  65.262  1.00  0.00    -0.259 OA 
BRANCH  20  22
HETATM   22  N   UNL     1     -11.319  14.578  66.638  1.00  0.00    -0.347 N  
HETATM   23  H   UNL     1     -12.313  14.578  66.864  1.00  0.00     0.000 HD 
BRANCH  22  24
HETATM   24  C   UNL     1     -10.523  15.773  66.714  1.00  0.00    -0.305 C  
HETATM   25  N   UNL     1      -9.136  15.598  67.071  1.00  0.00    -0.208 N  
HETATM   26  O   UNL     1     -11.081  16.583  64.424  1.00  0.00    -0.894 OA 
HETATM   27  C   UNL     1      -8.329  16.486  66.389  1.00  0.00    -0.322 C  
HETATM   28  N   UNL     1      -9.057  17.048  65.392  1.00  0.00     0.137 NA 
HETATM   29  O   UNL     1      -7.149  16.705  66.600  1.00  0.00    -0.218 OA 
HETATM   30  C   UNL     1     -10.303  16.494  65.362  1.00  0.00    -0.221 C  
BRANCH  25  31
HETATM   31  C   UNL     1      -8.698  14.825  68.190  1.00  0.00    -0.168 C  
HETATM   32  H   UNL     1      -9.166  14.683  70.061  1.00  0.00     0.000 HD 
HETATM   33  O   UNL     1      -9.457  15.196  69.316  1.00  0.00    -0.220 OA 
ENDBRANCH  25  31
ENDBRANCH  22  24
ENDBRANCH  20  22
ENDBRANCH  18  20
ENDBRANCH  17  18
ENDBRANCH  15  17
ENDBRANCH  13  15
ENDBRANCH  11  13
ENDBRANCH   5  11
ENDBRANCH   2   4
TORSDOF 10
ENDMDL
MODEL      410
REMARK 921   NORMALIZED FREE ENERGY PREDICTED BY IDOCK:   -3.37 KCAL/MOL
REMARK 922        TOTAL FREE ENERGY PREDICTED BY IDOCK:   -7.33 KCAL/MOL
REMARK 923 INTER-LIGAND FREE ENERGY PREDICTED BY IDOCK:   -6.27 KCAL/MOL
REMARK 924 INTRA-LIGAND FREE ENERGY PREDICTED BY IDOCK:   -1.07 KCAL/MOL
REMARK 927      BINDING AFFINITY PREDICTED BY RF-SCORE:    0.00 PKD
ROOT
HETATM    1  O   UNL     1      -9.757   4.813  67.806  1.00  0.00    -0.149 OA 
HETATM    2  C   UNL     1     -10.554   5.848  67.283  1.00  0.00    -0.291 C  
HETATM    3  H   UNL     1      -9.842   4.047  67.251  1.00  0.00     0.000 HD 
ENDROOT
BRANCH   2   4
HETATM    4  N   UNL     1     -10.427   7.003  68.122  1.00  0.00    -0.191 N  
HETATM    5  C   UNL     1      -9.377   7.972  67.882  1.00  0.00    -0.138 C  
HETATM    6  O   UNL     1     -11.378   6.002  69.992  1.00  0.00    -0.384 OA 
HETATM    7  C   UNL     1      -8.978   8.280  69.343  1.00  0.00    -0.147 C  
HETATM    8  N   UNL     1      -9.920   7.739  70.163  1.00  0.00    -0.185 NA 
HETATM    9  O   UNL     1      -8.035   8.950  69.736  1.00  0.00    -0.091 OA 
HETATM   10  C   UNL     1     -10.677   6.857  69.475  1.00  0.00    -0.246 C  
BRANCH   5  11
HETATM   11  N   UNL     1      -9.900   9.163  67.259  1.00  0.00    -0.176 N  
HETATM   12  H   UNL     1     -10.478   9.803  67.802  1.00  0.00     0.000 HD 
BRANCH  11  13
HETATM   13  C   UNL     1      -9.631   9.445  65.950  1.00  0.00    -0.270 C  
HETATM   14  O   UNL     1      -8.868   8.786  65.257  1.00  0.00    -0.192 OA 
BRANCH  13  15
HETATM   15  N   UNL     1     -10.372  10.497  65.481  1.00  0.00    -0.251 N  
HETATM   16  H   UNL     1     -10.295  10.779  64.504  1.00  0.00     0.000 HD 
BRANCH  15  17
HETATM   17  C   UNL     1     -11.254  11.200  66.363  1.00  0.00    -0.046 C  
BRANCH  17  18
HETATM   18  N   UNL     1     -11.647  12.479  65.833  1.00  0.00    -0.384 N  
HETATM   19  H   UNL     1     -12.603  12.631  65.510  1.00  0.00     0.000 HD 
BRANCH  18  20
HETATM   20  C   UNL     1     -10.727  13.492  65.765  1.00  0.00    -0.275 C  
HETATM   21  O   UNL     1      -9.517  13.319  65.828  1.00  0.00    -0.111 OA 
BRANCH  20  22
HETATM   22  N   UNL     1     -11.313  14.726  65.607  1.00  0.00    -0.345 N  
HETATM   23  H   UNL     1     -11.885  14.950  64.793  1.00  0.00     0.000 HD 
BRANCH  22  24
HETATM   24  C   UNL     1     -11.073  15.682  66.653  1.00  0.00    -0.147 C  
HETATM   25  N   UNL     1     -11.096  15.174  68.003  1.00  0.00    -0.295 N  
HETATM   26  O   UNL     1      -8.920  16.524  65.723  1.00  0.00    -0.481 OA 
HETATM   27  C   UNL     1     -10.152  15.803  68.790  1.00  0.00    -0.215 C  
HETATM   28  N   UNL     1      -9.312  16.495  67.980  1.00  0.00    -0.216 NA 
HETATM   29  O   UNL     1     -10.045  15.723  70.001  1.00  0.00    -0.278 OA 
HETATM   30  C   UNL     1      -9.643  16.275  66.676  1.00  0.00    -0.246 C  
BRANCH  25  31
HETATM   31  C   UNL     1     -12.145  14.356  68.523  1.00  0.00    -0.243 C  
HETATM   32  H   UNL     1     -12.283  12.610  69.343  1.00  0.00     0.000 HD 
HETATM   33  O   UNL     1     -11.585  13.155  68.997  1.00  0.00    -0.271 OA 
ENDBRANCH  25  31
ENDBRANCH  22  24
ENDBRANCH  20  22
ENDBRANCH  18  20
ENDBRANCH  17  18
ENDBRANCH  15  17
ENDBRANCH  13  15
ENDBRANCH  11  13
ENDBRANCH   5  11
ENDBRANCH   2   4
TORSDOF 10
ENDMDL
MODEL      411
REMARK 921   NORMALIZED FREE ENERGY PREDICTED BY IDOCK:   -3.36 KCAL/MOL
REMARK 922        TOTAL FREE ENERGY PREDICTED BY IDOCK:   -7.32 KCAL/MOL
REMARK 923 INTER-LIGAND FREE ENERGY PREDICTED BY IDOCK:   -6.23 KCAL/MOL
REMARK 924 INTRA-LIGAND FREE ENERGY PREDICTED BY IDOCK:   -1.09 KCAL/MOL
REMARK 927      BINDING AFFINITY PREDICTED BY RF-SCORE:    0.00 PKD
ROOT
HETATM    1  O   UNL     1      -6.961   7.847  65.486  1.00  0.00    -0.058 OA 
HETATM    2  C   UNL     1      -8.123   7.992  66.266  1.00  0.00    -0.112 C  
HETATM    3  H   UNL     1      -6.960   8.511  64.807  1.00  0.00     0.000 HD 
ENDROOT
BRANCH   2   4
HETATM    4  N   UNL     1      -8.126   6.989  67.289  1.00  0.00    -0.114 N  
HETATM    5  C   UNL     1      -7.594   7.282  68.605  1.00  0.00    -0.114 C  
HETATM    6  O   UNL     1      -8.035   5.194  65.816  1.00  0.00    -0.104 OA 
HETATM    7  C   UNL     1      -6.873   5.945  68.891  1.00  0.00    -0.066 C  
HETATM    8  N   UNL     1      -7.265   5.043  67.951  1.00  0.00    -0.066 NA 
HETATM    9  O   UNL     1      -6.134   5.679  69.827  1.00  0.00    -0.023 OA 
HETATM   10  C   UNL     1      -7.864   5.681  66.922  1.00  0.00    -0.101 C  
BRANCH   5  11
HETATM   11  N   UNL     1      -8.654   7.479  69.563  1.00  0.00    -0.133 N  
HETATM   12  H   UNL     1      -8.423   7.737  70.522  1.00  0.00     0.000 HD 
BRANCH  11  13
HETATM   13  C   UNL     1      -9.962   7.324  69.204  1.00  0.00    -0.170 C  
HETATM   14  O   UNL     1     -10.477   6.240  68.966  1.00  0.00    -0.190 OA 
BRANCH  13  15
HETATM   15  N   UNL     1     -10.651   8.508  69.220  1.00  0.00    -0.295 N  
HETATM   16  H   UNL     1     -11.664   8.507  69.340  1.00  0.00     0.000 HD 
BRANCH  15  17
HETATM   17  C   UNL     1      -9.948   9.747  69.068  1.00  0.00    -0.184 C  
BRANCH  17  18
HETATM   18  N   UNL     1     -10.471  10.778  69.925  1.00  0.00    -0.451 N  
HETATM   19  H   UNL     1      -9.986  11.024  70.789  1.00  0.00     0.000 HD 
BRANCH  18  20
HETATM   20  C   UNL     1     -11.624  11.427  69.571  1.00  0.00    -0.331 C  
HETATM   21  O   UNL     1     -12.502  10.928  68.880  1.00  0.00    -0.431 OA 
BRANCH  20  22
HETATM   22  N   UNL     1     -11.693  12.698  70.091  1.00  0.00    -0.538 N  
HETATM   23  H   UNL     1     -11.692  12.870  71.096  1.00  0.00     0.000 HD 
BRANCH  22  24
HETATM   24  C   UNL     1     -11.768  13.771  69.137  1.00  0.00    -0.334 C  
HETATM   25  N   UNL     1     -11.682  15.109  69.668  1.00  0.00    -0.306 N  
HETATM   26  O   UNL     1      -9.922  12.933  67.687  1.00  0.00    -0.210 OA 
HETATM   27  C   UNL     1     -10.981  15.940  68.817  1.00  0.00    -0.301 C  
HETATM   28  N   UNL     1     -10.353  15.174  67.890  1.00  0.00    -0.239 NA 
HETATM   29  O   UNL     1     -10.890  17.153  68.897  1.00  0.00    -0.289 OA 
HETATM   30  C   UNL     1     -10.569  13.854  68.160  1.00  0.00    -0.252 C  
BRANCH  25  31
HETATM   31  C   UNL     1     -12.467  15.576  70.766  1.00  0.00    -0.440 C  
HETATM   32  H   UNL     1     -14.017  14.957  71.742  1.00  0.00     0.000 HD 
HETATM   33  O   UNL     1     -13.494  14.647  71.012  1.00  0.00    -0.380 OA 
ENDBRANCH  25  31
ENDBRANCH  22  24
ENDBRANCH  20  22
ENDBRANCH  18  20
ENDBRANCH  17  18
ENDBRANCH  15  17
ENDBRANCH  13  15
ENDBRANCH  11  13
ENDBRANCH   5  11
ENDBRANCH   2   4
TORSDOF 10
ENDMDL
MODEL      412
REMARK 921   NORMALIZED FREE ENERGY PREDICTED BY IDOCK:   -3.36 KCAL/MOL
REMARK 922        TOTAL FREE ENERGY PREDICTED BY IDOCK:   -7.32 KCAL/MOL
REMARK 923 INTER-LIGAND FREE ENERGY PREDICTED BY IDOCK:   -6.45 KCAL/MOL
REMARK 924 INTRA-LIGAND FREE ENERGY PREDICTED BY IDOCK:   -0.87 KCAL/MOL
REMARK 927      BINDING AFFINITY PREDICTED BY RF-SCORE:    0.00 PKD
ROOT
HETATM    1  O   UNL     1     -12.190  11.009  68.036  1.00  0.00    -0.703 OA 
HETATM    2  C   UNL     1     -11.843  12.107  68.844  1.00  0.00    -0.304 C  
HETATM    3  H   UNL     1     -12.103  11.258  67.123  1.00  0.00     0.000 HD 
ENDROOT
BRANCH   2   4
HETATM    4  N   UNL     1     -11.975  11.732  70.221  1.00  0.00    -0.354 N  
HETATM    5  C   UNL     1     -12.290  10.365  70.582  1.00  0.00    -0.346 C  
HETATM    6  O   UNL     1     -12.629  13.842  70.945  1.00  0.00    -0.336 OA 
HETATM    7  C   UNL     1     -13.273  10.630  71.745  1.00  0.00    -0.421 C  
HETATM    8  N   UNL     1     -13.198  11.949  72.071  1.00  0.00    -0.456 NA 
HETATM    9  O   UNL     1     -13.958   9.816  72.346  1.00  0.00    -0.262 OA 
HETATM   10  C   UNL     1     -12.571  12.631  71.087  1.00  0.00    -0.258 C  
BRANCH   5  11
HETATM   11  N   UNL     1     -11.125   9.675  71.076  1.00  0.00    -0.342 N  
HETATM   12  H   UNL     1     -10.355  10.210  71.476  1.00  0.00     0.000 HD 
BRANCH  11  13
HETATM   13  C   UNL     1     -11.038   8.314  71.016  1.00  0.00    -0.251 C  
HETATM   14  O   UNL     1     -11.691   7.559  71.724  1.00  0.00    -0.266 OA 
BRANCH  13  15
HETATM   15  N   UNL     1     -10.199   7.888  70.020  1.00  0.00    -0.203 N  
HETATM   16  H   UNL     1      -9.941   6.904  69.956  1.00  0.00     0.000 HD 
BRANCH  15  17
HETATM   17  C   UNL     1      -9.684   8.828  69.069  1.00  0.00    -0.172 C  
BRANCH  17  18
HETATM   18  N   UNL     1     -10.304   8.689  67.777  1.00  0.00    -0.235 N  
HETATM   19  H   UNL     1     -11.312   8.811  67.674  1.00  0.00     0.000 HD 
BRANCH  18  20
HETATM   20  C   UNL     1      -9.530   8.391  66.687  1.00  0.00    -0.205 C  
HETATM   21  O   UNL     1      -9.802   8.733  65.544  1.00  0.00    -0.011 OA 
BRANCH  20  22
HETATM   22  N   UNL     1      -8.405   7.673  67.021  1.00  0.00    -0.123 N  
HETATM   23  H   UNL     1      -7.702   8.041  67.662  1.00  0.00     0.000 HD 
BRANCH  22  24
HETATM   24  C   UNL     1      -8.277   6.376  66.415  1.00  0.00    -0.115 C  
HETATM   25  N   UNL     1      -9.486   5.597  66.307  1.00  0.00    -0.156 N  
HETATM   26  O   UNL     1      -7.181   7.189  64.330  1.00  0.00    -0.062 OA 
HETATM   27  C   UNL     1      -9.508   4.870  65.133  1.00  0.00    -0.058 C  
HETATM   28  N   UNL     1      -8.523   5.333  64.323  1.00  0.00    -0.134 NA 
HETATM   29  O   UNL     1     -10.300   3.992  64.837  1.00  0.00    -0.224 OA 
HETATM   30  C   UNL     1      -7.903   6.395  64.913  1.00  0.00    -0.113 C  
BRANCH  25  31
HETATM   31  C   UNL     1     -10.387   5.377  67.394  1.00  0.00    -0.204 C  
HETATM   32  H   UNL     1     -10.409   4.294  68.995  1.00  0.00     0.000 HD 
HETATM   33  O   UNL     1      -9.810   4.441  68.272  1.00  0.00    -0.138 OA 
ENDBRANCH  25  31
ENDBRANCH  22  24
ENDBRANCH  20  22
ENDBRANCH  18  20
ENDBRANCH  17  18
ENDBRANCH  15  17
ENDBRANCH  13  15
ENDBRANCH  11  13
ENDBRANCH   5  11
ENDBRANCH   2   4
TORSDOF 10
ENDMDL
MODEL      413
REMARK 921   NORMALIZED FREE ENERGY PREDICTED BY IDOCK:   -3.36 KCAL/MOL
REMARK 922        TOTAL FREE ENERGY PREDICTED BY IDOCK:   -7.32 KCAL/MOL
REMARK 923 INTER-LIGAND FREE ENERGY PREDICTED BY IDOCK:   -6.51 KCAL/MOL
REMARK 924 INTRA-LIGAND FREE ENERGY PREDICTED BY IDOCK:   -0.81 KCAL/MOL
REMARK 927      BINDING AFFINITY PREDICTED BY RF-SCORE:    0.00 PKD
ROOT
HETATM    1  O   UNL     1      -6.145   6.996  65.209  1.00  0.00    -0.035 OA 
HETATM    2  C   UNL     1      -7.441   7.526  65.351  1.00  0.00    -0.082 C  
HETATM    3  H   UNL     1      -5.581   7.657  64.825  1.00  0.00     0.000 HD 
ENDROOT
BRANCH   2   4
HETATM    4  N   UNL     1      -8.291   6.529  65.929  1.00  0.00    -0.134 N  
HETATM    5  C   UNL     1      -8.218   6.234  67.346  1.00  0.00    -0.109 C  
HETATM    6  O   UNL     1      -8.507   5.287  63.976  1.00  0.00    -0.135 OA 
HETATM    7  C   UNL     1      -8.369   4.697  67.293  1.00  0.00    -0.105 C  
HETATM    8  N   UNL     1      -8.755   4.352  66.035  1.00  0.00    -0.113 NA 
HETATM    9  O   UNL     1      -8.249   3.901  68.213  1.00  0.00    -0.085 OA 
HETATM   10  C   UNL     1      -8.554   5.388  65.192  1.00  0.00    -0.149 C  
BRANCH   5  11
HETATM   11  N   UNL     1      -9.333   6.809  68.056  1.00  0.00    -0.120 N  
HETATM   12  H   UNL     1      -9.305   6.869  69.073  1.00  0.00     0.000 HD 
BRANCH  11  13
HETATM   13  C   UNL     1     -10.427   7.275  67.385  1.00  0.00    -0.289 C  
HETATM   14  O   UNL     1     -11.376   6.573  67.062  1.00  0.00    -0.342 OA 
BRANCH  13  15
HETATM   15  N   UNL     1     -10.379   8.630  67.187  1.00  0.00    -0.284 N  
HETATM   16  H   UNL     1     -10.914   9.053  66.428  1.00  0.00     0.000 HD 
BRANCH  15  17
HETATM   17  C   UNL     1      -9.578   9.451  68.045  1.00  0.00    -0.138 C  
BRANCH  17  18
HETATM   18  N   UNL     1     -10.106  10.784  68.170  1.00  0.00    -0.160 N  
HETATM   19  H   UNL     1     -10.052  11.277  69.062  1.00  0.00     0.000 HD 
BRANCH  18  20
HETATM   20  C   UNL     1     -10.680  11.386  67.081  1.00  0.00    -0.249 C  
HETATM   21  O   UNL     1     -11.886  11.409  66.873  1.00  0.00    -0.489 OA 
BRANCH  20  22
HETATM   22  N   UNL     1      -9.752  11.972  66.254  1.00  0.00    -0.230 N  
HETATM   23  H   UNL     1      -8.874  11.512  66.017  1.00  0.00     0.000 HD 
BRANCH  22  24
HETATM   24  C   UNL     1     -10.091  13.272  65.741  1.00  0.00    -0.286 C  
HETATM   25  N   UNL     1     -11.077  13.309  64.689  1.00  0.00    -0.339 N  
HETATM   26  O   UNL     1     -10.660  14.265  67.955  1.00  0.00    -0.233 OA 
HETATM   27  C   UNL     1     -11.895  14.414  64.810  1.00  0.00    -0.433 C  
HETATM   28  N   UNL     1     -11.699  14.961  66.036  1.00  0.00    -0.241 NA 
HETATM   29  O   UNL     1     -12.700  14.817  63.988  1.00  0.00    -0.786 OA 
HETATM   30  C   UNL     1     -10.821  14.196  66.746  1.00  0.00    -0.296 C  
BRANCH  25  31
HETATM   31  C   UNL     1     -11.020  12.488  63.521  1.00  0.00    -0.420 C  
HETATM   32  H   UNL     1     -11.806  10.818  62.946  1.00  0.00     0.000 HD 
HETATM   33  O   UNL     1     -11.844  11.365  63.722  1.00  0.00    -0.232 OA 
ENDBRANCH  25  31
ENDBRANCH  22  24
ENDBRANCH  20  22
ENDBRANCH  18  20
ENDBRANCH  17  18
ENDBRANCH  15  17
ENDBRANCH  13  15
ENDBRANCH  11  13
ENDBRANCH   5  11
ENDBRANCH   2   4
TORSDOF 10
ENDMDL
MODEL      414
REMARK 921   NORMALIZED FREE ENERGY PREDICTED BY IDOCK:   -3.33 KCAL/MOL
REMARK 922        TOTAL FREE ENERGY PREDICTED BY IDOCK:   -7.27 KCAL/MOL
REMARK 923 INTER-LIGAND FREE ENERGY PREDICTED BY IDOCK:   -5.52 KCAL/MOL
REMARK 924 INTRA-LIGAND FREE ENERGY PREDICTED BY IDOCK:   -1.75 KCAL/MOL
REMARK 927      BINDING AFFINITY PREDICTED BY RF-SCORE:    0.00 PKD
ROOT
HETATM    1  O   UNL     1      -6.196   8.818  69.732  1.00  0.00    -0.034 OA 
HETATM    2  C   UNL     1      -6.861  10.021  69.429  1.00  0.00    -0.064 C  
HETATM    3  H   UNL     1      -5.274   9.002  69.866  1.00  0.00     0.000 HD 
ENDROOT
BRANCH   2   4
HETATM    4  N   UNL     1      -8.252   9.745  69.225  1.00  0.00    -0.120 N  
HETATM    5  C   UNL     1      -9.060  10.616  68.396  1.00  0.00    -0.156 C  
HETATM    6  O   UNL     1      -8.536   8.630  71.245  1.00  0.00    -0.154 OA 
HETATM    7  C   UNL     1     -10.358  10.632  69.234  1.00  0.00    -0.218 C  
HETATM    8  N   UNL     1     -10.263   9.659  70.181  1.00  0.00    -0.247 NA 
HETATM    9  O   UNL     1     -11.350  11.325  69.064  1.00  0.00    -0.227 OA 
HETATM   10  C   UNL     1      -8.981   9.248  70.291  1.00  0.00    -0.229 C  
BRANCH   5  11
HETATM   11  N   UNL     1      -9.318  10.019  67.109  1.00  0.00    -0.148 N  
HETATM   12  H   UNL     1      -9.584   9.037  67.055  1.00  0.00     0.000 HD 
BRANCH  11  13
HETATM   13  C   UNL     1      -9.210  10.751  65.962  1.00  0.00    -0.187 C  
HETATM   14  O   UNL     1      -8.410  10.504  65.071  1.00  0.00    -0.164 OA 
BRANCH  13  15
HETATM   15  N   UNL     1     -10.152  11.743  65.886  1.00  0.00    -0.226 N  
HETATM   16  H   UNL     1     -11.057  11.624  66.342  1.00  0.00     0.000 HD 
BRANCH  15  17
HETATM   17  C   UNL     1      -9.865  12.948  65.166  1.00  0.00    -0.068 C  
BRANCH  17  18
HETATM   18  N   UNL     1      -9.580  14.052  66.045  1.00  0.00    -0.470 N  
HETATM   19  H   UNL     1      -8.704  14.567  65.957  1.00  0.00     0.000 HD 
BRANCH  18  20
HETATM   20  C   UNL     1     -10.496  14.406  67.000  1.00  0.00    -0.268 C  
HETATM   21  O   UNL     1     -11.674  14.073  66.972  1.00  0.00    -0.355 OA 
BRANCH  20  22
HETATM   22  N   UNL     1      -9.943  15.167  68.003  1.00  0.00    -0.220 N  
HETATM   23  H   UNL     1     -10.201  15.039  68.981  1.00  0.00     0.000 HD 
BRANCH  22  24
HETATM   24  C   UNL     1      -8.982  16.155  67.593  1.00  0.00    -0.191 C  
HETATM   25  N   UNL     1      -8.852  17.314  68.442  1.00  0.00    -0.261 N  
HETATM   26  O   UNL     1      -7.066  14.571  67.422  1.00  0.00    -0.187 OA 
HETATM   27  C   UNL     1      -7.540  17.738  68.511  1.00  0.00    -0.276 C  
HETATM   28  N   UNL     1      -6.748  16.767  67.991  1.00  0.00    -0.140 NA 
HETATM   29  O   UNL     1      -7.138  18.780  68.997  1.00  0.00    -0.306 OA 
HETATM   30  C   UNL     1      -7.507  15.687  67.648  1.00  0.00    -0.164 C  
BRANCH  25  31
HETATM   31  C   UNL     1      -9.962  18.089  68.899  1.00  0.00    -0.341 C  
HETATM   32  H   UNL     1     -11.473  17.812  70.072  1.00  0.00     0.000 HD 
HETATM   33  O   UNL     1     -10.735  17.297  69.768  1.00  0.00    -0.102 OA 
ENDBRANCH  25  31
ENDBRANCH  22  24
ENDBRANCH  20  22
ENDBRANCH  18  20
ENDBRANCH  17  18
ENDBRANCH  15  17
ENDBRANCH  13  15
ENDBRANCH  11  13
ENDBRANCH   5  11
ENDBRANCH   2   4
TORSDOF 10
ENDMDL
MODEL      415
REMARK 921   NORMALIZED FREE ENERGY PREDICTED BY IDOCK:   -3.32 KCAL/MOL
REMARK 922        TOTAL FREE ENERGY PREDICTED BY IDOCK:   -7.26 KCAL/MOL
REMARK 923 INTER-LIGAND FREE ENERGY PREDICTED BY IDOCK:   -6.31 KCAL/MOL
REMARK 924 INTRA-LIGAND FREE ENERGY PREDICTED BY IDOCK:   -0.96 KCAL/MOL
REMARK 927      BINDING AFFINITY PREDICTED BY RF-SCORE:    0.00 PKD
ROOT
HETATM    1  O   UNL     1      -8.265   6.638  63.959  1.00  0.00    -0.285 OA 
HETATM    2  C   UNL     1      -8.571   5.460  64.667  1.00  0.00    -0.097 C  
HETATM    3  H   UNL     1      -7.868   6.404  63.128  1.00  0.00     0.000 HD 
ENDROOT
BRANCH   2   4
HETATM    4  N   UNL     1      -9.170   5.812  65.920  1.00  0.00    -0.146 N  
HETATM    5  C   UNL     1      -8.617   6.885  66.722  1.00  0.00    -0.120 C  
HETATM    6  O   UNL     1     -10.035   3.695  66.334  1.00  0.00    -0.073 OA 
HETATM    7  C   UNL     1      -8.772   6.257  68.126  1.00  0.00    -0.115 C  
HETATM    8  N   UNL     1      -9.563   5.155  68.013  1.00  0.00    -0.131 NA 
HETATM    9  O   UNL     1      -8.343   6.683  69.188  1.00  0.00    -0.122 OA 
HETATM   10  C   UNL     1      -9.665   4.794  66.715  1.00  0.00    -0.189 C  
BRANCH   5  11
HETATM   11  N   UNL     1      -9.424   8.075  66.629  1.00  0.00    -0.197 N  
HETATM   12  H   UNL     1     -10.422   7.993  66.438  1.00  0.00     0.000 HD 
BRANCH  11  13
HETATM   13  C   UNL     1      -8.871   9.313  66.791  1.00  0.00    -0.127 C  
HETATM   14  O   UNL     1      -7.724   9.499  67.175  1.00  0.00    -0.091 OA 
BRANCH  13  15
HETATM   15  N   UNL     1      -9.715  10.318  66.399  1.00  0.00    -0.191 N  
HETATM   16  H   UNL     1      -9.889  10.480  65.407  1.00  0.00     0.000 HD 
BRANCH  15  17
HETATM   17  C   UNL     1     -10.354  11.140  67.383  1.00  0.00    -0.196 C  
BRANCH  17  18
HETATM   18  N   UNL     1      -9.896  12.504  67.330  1.00  0.00    -0.199 N  
HETATM   19  H   UNL     1      -9.014  12.734  66.872  1.00  0.00     0.000 HD 
BRANCH  18  20
HETATM   20  C   UNL     1     -10.655  13.491  67.902  1.00  0.00    -0.248 C  
HETATM   21  O   UNL     1     -11.151  14.418  67.275  1.00  0.00    -0.293 OA 
BRANCH  20  22
HETATM   22  N   UNL     1     -10.810  13.318  69.257  1.00  0.00    -0.440 N  
HETATM   23  H   UNL     1     -10.061  12.947  69.842  1.00  0.00     0.000 HD 
BRANCH  22  24
HETATM   24  C   UNL     1     -12.087  13.691  69.803  1.00  0.00    -0.334 C  
HETATM   25  N   UNL     1     -12.638  12.811  70.804  1.00  0.00    -0.276 N  
HETATM   26  O   UNL     1     -11.403  15.992  70.471  1.00  0.00    -0.355 OA 
HETATM   27  C   UNL     1     -13.307  13.522  71.780  1.00  0.00    -0.397 C  
HETATM   28  N   UNL     1     -12.994  14.835  71.644  1.00  0.00    -0.314 NA 
HETATM   29  O   UNL     1     -14.021  13.061  72.653  1.00  0.00    -0.657 OA 
HETATM   30  C   UNL     1     -12.079  14.990  70.645  1.00  0.00    -0.321 C  
BRANCH  25  31
HETATM   31  C   UNL     1     -12.736  11.394  70.645  1.00  0.00    -0.195 C  
HETATM   32  H   UNL     1     -12.328   9.835  71.714  1.00  0.00     0.000 HD 
HETATM   33  O   UNL     1     -12.264  10.778  71.819  1.00  0.00    -0.196 OA 
ENDBRANCH  25  31
ENDBRANCH  22  24
ENDBRANCH  20  22
ENDBRANCH  18  20
ENDBRANCH  17  18
ENDBRANCH  15  17
ENDBRANCH  13  15
ENDBRANCH  11  13
ENDBRANCH   5  11
ENDBRANCH   2   4
TORSDOF 10
ENDMDL
MODEL      416
REMARK 921   NORMALIZED FREE ENERGY PREDICTED BY IDOCK:   -3.32 KCAL/MOL
REMARK 922        TOTAL FREE ENERGY PREDICTED BY IDOCK:   -7.26 KCAL/MOL
REMARK 923 INTER-LIGAND FREE ENERGY PREDICTED BY IDOCK:   -5.13 KCAL/MOL
REMARK 924 INTRA-LIGAND FREE ENERGY PREDICTED BY IDOCK:   -2.13 KCAL/MOL
REMARK 927      BINDING AFFINITY PREDICTED BY RF-SCORE:    0.00 PKD
ROOT
HETATM    1  O   UNL     1      -8.582  16.254  69.514  1.00  0.00    -0.125 OA 
HETATM    2  C   UNL     1      -9.942  16.465  69.808  1.00  0.00     0.012 C  
HETATM    3  H   UNL     1      -8.095  17.044  69.719  1.00  0.00     0.000 HD 
ENDROOT
BRANCH   2   4
HETATM    4  N   UNL     1     -10.675  15.274  69.499  1.00  0.00    -0.251 N  
HETATM    5  C   UNL     1     -10.284  14.441  68.380  1.00  0.00    -0.243 C  
HETATM    6  O   UNL     1     -12.683  16.033  70.391  1.00  0.00    -0.324 OA 
HETATM    7  C   UNL     1     -11.683  14.075  67.835  1.00  0.00    -0.362 C  
HETATM    8  N   UNL     1     -12.610  14.453  68.757  1.00  0.00     0.162 NA 
HETATM    9  O   UNL     1     -11.952  13.483  66.800  1.00  0.00    -0.382 OA 
HETATM   10  C   UNL     1     -12.050  15.297  69.652  1.00  0.00    -0.312 C  
BRANCH   5  11
HETATM   11  N   UNL     1      -9.609  13.249  68.828  1.00  0.00    -0.410 N  
HETATM   12  H   UNL     1     -10.128  12.542  69.347  1.00  0.00     0.000 HD 
BRANCH  11  13
HETATM   13  C   UNL     1      -8.283  13.054  68.568  1.00  0.00    -0.067 C  
HETATM   14  O   UNL     1      -7.544  13.921  68.123  1.00  0.00    -0.109 OA 
BRANCH  13  15
HETATM   15  N   UNL     1      -7.857  11.805  68.938  1.00  0.00    -0.310 N  
HETATM   16  H   UNL     1      -8.482  11.005  68.844  1.00  0.00     0.000 HD 
BRANCH  15  17
HETATM   17  C   UNL     1      -6.533  11.625  69.456  1.00  0.00    -0.122 C  
BRANCH  17  18
HETATM   18  N   UNL     1      -6.455  10.520  70.374  1.00  0.00    -0.139 N  
HETATM   19  H   UNL     1      -5.931  10.611  71.245  1.00  0.00     0.000 HD 
BRANCH  18  20
HETATM   20  C   UNL     1      -7.090   9.345  70.070  1.00  0.00    -0.083 C  
HETATM   21  O   UNL     1      -6.781   8.628  69.127  1.00  0.00    -0.046 OA 
BRANCH  20  22
HETATM   22  N   UNL     1      -8.106   9.052  70.948  1.00  0.00    -0.159 N  
HETATM   23  H   UNL     1      -8.035   9.264  71.944  1.00  0.00     0.000 HD 
BRANCH  22  24
HETATM   24  C   UNL     1      -9.274   8.432  70.384  1.00  0.00    -0.153 C  
HETATM   25  N   UNL     1      -9.802   7.294  71.096  1.00  0.00    -0.182 N  
HETATM   26  O   UNL     1     -10.631  10.519  70.278  1.00  0.00    -0.212 OA 
HETATM   27  C   UNL     1     -11.182   7.272  71.048  1.00  0.00    -0.266 C  
HETATM   28  N   UNL     1     -11.614   8.474  70.592  1.00  0.00    -0.241 NA 
HETATM   29  O   UNL     1     -11.907   6.357  71.398  1.00  0.00    -0.317 OA 
HETATM   30  C   UNL     1     -10.550   9.307  70.408  1.00  0.00    -0.248 C  
BRANCH  25  31
HETATM   31  C   UNL     1      -9.005   6.190  71.528  1.00  0.00    -0.143 C  
HETATM   32  H   UNL     1      -7.529   5.922  72.748  1.00  0.00     0.000 HD 
HETATM   33  O   UNL     1      -8.060   6.656  72.461  1.00  0.00    -0.103 OA 
ENDBRANCH  25  31
ENDBRANCH  22  24
ENDBRANCH  20  22
ENDBRANCH  18  20
ENDBRANCH  17  18
ENDBRANCH  15  17
ENDBRANCH  13  15
ENDBRANCH  11  13
ENDBRANCH   5  11
ENDBRANCH   2   4
TORSDOF 10
ENDMDL
MODEL      417
REMARK 921   NORMALIZED FREE ENERGY PREDICTED BY IDOCK:   -3.32 KCAL/MOL
REMARK 922        TOTAL FREE ENERGY PREDICTED BY IDOCK:   -7.26 KCAL/MOL
REMARK 923 INTER-LIGAND FREE ENERGY PREDICTED BY IDOCK:   -6.38 KCAL/MOL
REMARK 924 INTRA-LIGAND FREE ENERGY PREDICTED BY IDOCK:   -0.88 KCAL/MOL
REMARK 927      BINDING AFFINITY PREDICTED BY RF-SCORE:    0.00 PKD
ROOT
HETATM    1  O   UNL     1     -12.156  10.960  68.067  1.00  0.00    -0.780 OA 
HETATM    2  C   UNL     1     -11.841  12.031  68.924  1.00  0.00    -0.299 C  
HETATM    3  H   UNL     1     -12.089  11.255  67.167  1.00  0.00     0.000 HD 
ENDROOT
BRANCH   2   4
HETATM    4  N   UNL     1     -11.942  11.586  70.282  1.00  0.00    -0.355 N  
HETATM    5  C   UNL     1     -12.168  10.187  70.581  1.00  0.00    -0.302 C  
HETATM    6  O   UNL     1     -12.724  13.615  71.104  1.00  0.00    -0.341 OA 
HETATM    7  C   UNL     1     -13.160  10.336  71.757  1.00  0.00    -0.465 C  
HETATM    8  N   UNL     1     -13.167  11.641  72.143  1.00  0.00    -0.409 NA 
HETATM    9  O   UNL     1     -13.789   9.454  72.322  1.00  0.00    -0.443 OA 
HETATM   10  C   UNL     1     -12.589  12.405  71.190  1.00  0.00    -0.251 C  
BRANCH   5  11
HETATM   11  N   UNL     1     -10.959   9.550  71.041  1.00  0.00    -0.326 N  
HETATM   12  H   UNL     1     -10.231  10.111  71.480  1.00  0.00     0.000 HD 
BRANCH  11  13
HETATM   13  C   UNL     1     -10.777   8.205  70.896  1.00  0.00    -0.221 C  
HETATM   14  O   UNL     1     -11.364   7.364  71.562  1.00  0.00    -0.248 OA 
BRANCH  13  15
HETATM   15  N   UNL     1      -9.924   7.902  69.867  1.00  0.00    -0.189 N  
HETATM   16  H   UNL     1      -9.661   6.933  69.690  1.00  0.00     0.000 HD 
BRANCH  15  17
HETATM   17  C   UNL     1      -9.402   8.949  69.040  1.00  0.00    -0.144 C  
BRANCH  17  18
HETATM   18  N   UNL     1     -10.115   9.065  67.795  1.00  0.00    -0.195 N  
HETATM   19  H   UNL     1     -11.122   9.229  67.792  1.00  0.00     0.000 HD 
BRANCH  18  20
HETATM   20  C   UNL     1      -9.430   8.954  66.613  1.00  0.00    -0.202 C  
HETATM   21  O   UNL     1      -9.780   9.490  65.570  1.00  0.00    -0.283 OA 
BRANCH  20  22
HETATM   22  N   UNL     1      -8.297   8.184  66.732  1.00  0.00    -0.113 N  
HETATM   23  H   UNL     1      -8.307   7.281  67.206  1.00  0.00     0.000 HD 
BRANCH  22  24
HETATM   24  C   UNL     1      -7.099   8.724  66.150  1.00  0.00    -0.085 C  
HETATM   25  N   UNL     1      -7.077   8.832  64.712  1.00  0.00    -0.076 N  
HETATM   26  O   UNL     1      -7.087  10.811  67.512  1.00  0.00    -0.085 OA 
HETATM   27  C   UNL     1      -6.408   9.970  64.307  1.00  0.00    -0.132 C  
HETATM   28  N   UNL     1      -6.231  10.771  65.388  1.00  0.00    -0.066 NA 
HETATM   29  O   UNL     1      -6.071  10.249  63.169  1.00  0.00    -0.133 OA 
HETATM   30  C   UNL     1      -6.832  10.214  66.478  1.00  0.00    -0.090 C  
BRANCH  25  31
HETATM   31  C   UNL     1      -7.430   7.764  63.832  1.00  0.00    -0.107 C  
HETATM   32  H   UNL     1      -6.955   5.900  63.633  1.00  0.00     0.000 HD 
HETATM   33  O   UNL     1      -6.720   6.611  64.218  1.00  0.00    -0.040 OA 
ENDBRANCH  25  31
ENDBRANCH  22  24
ENDBRANCH  20  22
ENDBRANCH  18  20
ENDBRANCH  17  18
ENDBRANCH  15  17
ENDBRANCH  13  15
ENDBRANCH  11  13
ENDBRANCH   5  11
ENDBRANCH   2   4
TORSDOF 10
ENDMDL
MODEL      418
REMARK 921   NORMALIZED FREE ENERGY PREDICTED BY IDOCK:   -3.31 KCAL/MOL
REMARK 922        TOTAL FREE ENERGY PREDICTED BY IDOCK:   -7.25 KCAL/MOL
REMARK 923 INTER-LIGAND FREE ENERGY PREDICTED BY IDOCK:   -6.10 KCAL/MOL
REMARK 924 INTRA-LIGAND FREE ENERGY PREDICTED BY IDOCK:   -1.15 KCAL/MOL
REMARK 927      BINDING AFFINITY PREDICTED BY RF-SCORE:    0.00 PKD
ROOT
HETATM    1  O   UNL     1     -10.094   5.039  69.468  1.00  0.00    -0.212 OA 
HETATM    2  C   UNL     1      -9.393   6.257  69.535  1.00  0.00    -0.142 C  
HETATM    3  H   UNL     1     -10.359   4.787  70.344  1.00  0.00     0.000 HD 
ENDROOT
BRANCH   2   4
HETATM    4  N   UNL     1      -8.992   6.637  68.213  1.00  0.00    -0.123 N  
HETATM    5  C   UNL     1      -9.755   6.202  67.061  1.00  0.00    -0.142 C  
HETATM    6  O   UNL     1      -6.737   6.849  68.737  1.00  0.00    -0.052 OA 
HETATM    7  C   UNL     1      -8.593   5.891  66.090  1.00  0.00    -0.137 C  
HETATM    8  N   UNL     1      -7.448   6.394  66.625  1.00  0.00    -0.081 NA 
HETATM    9  O   UNL     1      -8.658   5.358  64.992  1.00  0.00    -0.148 OA 
HETATM   10  C   UNL     1      -7.638   6.684  67.930  1.00  0.00    -0.107 C  
BRANCH   5  11
HETATM   11  N   UNL     1     -10.558   7.276  66.532  1.00  0.00    -0.479 N  
HETATM   12  H   UNL     1     -11.279   7.072  65.840  1.00  0.00     0.000 HD 
BRANCH  11  13
HETATM   13  C   UNL     1     -10.367   8.563  66.943  1.00  0.00    -0.297 C  
HETATM   14  O   UNL     1     -10.909   9.050  67.927  1.00  0.00    -0.178 OA 
BRANCH  13  15
HETATM   15  N   UNL     1      -9.440   9.223  66.180  1.00  0.00    -0.215 N  
HETATM   16  H   UNL     1      -9.511   9.206  65.163  1.00  0.00     0.000 HD 
BRANCH  15  17
HETATM   17  C   UNL     1      -8.370   9.936  66.813  1.00  0.00    -0.125 C  
BRANCH  17  18
HETATM   18  N   UNL     1      -8.845  10.846  67.821  1.00  0.00    -0.133 N  
HETATM   19  H   UNL     1      -8.904  10.550  68.796  1.00  0.00     0.000 HD 
BRANCH  18  20
HETATM   20  C   UNL     1      -9.217  12.115  67.461  1.00  0.00    -0.182 C  
HETATM   21  O   UNL     1      -8.447  12.947  67.001  1.00  0.00    -0.192 OA 
BRANCH  20  22
HETATM   22  N   UNL     1     -10.558  12.347  67.663  1.00  0.00    -0.213 N  
HETATM   23  H   UNL     1     -11.027  12.078  68.528  1.00  0.00     0.000 HD 
BRANCH  22  24
HETATM   24  C   UNL     1     -11.260  12.990  66.586  1.00  0.00    -0.307 C  
HETATM   25  N   UNL     1     -11.087  14.417  66.469  1.00  0.00    -0.324 N  
HETATM   26  O   UNL     1     -10.350  11.518  64.792  1.00  0.00    -0.257 OA 
HETATM   27  C   UNL     1     -11.050  14.809  65.146  1.00  0.00    -0.384 C  
HETATM   28  N   UNL     1     -10.902  13.702  64.375  1.00  0.00    -0.394 NA 
HETATM   29  O   UNL     1     -11.091  15.952  64.725  1.00  0.00    -0.455 OA 
HETATM   30  C   UNL     1     -10.771  12.601  65.169  1.00  0.00    -0.292 C  
BRANCH  25  31
HETATM   31  C   UNL     1     -11.237  15.325  67.562  1.00  0.00    -0.317 C  
HETATM   32  H   UNL     1     -10.101  16.035  68.957  1.00  0.00     0.000 HD 
HETATM   33  O   UNL     1     -10.002  15.432  68.230  1.00  0.00    -0.211 OA 
ENDBRANCH  25  31
ENDBRANCH  22  24
ENDBRANCH  20  22
ENDBRANCH  18  20
ENDBRANCH  17  18
ENDBRANCH  15  17
ENDBRANCH  13  15
ENDBRANCH  11  13
ENDBRANCH   5  11
ENDBRANCH   2   4
TORSDOF 10
ENDMDL
MODEL      419
REMARK 921   NORMALIZED FREE ENERGY PREDICTED BY IDOCK:   -3.31 KCAL/MOL
REMARK 922        TOTAL FREE ENERGY PREDICTED BY IDOCK:   -7.24 KCAL/MOL
REMARK 923 INTER-LIGAND FREE ENERGY PREDICTED BY IDOCK:   -6.20 KCAL/MOL
REMARK 924 INTRA-LIGAND FREE ENERGY PREDICTED BY IDOCK:   -1.03 KCAL/MOL
REMARK 927      BINDING AFFINITY PREDICTED BY RF-SCORE:    0.00 PKD
ROOT
HETATM    1  O   UNL     1     -11.739   9.594  68.946  1.00  0.00    -0.341 OA 
HETATM    2  C   UNL     1     -11.746   9.243  70.309  1.00  0.00    -0.051 C  
HETATM    3  H   UNL     1     -12.465  10.182  68.775  1.00  0.00     0.000 HD 
ENDROOT
BRANCH   2   4
HETATM    4  N   UNL     1     -10.652   8.356  70.567  1.00  0.00    -0.211 N  
HETATM    5  C   UNL     1     -10.011   7.645  69.479  1.00  0.00    -0.182 C  
HETATM    6  O   UNL     1     -11.314   7.841  72.735  1.00  0.00    -0.370 OA 
HETATM    7  C   UNL     1      -9.792   6.277  70.164  1.00  0.00    -0.170 C  
HETATM    8  N   UNL     1     -10.037   6.425  71.494  1.00  0.00    -0.191 NA 
HETATM    9  O   UNL     1      -9.395   5.240  69.654  1.00  0.00    -0.116 OA 
HETATM   10  C   UNL     1     -10.694   7.584  71.715  1.00  0.00    -0.211 C  
BRANCH   5  11
HETATM   11  N   UNL     1      -8.737   8.235  69.150  1.00  0.00    -0.142 N  
HETATM   12  H   UNL     1      -8.049   8.390  69.886  1.00  0.00     0.000 HD 
BRANCH  11  13
HETATM   13  C   UNL     1      -8.439   8.588  67.865  1.00  0.00    -0.130 C  
HETATM   14  O   UNL     1      -8.069   7.795  67.011  1.00  0.00    -0.113 OA 
BRANCH  13  15
HETATM   15  N   UNL     1      -8.678   9.915  67.620  1.00  0.00    -0.122 N  
HETATM   16  H   UNL     1      -9.000  10.214  66.700  1.00  0.00     0.000 HD 
BRANCH  15  17
HETATM   17  C   UNL     1      -8.474  10.882  68.658  1.00  0.00    -0.152 C  
BRANCH  17  18
HETATM   18  N   UNL     1      -9.291  12.052  68.478  1.00  0.00    -0.336 N  
HETATM   19  H   UNL     1      -9.671  12.544  69.288  1.00  0.00     0.000 HD 
BRANCH  18  20
HETATM   20  C   UNL     1      -9.556  12.501  67.211  1.00  0.00    -0.205 C  
HETATM   21  O   UNL     1      -8.720  12.554  66.319  1.00  0.00    -0.031 OA 
BRANCH  20  22
HETATM   22  N   UNL     1     -10.869  12.875  67.049  1.00  0.00    -0.257 N  
HETATM   23  H   UNL     1     -11.640  12.260  67.307  1.00  0.00     0.000 HD 
BRANCH  22  24
HETATM   24  C   UNL     1     -11.092  14.183  66.494  1.00  0.00    -0.318 C  
HETATM   25  N   UNL     1     -10.387  15.274  67.120  1.00  0.00    -0.261 N  
HETATM   26  O   UNL     1     -10.505  13.557  64.154  1.00  0.00    -0.358 OA 
HETATM   27  C   UNL     1      -9.987  16.210  66.187  1.00  0.00    -0.335 C  
HETATM   28  N   UNL     1     -10.132  15.672  64.950  1.00  0.00    -0.343 NA 
HETATM   29  O   UNL     1      -9.531  17.317  66.418  1.00  0.00    -0.258 OA 
HETATM   30  C   UNL     1     -10.552  14.379  65.056  1.00  0.00    -0.432 C  
BRANCH  25  31
HETATM   31  C   UNL     1     -10.371  15.501  68.530  1.00  0.00    -0.225 C  
HETATM   32  H   UNL     1     -11.457  16.468  69.804  1.00  0.00     0.000 HD 
HETATM   33  O   UNL     1     -11.468  16.316  68.866  1.00  0.00    -0.340 OA 
ENDBRANCH  25  31
ENDBRANCH  22  24
ENDBRANCH  20  22
ENDBRANCH  18  20
ENDBRANCH  17  18
ENDBRANCH  15  17
ENDBRANCH  13  15
ENDBRANCH  11  13
ENDBRANCH   5  11
ENDBRANCH   2   4
TORSDOF 10
ENDMDL
MODEL      420
REMARK 921   NORMALIZED FREE ENERGY PREDICTED BY IDOCK:   -3.30 KCAL/MOL
REMARK 922        TOTAL FREE ENERGY PREDICTED BY IDOCK:   -7.23 KCAL/MOL
REMARK 923 INTER-LIGAND FREE ENERGY PREDICTED BY IDOCK:   -6.22 KCAL/MOL
REMARK 924 INTRA-LIGAND FREE ENERGY PREDICTED BY IDOCK:   -1.01 KCAL/MOL
REMARK 927      BINDING AFFINITY PREDICTED BY RF-SCORE:    0.00 PKD
ROOT
HETATM    1  O   UNL     1      -7.837  12.742  66.737  1.00  0.00    -0.399 OA 
HETATM    2  C   UNL     1      -8.724  13.409  67.603  1.00  0.00    -0.198 C  
HETATM    3  H   UNL     1      -7.070  13.286  66.602  1.00  0.00     0.000 HD 
ENDROOT
BRANCH   2   4
HETATM    4  N   UNL     1      -9.881  12.589  67.806  1.00  0.00    -0.199 N  
HETATM    5  C   UNL     1      -9.741  11.226  68.277  1.00  0.00    -0.198 C  
HETATM    6  O   UNL     1     -11.185  13.682  66.222  1.00  0.00    -0.299 OA 
HETATM    7  C   UNL     1     -10.822  10.545  67.406  1.00  0.00    -0.291 C  
HETATM    8  N   UNL     1     -11.566  11.519  66.816  1.00  0.00    -0.492 NA 
HETATM    9  O   UNL     1     -11.051   9.350  67.297  1.00  0.00    -0.085 OA 
HETATM   10  C   UNL     1     -10.929  12.707  66.911  1.00  0.00    -0.262 C  
BRANCH   5  11
HETATM   11  N   UNL     1     -10.098  11.116  69.670  1.00  0.00    -0.401 N  
HETATM   12  H   UNL     1      -9.374  10.921  70.360  1.00  0.00     0.000 HD 
BRANCH  11  13
HETATM   13  C   UNL     1     -11.392  11.270  70.077  1.00  0.00    -0.208 C  
HETATM   14  O   UNL     1     -11.933  12.357  70.224  1.00  0.00    -0.349 OA 
BRANCH  13  15
HETATM   15  N   UNL     1     -12.038  10.071  70.222  1.00  0.00    -0.448 N  
HETATM   16  H   UNL     1     -12.981   9.951  69.853  1.00  0.00     0.000 HD 
BRANCH  15  17
HETATM   17  C   UNL     1     -11.389   8.985  70.895  1.00  0.00    -0.293 C  
BRANCH  17  18
HETATM   18  N   UNL     1     -11.859   7.703  70.438  1.00  0.00    -0.490 N  
HETATM   19  H   UNL     1     -12.858   7.492  70.438  1.00  0.00     0.000 HD 
BRANCH  18  20
HETATM   20  C   UNL     1     -10.956   6.770  70.004  1.00  0.00    -0.295 C  
HETATM   21  O   UNL     1     -10.816   5.667  70.516  1.00  0.00    -0.283 OA 
BRANCH  20  22
HETATM   22  N   UNL     1     -10.230   7.204  68.920  1.00  0.00    -0.181 N  
HETATM   23  H   UNL     1     -10.589   7.911  68.280  1.00  0.00     0.000 HD 
BRANCH  22  24
HETATM   24  C   UNL     1      -8.935   6.604  68.742  1.00  0.00    -0.125 C  
HETATM   25  N   UNL     1      -8.083   6.561  69.904  1.00  0.00    -0.119 N  
HETATM   26  O   UNL     1      -9.790   4.461  67.799  1.00  0.00    -0.156 OA 
HETATM   27  C   UNL     1      -7.342   5.397  69.938  1.00  0.00    -0.065 C  
HETATM   28  N   UNL     1      -7.855   4.536  69.023  1.00  0.00    -0.070 NA 
HETATM   29  O   UNL     1      -6.414   5.147  70.687  1.00  0.00    -0.028 OA 
HETATM   30  C   UNL     1      -8.960   5.085  68.442  1.00  0.00    -0.107 C  
BRANCH  25  31
HETATM   31  C   UNL     1      -7.821   7.693  70.736  1.00  0.00    -0.096 C  
HETATM   32  H   UNL     1      -7.672   9.605  70.491  1.00  0.00     0.000 HD 
HETATM   33  O   UNL     1      -7.846   8.852  69.938  1.00  0.00    -0.083 OA 
ENDBRANCH  25  31
ENDBRANCH  22  24
ENDBRANCH  20  22
ENDBRANCH  18  20
ENDBRANCH  17  18
ENDBRANCH  15  17
ENDBRANCH  13  15
ENDBRANCH  11  13
ENDBRANCH   5  11
ENDBRANCH   2   4
TORSDOF 10
ENDMDL
MODEL      421
REMARK 921   NORMALIZED FREE ENERGY PREDICTED BY IDOCK:   -3.28 KCAL/MOL
REMARK 922        TOTAL FREE ENERGY PREDICTED BY IDOCK:   -7.20 KCAL/MOL
REMARK 923 INTER-LIGAND FREE ENERGY PREDICTED BY IDOCK:   -5.40 KCAL/MOL
REMARK 924 INTRA-LIGAND FREE ENERGY PREDICTED BY IDOCK:   -1.79 KCAL/MOL
REMARK 927      BINDING AFFINITY PREDICTED BY RF-SCORE:    0.00 PKD
ROOT
HETATM    1  O   UNL     1      -6.927  13.443  69.935  1.00  0.00    -0.335 OA 
HETATM    2  C   UNL     1      -7.313  14.132  68.770  1.00  0.00    -0.128 C  
HETATM    3  H   UNL     1      -6.120  13.822  70.265  1.00  0.00     0.000 HD 
ENDROOT
BRANCH   2   4
HETATM    4  N   UNL     1      -8.529  13.561  68.273  1.00  0.00    -0.167 N  
HETATM    5  C   UNL     1      -8.541  12.840  67.016  1.00  0.00    -0.177 C  
HETATM    6  O   UNL     1      -9.921  15.091  69.332  1.00  0.00    -0.220 OA 
HETATM    7  C   UNL     1      -9.887  13.345  66.447  1.00  0.00    -0.296 C  
HETATM    8  N   UNL     1     -10.552  13.991  67.443  1.00  0.00    -0.277 NA 
HETATM    9  O   UNL     1     -10.346  13.154  65.331  1.00  0.00    -0.291 OA 
HETATM   10  C   UNL     1      -9.705  14.265  68.459  1.00  0.00    -0.225 C  
BRANCH   5  11
HETATM   11  N   UNL     1      -8.606  11.416  67.231  1.00  0.00    -0.142 N  
HETATM   12  H   UNL     1      -9.360  11.027  67.795  1.00  0.00     0.000 HD 
BRANCH  11  13
HETATM   13  C   UNL     1      -7.671  10.582  66.690  1.00  0.00    -0.123 C  
HETATM   14  O   UNL     1      -6.921  10.902  65.778  1.00  0.00    -0.093 OA 
BRANCH  13  15
HETATM   15  N   UNL     1      -7.611   9.376  67.338  1.00  0.00    -0.094 N  
HETATM   16  H   UNL     1      -7.984   8.538  66.891  1.00  0.00     0.000 HD 
BRANCH  15  17
HETATM   17  C   UNL     1      -7.025   9.293  68.643  1.00  0.00    -0.062 C  
BRANCH  17  18
HETATM   18  N   UNL     1      -7.600   8.234  69.430  1.00  0.00    -0.094 N  
HETATM   19  H   UNL     1      -7.508   8.240  70.446  1.00  0.00     0.000 HD 
BRANCH  18  20
HETATM   20  C   UNL     1      -8.273   7.218  68.804  1.00  0.00    -0.129 C  
HETATM   21  O   UNL     1      -7.854   6.630  67.817  1.00  0.00    -0.108 OA 
BRANCH  20  22
HETATM   22  N   UNL     1      -9.469   6.924  69.416  1.00  0.00    -0.149 N  
HETATM   23  H   UNL     1      -9.584   6.099  70.005  1.00  0.00     0.000 HD 
BRANCH  22  24
HETATM   24  C   UNL     1     -10.547   7.845  69.178  1.00  0.00    -0.173 C  
HETATM   25  N   UNL     1     -10.549   9.049  69.971  1.00  0.00    -0.221 N  
HETATM   26  O   UNL     1     -10.174   8.025  66.720  1.00  0.00    -0.279 OA 
HETATM   27  C   UNL     1     -10.995  10.130  69.237  1.00  0.00    -0.240 C  
HETATM   28  N   UNL     1     -11.022   9.777  67.927  1.00  0.00    -0.240 NA 
HETATM   29  O   UNL     1     -11.276  11.235  69.668  1.00  0.00    -0.257 OA 
HETATM   30  C   UNL     1     -10.534   8.512  67.781  1.00  0.00    -0.223 C  
BRANCH  25  31
HETATM   31  C   UNL     1     -10.398   9.062  71.391  1.00  0.00    -0.326 C  
HETATM   32  H   UNL     1      -8.926   9.148  72.642  1.00  0.00     0.000 HD 
HETATM   33  O   UNL     1      -9.026   9.140  71.697  1.00  0.00    -0.336 OA 
ENDBRANCH  25  31
ENDBRANCH  22  24
ENDBRANCH  20  22
ENDBRANCH  18  20
ENDBRANCH  17  18
ENDBRANCH  15  17
ENDBRANCH  13  15
ENDBRANCH  11  13
ENDBRANCH   5  11
ENDBRANCH   2   4
TORSDOF 10
ENDMDL
MODEL      422
REMARK 921   NORMALIZED FREE ENERGY PREDICTED BY IDOCK:   -3.26 KCAL/MOL
REMARK 922        TOTAL FREE ENERGY PREDICTED BY IDOCK:   -7.17 KCAL/MOL
REMARK 923 INTER-LIGAND FREE ENERGY PREDICTED BY IDOCK:   -6.61 KCAL/MOL
REMARK 924 INTRA-LIGAND FREE ENERGY PREDICTED BY IDOCK:   -0.56 KCAL/MOL
REMARK 927      BINDING AFFINITY PREDICTED BY RF-SCORE:    0.00 PKD
ROOT
HETATM    1  O   UNL     1      -6.737  11.969  68.143  1.00  0.00    -0.057 OA 
HETATM    2  C   UNL     1      -7.189  11.685  66.841  1.00  0.00    -0.125 C  
HETATM    3  H   UNL     1      -5.824  12.229  68.103  1.00  0.00     0.000 HD 
ENDROOT
BRANCH   2   4
HETATM    4  N   UNL     1      -8.566  11.293  66.902  1.00  0.00    -0.144 N  
HETATM    5  C   UNL     1      -9.168  10.922  68.167  1.00  0.00    -0.158 C  
HETATM    6  O   UNL     1      -8.649  10.500  64.719  1.00  0.00    -0.177 OA 
HETATM    7  C   UNL     1     -10.035   9.732  67.695  1.00  0.00    -0.174 C  
HETATM    8  N   UNL     1     -10.055   9.736  66.334  1.00  0.00    -0.245 NA 
HETATM    9  O   UNL     1     -10.670   8.949  68.385  1.00  0.00    -0.176 OA 
HETATM   10  C   UNL     1      -9.075  10.536  65.862  1.00  0.00    -0.168 C  
BRANCH   5  11
HETATM   11  N   UNL     1     -10.016  11.974  68.669  1.00  0.00    -0.348 N  
HETATM   12  H   UNL     1     -10.759  11.749  69.329  1.00  0.00     0.000 HD 
BRANCH  11  13
HETATM   13  C   UNL     1      -9.838  13.268  68.272  1.00  0.00    -0.231 C  
HETATM   14  O   UNL     1      -8.991  14.013  68.744  1.00  0.00    -0.141 OA 
BRANCH  13  15
HETATM   15  N   UNL     1     -10.660  13.612  67.231  1.00  0.00    -0.266 N  
HETATM   16  H   UNL     1     -10.918  12.915  66.533  1.00  0.00     0.000 HD 
BRANCH  15  17
HETATM   17  C   UNL     1     -11.156  14.952  67.124  1.00  0.00    -0.332 C  
BRANCH  17  18
HETATM   18  N   UNL     1     -10.413  15.732  66.170  1.00  0.00    -0.305 N  
HETATM   19  H   UNL     1     -10.099  15.312  65.295  1.00  0.00     0.000 HD 
BRANCH  18  20
HETATM   20  C   UNL     1     -10.132  17.044  66.447  1.00  0.00    -0.317 C  
HETATM   21  O   UNL     1      -9.788  17.860  65.602  1.00  0.00    -0.512 OA 
BRANCH  20  22
HETATM   22  N   UNL     1     -10.291  17.347  67.779  1.00  0.00    -0.344 N  
HETATM   23  H   UNL     1     -11.025  16.921  68.344  1.00  0.00     0.000 HD 
BRANCH  22  24
HETATM   24  C   UNL     1      -9.363  18.298  68.329  1.00  0.00    -0.308 C  
HETATM   25  N   UNL     1      -7.966  18.056  68.065  1.00  0.00    -0.248 N  
HETATM   26  O   UNL     1     -10.447  20.303  67.321  1.00  0.00    -0.346 OA 
HETATM   27  C   UNL     1      -7.283  19.240  67.869  1.00  0.00    -0.253 C  
HETATM   28  N   UNL     1      -8.190  20.236  67.705  1.00  0.00    -0.303 NA 
HETATM   29  O   UNL     1      -6.074  19.380  67.803  1.00  0.00    -0.201 OA 
HETATM   30  C   UNL     1      -9.451  19.718  67.718  1.00  0.00    -0.350 C  
BRANCH  25  31
HETATM   31  C   UNL     1      -7.326  16.797  68.276  1.00  0.00    -0.183 C  
HETATM   32  H   UNL     1      -6.454  15.468  67.175  1.00  0.00     0.000 HD 
HETATM   33  O   UNL     1      -6.880  16.306  67.035  1.00  0.00    -0.192 OA 
ENDBRANCH  25  31
ENDBRANCH  22  24
ENDBRANCH  20  22
ENDBRANCH  18  20
ENDBRANCH  17  18
ENDBRANCH  15  17
ENDBRANCH  13  15
ENDBRANCH  11  13
ENDBRANCH   5  11
ENDBRANCH   2   4
TORSDOF 10
ENDMDL
MODEL      423
REMARK 921   NORMALIZED FREE ENERGY PREDICTED BY IDOCK:   -3.26 KCAL/MOL
REMARK 922        TOTAL FREE ENERGY PREDICTED BY IDOCK:   -7.16 KCAL/MOL
REMARK 923 INTER-LIGAND FREE ENERGY PREDICTED BY IDOCK:   -6.23 KCAL/MOL
REMARK 924 INTRA-LIGAND FREE ENERGY PREDICTED BY IDOCK:   -0.93 KCAL/MOL
REMARK 927      BINDING AFFINITY PREDICTED BY RF-SCORE:    0.00 PKD
ROOT
HETATM    1  O   UNL     1     -12.472  14.464  72.914  1.00  0.00    -0.270 OA 
HETATM    2  C   UNL     1     -11.361  15.154  72.392  1.00  0.00    -0.176 C  
HETATM    3  H   UNL     1     -12.413  14.456  73.862  1.00  0.00     0.000 HD 
ENDROOT
BRANCH   2   4
HETATM    4  N   UNL     1     -11.449  15.165  70.962  1.00  0.00    -0.319 N  
HETATM    5  C   UNL     1     -10.324  15.600  70.161  1.00  0.00    -0.254 C  
HETATM    6  O   UNL     1     -13.754  15.461  70.902  1.00  0.00    -0.432 OA 
HETATM    7  C   UNL     1     -11.080  16.396  69.073  1.00  0.00    -0.315 C  
HETATM    8  N   UNL     1     -12.407  16.120  69.192  1.00  0.00     0.116 NA 
HETATM    9  O   UNL     1     -10.605  17.098  68.193  1.00  0.00    -0.351 OA 
HETATM   10  C   UNL     1     -12.651  15.536  70.386  1.00  0.00    -0.378 C  
BRANCH   5  11
HETATM   11  N   UNL     1      -9.645  14.478  69.561  1.00  0.00    -0.405 N  
HETATM   12  H   UNL     1      -8.665  14.307  69.782  1.00  0.00     0.000 HD 
BRANCH  11  13
HETATM   13  C   UNL     1     -10.297  13.642  68.702  1.00  0.00    -0.219 C  
HETATM   14  O   UNL     1     -11.166  12.853  69.050  1.00  0.00    -0.257 OA 
BRANCH  13  15
HETATM   15  N   UNL     1      -9.928  13.842  67.398  1.00  0.00    -0.234 N  
HETATM   16  H   UNL     1      -9.712  14.782  67.068  1.00  0.00     0.000 HD 
BRANCH  15  17
HETATM   17  C   UNL     1      -9.846  12.729  66.499  1.00  0.00    -0.258 C  
BRANCH  17  18
HETATM   18  N   UNL     1      -9.639  11.485  67.192  1.00  0.00    -0.176 N  
HETATM   19  H   UNL     1     -10.288  11.186  67.921  1.00  0.00     0.000 HD 
BRANCH  18  20
HETATM   20  C   UNL     1      -8.562  10.703  66.865  1.00  0.00    -0.126 C  
HETATM   21  O   UNL     1      -7.662  11.062  66.117  1.00  0.00    -0.155 OA 
BRANCH  20  22
HETATM   22  N   UNL     1      -8.597   9.474  67.481  1.00  0.00    -0.125 N  
HETATM   23  H   UNL     1      -7.894   8.759  67.296  1.00  0.00     0.000 HD 
BRANCH  22  24
HETATM   24  C   UNL     1      -9.680   9.256  68.400  1.00  0.00    -0.154 C  
HETATM   25  N   UNL     1     -10.379   8.000  68.281  1.00  0.00    -0.205 N  
HETATM   26  O   UNL     1      -8.345   9.699  70.458  1.00  0.00    -0.190 OA 
HETATM   27  C   UNL     1     -10.756   7.519  69.519  1.00  0.00    -0.217 C  
HETATM   28  N   UNL     1     -10.106   8.232  70.472  1.00  0.00    -0.194 NA 
HETATM   29  O   UNL     1     -11.505   6.583  69.738  1.00  0.00    -0.388 OA 
HETATM   30  C   UNL     1      -9.257   9.122  69.883  1.00  0.00    -0.183 C  
BRANCH  25  31
HETATM   31  C   UNL     1     -10.873   7.483  67.045  1.00  0.00    -0.194 C  
HETATM   32  H   UNL     1     -10.379   6.067  65.823  1.00  0.00     0.000 HD 
HETATM   33  O   UNL     1     -10.051   6.412  66.646  1.00  0.00    -0.176 OA 
ENDBRANCH  25  31
ENDBRANCH  22  24
ENDBRANCH  20  22
ENDBRANCH  18  20
ENDBRANCH  17  18
ENDBRANCH  15  17
ENDBRANCH  13  15
ENDBRANCH  11  13
ENDBRANCH   5  11
ENDBRANCH   2   4
TORSDOF 10
ENDMDL
MODEL      424
REMARK 921   NORMALIZED FREE ENERGY PREDICTED BY IDOCK:   -3.26 KCAL/MOL
REMARK 922        TOTAL FREE ENERGY PREDICTED BY IDOCK:   -7.16 KCAL/MOL
REMARK 923 INTER-LIGAND FREE ENERGY PREDICTED BY IDOCK:   -7.19 KCAL/MOL
REMARK 924 INTRA-LIGAND FREE ENERGY PREDICTED BY IDOCK:    0.03 KCAL/MOL
REMARK 927      BINDING AFFINITY PREDICTED BY RF-SCORE:    0.00 PKD
ROOT
HETATM    1  O   UNL     1     -12.331  10.445  68.865  1.00  0.00    -0.717 OA 
HETATM    2  C   UNL     1     -11.071  10.004  69.309  1.00  0.00    -0.206 C  
HETATM    3  H   UNL     1     -12.921  10.494  69.608  1.00  0.00     0.000 HD 
ENDROOT
BRANCH   2   4
HETATM    4  N   UNL     1     -10.181   9.931  68.189  1.00  0.00    -0.170 N  
HETATM    5  C   UNL     1      -9.644  11.139  67.598  1.00  0.00    -0.170 C  
HETATM    6  O   UNL     1     -11.023   7.916  67.392  1.00  0.00    -0.173 OA 
HETATM    7  C   UNL     1      -9.723  10.748  66.104  1.00  0.00    -0.207 C  
HETATM    8  N   UNL     1      -9.992   9.416  66.029  1.00  0.00    -0.300 NA 
HETATM    9  O   UNL     1      -9.514  11.458  65.133  1.00  0.00    -0.227 OA 
HETATM   10  C   UNL     1     -10.421   8.965  67.228  1.00  0.00    -0.277 C  
BRANCH   5  11
HETATM   11  N   UNL     1      -8.267  11.337  67.977  1.00  0.00    -0.128 N  
HETATM   12  H   UNL     1      -7.956  11.059  68.907  1.00  0.00     0.000 HD 
BRANCH  11  13
HETATM   13  C   UNL     1      -7.373  11.892  67.107  1.00  0.00    -0.142 C  
HETATM   14  O   UNL     1      -6.423  11.286  66.630  1.00  0.00    -0.119 OA 
BRANCH  13  15
HETATM   15  N   UNL     1      -7.705  13.177  66.767  1.00  0.00    -0.309 N  
HETATM   16  H   UNL     1      -7.961  13.401  65.806  1.00  0.00     0.000 HD 
BRANCH  15  17
HETATM   17  C   UNL     1      -7.691  14.207  67.764  1.00  0.00    -0.168 C  
BRANCH  17  18
HETATM   18  N   UNL     1      -7.360  15.494  67.211  1.00  0.00    -0.209 N  
HETATM   19  H   UNL     1      -6.455  15.921  67.408  1.00  0.00     0.000 HD 
BRANCH  18  20
HETATM   20  C   UNL     1      -8.272  16.141  66.419  1.00  0.00    -0.301 C  
HETATM   21  O   UNL     1      -7.998  17.096  65.705  1.00  0.00    -0.381 OA 
BRANCH  20  22
HETATM   22  N   UNL     1      -9.529  15.589  66.505  1.00  0.00    -0.252 N  
HETATM   23  H   UNL     1      -9.782  14.743  65.995  1.00  0.00     0.000 HD 
BRANCH  22  24
HETATM   24  C   UNL     1     -10.465  16.274  67.353  1.00  0.00    -0.304 C  
HETATM   25  N   UNL     1     -11.394  15.446  68.083  1.00  0.00    -0.338 N  
HETATM   26  O   UNL     1      -8.748  17.560  68.622  1.00  0.00    -0.279 OA 
HETATM   27  C   UNL     1     -11.642  15.961  69.339  1.00  0.00    -0.349 C  
HETATM   28  N   UNL     1     -10.721  16.924  69.597  1.00  0.00    -0.261 NA 
HETATM   29  O   UNL     1     -12.504  15.594  70.119  1.00  0.00    -0.389 OA 
HETATM   30  C   UNL     1      -9.833  17.000  68.565  1.00  0.00    -0.290 C  
BRANCH  25  31
HETATM   31  C   UNL     1     -12.173  14.411  67.481  1.00  0.00    -0.175 C  
HETATM   32  H   UNL     1     -12.463  12.523  67.781  1.00  0.00     0.000 HD 
HETATM   33  O   UNL     1     -11.945  13.212  68.181  1.00  0.00    -0.344 OA 
ENDBRANCH  25  31
ENDBRANCH  22  24
ENDBRANCH  20  22
ENDBRANCH  18  20
ENDBRANCH  17  18
ENDBRANCH  15  17
ENDBRANCH  13  15
ENDBRANCH  11  13
ENDBRANCH   5  11
ENDBRANCH   2   4
TORSDOF 10
ENDMDL
MODEL      425
REMARK 921   NORMALIZED FREE ENERGY PREDICTED BY IDOCK:   -3.25 KCAL/MOL
REMARK 922        TOTAL FREE ENERGY PREDICTED BY IDOCK:   -7.15 KCAL/MOL
REMARK 923 INTER-LIGAND FREE ENERGY PREDICTED BY IDOCK:   -5.97 KCAL/MOL
REMARK 924 INTRA-LIGAND FREE ENERGY PREDICTED BY IDOCK:   -1.18 KCAL/MOL
REMARK 927      BINDING AFFINITY PREDICTED BY RF-SCORE:    0.00 PKD
ROOT
HETATM    1  O   UNL     1      -6.995  13.918  70.179  1.00  0.00    -0.369 OA 
HETATM    2  C   UNL     1      -7.486  14.962  69.374  1.00  0.00    -0.174 C  
HETATM    3  H   UNL     1      -6.273  14.245  70.703  1.00  0.00     0.000 HD 
ENDROOT
BRANCH   2   4
HETATM    4  N   UNL     1      -8.574  14.468  68.584  1.00  0.00    -0.170 N  
HETATM    5  C   UNL     1      -8.413  14.267  67.158  1.00  0.00    -0.200 C  
HETATM    6  O   UNL     1     -10.235  15.315  69.972  1.00  0.00    -0.269 OA 
HETATM    7  C   UNL     1      -9.791  14.774  66.673  1.00  0.00    -0.259 C  
HETATM    8  N   UNL     1     -10.595  14.920  67.761  1.00  0.00    -0.258 NA 
HETATM    9  O   UNL     1     -10.160  14.953  65.522  1.00  0.00    -0.328 OA 
HETATM   10  C   UNL     1      -9.852  14.903  68.889  1.00  0.00    -0.230 C  
BRANCH   5  11
HETATM   11  N   UNL     1      -8.271  12.868  66.842  1.00  0.00    -0.394 N  
HETATM   12  H   UNL     1      -9.076  12.345  66.500  1.00  0.00     0.000 HD 
BRANCH  11  13
HETATM   13  C   UNL     1      -7.072  12.233  66.994  1.00  0.00    -0.037 C  
HETATM   14  O   UNL     1      -5.998  12.816  67.055  1.00  0.00    -0.307 OA 
BRANCH  13  15
HETATM   15  N   UNL     1      -7.214  10.880  67.152  1.00  0.00    -0.098 N  
HETATM   16  H   UNL     1      -6.850  10.242  66.444  1.00  0.00     0.000 HD 
BRANCH  15  17
HETATM   17  C   UNL     1      -7.876  10.361  68.312  1.00  0.00    -0.105 C  
BRANCH  17  18
HETATM   18  N   UNL     1      -8.532   9.107  68.048  1.00  0.00    -0.121 N  
HETATM   19  H   UNL     1      -8.027   8.228  68.159  1.00  0.00     0.000 HD 
BRANCH  18  20
HETATM   20  C   UNL     1      -9.842   9.105  67.647  1.00  0.00    -0.172 C  
HETATM   21  O   UNL     1     -10.320   9.926  66.875  1.00  0.00    -0.230 OA 
BRANCH  20  22
HETATM   22  N   UNL     1     -10.560   8.069  68.197  1.00  0.00    -0.388 N  
HETATM   23  H   UNL     1     -10.883   7.280  67.637  1.00  0.00     0.000 HD 
BRANCH  22  24
HETATM   24  C   UNL     1     -10.828   8.162  69.606  1.00  0.00    -0.158 C  
HETATM   25  N   UNL     1      -9.724   7.879  70.489  1.00  0.00    -0.174 N  
HETATM   26  O   UNL     1     -11.740  10.480  69.527  1.00  0.00    -0.262 OA 
HETATM   27  C   UNL     1      -9.752   8.695  71.602  1.00  0.00    -0.278 C  
HETATM   28  N   UNL     1     -10.642   9.694  71.378  1.00  0.00    -0.236 NA 
HETATM   29  O   UNL     1      -9.067   8.583  72.604  1.00  0.00    -0.253 OA 
HETATM   30  C   UNL     1     -11.144   9.590  70.114  1.00  0.00    -0.255 C  
BRANCH  25  31
HETATM   31  C   UNL     1      -8.897   6.719  70.377  1.00  0.00    -0.152 C  
HETATM   32  H   UNL     1      -7.043   6.358  69.965  1.00  0.00     0.000 HD 
HETATM   33  O   UNL     1      -7.593   7.129  70.041  1.00  0.00    -0.087 OA 
ENDBRANCH  25  31
ENDBRANCH  22  24
ENDBRANCH  20  22
ENDBRANCH  18  20
ENDBRANCH  17  18
ENDBRANCH  15  17
ENDBRANCH  13  15
ENDBRANCH  11  13
ENDBRANCH   5  11
ENDBRANCH   2   4
TORSDOF 10
ENDMDL
MODEL      426
REMARK 921   NORMALIZED FREE ENERGY PREDICTED BY IDOCK:   -3.23 KCAL/MOL
REMARK 922        TOTAL FREE ENERGY PREDICTED BY IDOCK:   -7.11 KCAL/MOL
REMARK 923 INTER-LIGAND FREE ENERGY PREDICTED BY IDOCK:   -5.46 KCAL/MOL
REMARK 924 INTRA-LIGAND FREE ENERGY PREDICTED BY IDOCK:   -1.65 KCAL/MOL
REMARK 927      BINDING AFFINITY PREDICTED BY RF-SCORE:    0.00 PKD
ROOT
HETATM    1  O   UNL     1      -8.833   6.330  63.616  1.00  0.00    -0.195 OA 
HETATM    2  C   UNL     1      -8.336   5.569  64.690  1.00  0.00    -0.131 C  
HETATM    3  H   UNL     1      -8.413   6.043  62.814  1.00  0.00     0.000 HD 
ENDROOT
BRANCH   2   4
HETATM    4  N   UNL     1      -8.969   6.001  65.900  1.00  0.00    -0.153 N  
HETATM    5  C   UNL     1      -8.179   6.528  66.995  1.00  0.00    -0.113 C  
HETATM    6  O   UNL     1     -10.794   4.576  65.695  1.00  0.00    -0.270 OA 
HETATM    7  C   UNL     1      -8.928   5.881  68.182  1.00  0.00    -0.115 C  
HETATM    8  N   UNL     1     -10.092   5.356  67.713  1.00  0.00    -0.166 NA 
HETATM    9  O   UNL     1      -8.606   5.883  69.361  1.00  0.00    -0.112 OA 
HETATM   10  C   UNL     1     -10.051   5.275  66.365  1.00  0.00    -0.226 C  
BRANCH   5  11
HETATM   11  N   UNL     1      -8.289   7.963  67.073  1.00  0.00    -0.116 N  
HETATM   12  H   UNL     1      -7.743   8.472  67.767  1.00  0.00     0.000 HD 
BRANCH  11  13
HETATM   13  C   UNL     1      -9.116   8.651  66.232  1.00  0.00    -0.186 C  
HETATM   14  O   UNL     1      -8.835   8.915  65.070  1.00  0.00    -0.190 OA 
BRANCH  13  15
HETATM   15  N   UNL     1     -10.324   8.940  66.808  1.00  0.00    -0.268 N  
HETATM   16  H   UNL     1     -11.152   9.058  66.225  1.00  0.00     0.000 HD 
BRANCH  15  17
HETATM   17  C   UNL     1     -10.423   9.078  68.231  1.00  0.00    -0.200 C  
BRANCH  17  18
HETATM   18  N   UNL     1     -10.309  10.449  68.654  1.00  0.00    -0.174 N  
HETATM   19  H   UNL     1     -11.146  11.011  68.811  1.00  0.00     0.000 HD 
BRANCH  18  20
HETATM   20  C   UNL     1      -9.066  10.993  68.844  1.00  0.00    -0.123 C  
HETATM   21  O   UNL     1      -8.144  10.410  69.398  1.00  0.00    -0.151 OA 
BRANCH  20  22
HETATM   22  N   UNL     1      -8.965  12.265  68.331  1.00  0.00    -0.296 N  
HETATM   23  H   UNL     1      -8.083  12.635  67.976  1.00  0.00     0.000 HD 
BRANCH  22  24
HETATM   24  C   UNL     1     -10.173  13.044  68.324  1.00  0.00    -0.246 C  
HETATM   25  N   UNL     1     -10.013  14.476  68.396  1.00  0.00    -0.234 N  
HETATM   26  O   UNL     1     -11.096  12.041  66.238  1.00  0.00    -0.289 OA 
HETATM   27  C   UNL     1     -10.958  15.123  67.625  1.00  0.00    -0.308 C  
HETATM   28  N   UNL     1     -11.557  14.208  66.823  1.00  0.00    -0.372 NA 
HETATM   29  O   UNL     1     -11.194  16.319  67.617  1.00  0.00    -0.244 OA 
HETATM   30  C   UNL     1     -10.974  12.987  67.001  1.00  0.00    -0.265 C  
BRANCH  25  31
HETATM   31  C   UNL     1      -9.190  15.134  69.360  1.00  0.00    -0.175 C  
HETATM   32  H   UNL     1      -7.306  15.522  69.561  1.00  0.00     0.000 HD 
HETATM   33  O   UNL     1      -7.854  15.085  68.919  1.00  0.00    -0.140 OA 
ENDBRANCH  25  31
ENDBRANCH  22  24
ENDBRANCH  20  22
ENDBRANCH  18  20
ENDBRANCH  17  18
ENDBRANCH  15  17
ENDBRANCH  13  15
ENDBRANCH  11  13
ENDBRANCH   5  11
ENDBRANCH   2   4
TORSDOF 10
ENDMDL
MODEL      427
REMARK 921   NORMALIZED FREE ENERGY PREDICTED BY IDOCK:   -3.20 KCAL/MOL
REMARK 922        TOTAL FREE ENERGY PREDICTED BY IDOCK:   -7.06 KCAL/MOL
REMARK 923 INTER-LIGAND FREE ENERGY PREDICTED BY IDOCK:   -5.79 KCAL/MOL
REMARK 924 INTRA-LIGAND FREE ENERGY PREDICTED BY IDOCK:   -1.27 KCAL/MOL
REMARK 927      BINDING AFFINITY PREDICTED BY RF-SCORE:    0.00 PKD
ROOT
HETATM    1  O   UNL     1     -11.326  11.100  63.189  1.00  0.00    -0.808 OA 
HETATM    2  C   UNL     1     -11.726  12.443  63.058  1.00  0.00    -0.017 C  
HETATM    3  H   UNL     1     -11.521  10.640  62.381  1.00  0.00     0.000 HD 
ENDROOT
BRANCH   2   4
HETATM    4  N   UNL     1     -11.434  13.137  64.277  1.00  0.00    -0.366 N  
HETATM    5  C   UNL     1     -11.098  12.401  65.478  1.00  0.00    -0.300 C  
HETATM    6  O   UNL     1     -12.731  14.998  63.769  1.00  0.00    -0.741 OA 
HETATM    7  C   UNL     1     -11.865  13.249  66.518  1.00  0.00    -0.398 C  
HETATM    8  N   UNL     1     -12.267  14.399  65.913  1.00  0.00    -0.374 NA 
HETATM    9  O   UNL     1     -12.038  13.004  67.703  1.00  0.00    -0.325 OA 
HETATM   10  C   UNL     1     -12.165  14.274  64.572  1.00  0.00    -0.455 C  
BRANCH   5  11
HETATM   11  N   UNL     1      -9.683  12.461  65.749  1.00  0.00    -0.341 N  
HETATM   12  H   UNL     1      -9.073  12.983  65.120  1.00  0.00     0.000 HD 
BRANCH  11  13
HETATM   13  C   UNL     1      -9.149  11.829  66.834  1.00  0.00    -0.192 C  
HETATM   14  O   UNL     1      -9.265  10.630  67.047  1.00  0.00    -0.150 OA 
BRANCH  13  15
HETATM   15  N   UNL     1      -8.400  12.672  67.613  1.00  0.00    -0.161 N  
HETATM   16  H   UNL     1      -8.685  13.644  67.732  1.00  0.00     0.000 HD 
BRANCH  15  17
HETATM   17  C   UNL     1      -7.218  12.186  68.259  1.00  0.00    -0.095 C  
BRANCH  17  18
HETATM   18  N   UNL     1      -7.507  11.149  69.214  1.00  0.00    -0.259 N  
HETATM   19  H   UNL     1      -8.294  11.245  69.856  1.00  0.00     0.000 HD 
BRANCH  18  20
HETATM   20  C   UNL     1      -6.716  10.030  69.253  1.00  0.00    -0.057 C  
HETATM   21  O   UNL     1      -5.755   9.901  69.998  1.00  0.00    -0.039 OA 
BRANCH  20  22
HETATM   22  N   UNL     1      -7.131   9.062  68.369  1.00  0.00    -0.075 N  
HETATM   23  H   UNL     1      -7.180   9.234  67.365  1.00  0.00     0.000 HD 
BRANCH  22  24
HETATM   24  C   UNL     1      -7.493   7.793  68.942  1.00  0.00    -0.095 C  
HETATM   25  N   UNL     1      -6.421   7.025  69.526  1.00  0.00    -0.042 N  
HETATM   26  O   UNL     1      -9.273   8.699  70.432  1.00  0.00    -0.156 OA 
HETATM   27  C   UNL     1      -6.846   6.353  70.654  1.00  0.00    -0.063 C  
HETATM   28  N   UNL     1      -8.055   6.850  71.019  1.00  0.00    -0.106 NA 
HETATM   29  O   UNL     1      -6.233   5.493  71.263  1.00  0.00    -0.031 OA 
HETATM   30  C   UNL     1      -8.397   7.881  70.195  1.00  0.00    -0.127 C  
BRANCH  25  31
HETATM   31  C   UNL     1      -5.185   6.758  68.862  1.00  0.00    -0.013 C  
HETATM   32  H   UNL     1      -4.619   5.761  67.305  1.00  0.00     0.000 HD 
HETATM   33  O   UNL     1      -5.441   5.939  67.747  1.00  0.00    -0.004 OA 
ENDBRANCH  25  31
ENDBRANCH  22  24
ENDBRANCH  20  22
ENDBRANCH  18  20
ENDBRANCH  17  18
ENDBRANCH  15  17
ENDBRANCH  13  15
ENDBRANCH  11  13
ENDBRANCH   5  11
ENDBRANCH   2   4
TORSDOF 10
ENDMDL
MODEL      428
REMARK 921   NORMALIZED FREE ENERGY PREDICTED BY IDOCK:   -3.19 KCAL/MOL
REMARK 922        TOTAL FREE ENERGY PREDICTED BY IDOCK:   -7.05 KCAL/MOL
REMARK 923 INTER-LIGAND FREE ENERGY PREDICTED BY IDOCK:   -5.82 KCAL/MOL
REMARK 924 INTRA-LIGAND FREE ENERGY PREDICTED BY IDOCK:   -1.23 KCAL/MOL
REMARK 927      BINDING AFFINITY PREDICTED BY RF-SCORE:    0.00 PKD
ROOT
HETATM    1  O   UNL     1      -8.514   3.675  67.201  1.00  0.00    -0.097 OA 
HETATM    2  C   UNL     1      -8.019   4.947  66.859  1.00  0.00    -0.103 C  
HETATM    3  H   UNL     1      -7.826   3.032  67.075  1.00  0.00     0.000 HD 
ENDROOT
BRANCH   2   4
HETATM    4  N   UNL     1      -9.055   5.917  67.048  1.00  0.00    -0.115 N  
HETATM    5  C   UNL     1      -9.024   6.812  68.187  1.00  0.00    -0.118 C  
HETATM    6  O   UNL     1     -10.687   4.692  65.935  1.00  0.00    -0.307 OA 
HETATM    7  C   UNL     1     -10.527   6.817  68.548  1.00  0.00    -0.204 C  
HETATM    8  N   UNL     1     -11.209   6.228  67.528  1.00  0.00    -0.263 NA 
HETATM    9  O   UNL     1     -11.060   7.316  69.528  1.00  0.00    -0.204 OA 
HETATM   10  C   UNL     1     -10.352   5.557  66.729  1.00  0.00    -0.269 C  
BRANCH   5  11
HETATM   11  N   UNL     1      -8.613   8.138  67.797  1.00  0.00    -0.131 N  
HETATM   12  H   UNL     1      -9.150   8.945  68.114  1.00  0.00     0.000 HD 
BRANCH  11  13
HETATM   13  C   UNL     1      -7.514   8.328  67.009  1.00  0.00    -0.088 C  
HETATM   14  O   UNL     1      -6.373   8.057  67.358  1.00  0.00    -0.053 OA 
BRANCH  13  15
HETATM   15  N   UNL     1      -7.842   8.779  65.758  1.00  0.00    -0.097 N  
HETATM   16  H   UNL     1      -7.151   8.751  65.008  1.00  0.00     0.000 HD 
BRANCH  15  17
HETATM   17  C   UNL     1      -9.155   9.292  65.504  1.00  0.00    -0.221 C  
BRANCH  17  18
HETATM   18  N   UNL     1      -9.120  10.589  64.879  1.00  0.00    -0.192 N  
HETATM   19  H   UNL     1      -8.424  10.797  64.163  1.00  0.00     0.000 HD 
BRANCH  18  20
HETATM   20  C   UNL     1     -10.031  11.542  65.255  1.00  0.00    -0.260 C  
HETATM   21  O   UNL     1     -11.234  11.336  65.347  1.00  0.00    -0.143 OA 
BRANCH  20  22
HETATM   22  N   UNL     1      -9.442  12.753  65.529  1.00  0.00    -0.462 N  
HETATM   23  H   UNL     1      -8.863  13.239  64.844  1.00  0.00     0.000 HD 
BRANCH  22  24
HETATM   24  C   UNL     1      -9.688  13.297  66.837  1.00  0.00    -0.248 C  
HETATM   25  N   UNL     1     -11.001  13.849  67.065  1.00  0.00    -0.292 N  
HETATM   26  O   UNL     1      -9.014  11.246  68.083  1.00  0.00    -0.152 OA 
HETATM   27  C   UNL     1     -11.432  13.595  68.352  1.00  0.00    -0.311 C  
HETATM   28  N   UNL     1     -10.612  12.667  68.904  1.00  0.00    -0.176 NA 
HETATM   29  O   UNL     1     -12.410  14.076  68.899  1.00  0.00    -0.299 OA 
HETATM   30  C   UNL     1      -9.695  12.255  67.982  1.00  0.00    -0.205 C  
BRANCH  25  31
HETATM   31  C   UNL     1     -11.631  14.781  66.186  1.00  0.00    -0.292 C  
HETATM   32  H   UNL     1     -13.164  14.776  65.007  1.00  0.00     0.000 HD 
HETATM   33  O   UNL     1     -12.744  14.156  65.593  1.00  0.00    -0.514 OA 
ENDBRANCH  25  31
ENDBRANCH  22  24
ENDBRANCH  20  22
ENDBRANCH  18  20
ENDBRANCH  17  18
ENDBRANCH  15  17
ENDBRANCH  13  15
ENDBRANCH  11  13
ENDBRANCH   5  11
ENDBRANCH   2   4
TORSDOF 10
ENDMDL
MODEL      429
REMARK 921   NORMALIZED FREE ENERGY PREDICTED BY IDOCK:   -3.18 KCAL/MOL
REMARK 922        TOTAL FREE ENERGY PREDICTED BY IDOCK:   -7.04 KCAL/MOL
REMARK 923 INTER-LIGAND FREE ENERGY PREDICTED BY IDOCK:   -5.51 KCAL/MOL
REMARK 924 INTRA-LIGAND FREE ENERGY PREDICTED BY IDOCK:   -1.52 KCAL/MOL
REMARK 927      BINDING AFFINITY PREDICTED BY RF-SCORE:    0.00 PKD
ROOT
HETATM    1  O   UNL     1      -9.491   8.904  65.358  1.00  0.00    -0.430 OA 
HETATM    2  C   UNL     1      -9.023  10.140  64.876  1.00  0.00    -0.197 C  
HETATM    3  H   UNL     1      -9.141   8.208  64.815  1.00  0.00     0.000 HD 
ENDROOT
BRANCH   2   4
HETATM    4  N   UNL     1      -9.552  11.190  65.695  1.00  0.00    -0.215 N  
HETATM    5  C   UNL     1      -9.956  10.923  67.060  1.00  0.00    -0.192 C  
HETATM    6  O   UNL     1     -10.395  12.428  63.918  1.00  0.00    -0.384 OA 
HETATM    7  C   UNL     1     -11.237  11.785  67.119  1.00  0.00    -0.316 C  
HETATM    8  N   UNL     1     -11.265  12.579  66.014  1.00  0.00    -0.300 NA 
HETATM    9  O   UNL     1     -12.066  11.834  68.015  1.00  0.00    -0.572 OA 
HETATM   10  C   UNL     1     -10.378  12.127  65.100  1.00  0.00    -0.279 C  
BRANCH   5  11
HETATM   11  N   UNL     1      -8.985  11.429  67.999  1.00  0.00    -0.156 N  
HETATM   12  H   UNL     1      -8.991  12.418  68.245  1.00  0.00     0.000 HD 
BRANCH  11  13
HETATM   13  C   UNL     1      -8.057  10.601  68.563  1.00  0.00    -0.125 C  
HETATM   14  O   UNL     1      -6.888  10.551  68.209  1.00  0.00    -0.066 OA 
BRANCH  13  15
HETATM   15  N   UNL     1      -8.564   9.895  69.622  1.00  0.00    -0.181 N  
HETATM   16  H   UNL     1      -8.702  10.353  70.522  1.00  0.00     0.000 HD 
BRANCH  15  17
HETATM   17  C   UNL     1      -8.900   8.511  69.463  1.00  0.00    -0.141 C  
BRANCH  17  18
HETATM   18  N   UNL     1      -8.963   7.819  70.723  1.00  0.00    -0.147 N  
HETATM   19  H   UNL     1      -9.008   6.800  70.750  1.00  0.00     0.000 HD 
BRANCH  18  20
HETATM   20  C   UNL     1      -8.962   8.540  71.888  1.00  0.00    -0.231 C  
HETATM   21  O   UNL     1      -7.991   9.157  72.307  1.00  0.00    -0.290 OA 
BRANCH  20  22
HETATM   22  N   UNL     1     -10.177   8.504  72.530  1.00  0.00    -0.298 N  
HETATM   23  H   UNL     1     -10.298   8.868  73.476  1.00  0.00     0.000 HD 
BRANCH  22  24
HETATM   24  C   UNL     1     -11.268   7.927  71.793  1.00  0.00    -0.260 C  
HETATM   25  N   UNL     1     -12.100   6.990  72.507  1.00  0.00    -0.072 N  
HETATM   26  O   UNL     1     -12.251  10.100  71.071  1.00  0.00    -0.315 OA 
HETATM   27  C   UNL     1     -13.422   7.109  72.131  1.00  0.00     0.044 C  
HETATM   28  N   UNL     1     -13.564   8.256  71.420  1.00  0.00    -0.270 NA 
HETATM   29  O   UNL     1     -14.332   6.350  72.419  1.00  0.00    -0.150 OA 
HETATM   30  C   UNL     1     -12.377   8.926  71.385  1.00  0.00    -0.313 C  
BRANCH  25  31
HETATM   31  C   UNL     1     -11.587   5.896  73.269  1.00  0.00     0.257 C  
HETATM   32  H   UNL     1     -10.519   5.682  74.867  1.00  0.00     0.000 HD 
HETATM   33  O   UNL     1     -10.861   6.409  74.360  1.00  0.00     0.088 OA 
ENDBRANCH  25  31
ENDBRANCH  22  24
ENDBRANCH  20  22
ENDBRANCH  18  20
ENDBRANCH  17  18
ENDBRANCH  15  17
ENDBRANCH  13  15
ENDBRANCH  11  13
ENDBRANCH   5  11
ENDBRANCH   2   4
TORSDOF 10
ENDMDL
MODEL      430
REMARK 921   NORMALIZED FREE ENERGY PREDICTED BY IDOCK:   -3.18 KCAL/MOL
REMARK 922        TOTAL FREE ENERGY PREDICTED BY IDOCK:   -7.03 KCAL/MOL
REMARK 923 INTER-LIGAND FREE ENERGY PREDICTED BY IDOCK:   -6.05 KCAL/MOL
REMARK 924 INTRA-LIGAND FREE ENERGY PREDICTED BY IDOCK:   -0.98 KCAL/MOL
REMARK 927      BINDING AFFINITY PREDICTED BY RF-SCORE:    0.00 PKD
ROOT
HETATM    1  O   UNL     1      -6.501   7.413  64.050  1.00  0.00    -0.047 OA 
HETATM    2  C   UNL     1      -7.907   7.367  64.085  1.00  0.00    -0.120 C  
HETATM    3  H   UNL     1      -6.230   8.177  63.554  1.00  0.00     0.000 HD 
ENDROOT
BRANCH   2   4
HETATM    4  N   UNL     1      -8.316   6.215  64.832  1.00  0.00    -0.126 N  
HETATM    5  C   UNL     1      -7.755   5.951  66.142  1.00  0.00    -0.102 C  
HETATM    6  O   UNL     1      -8.859   4.943  62.964  1.00  0.00    -0.135 OA 
HETATM    7  C   UNL     1      -7.596   4.417  66.046  1.00  0.00    -0.086 C  
HETATM    8  N   UNL     1      -8.268   3.989  64.942  1.00  0.00    -0.097 NA 
HETATM    9  O   UNL     1      -7.040   3.671  66.838  1.00  0.00    -0.060 OA 
HETATM   10  C   UNL     1      -8.552   5.039  64.141  1.00  0.00    -0.125 C  
BRANCH   5  11
HETATM   11  N   UNL     1      -8.693   6.280  67.186  1.00  0.00    -0.110 N  
HETATM   12  H   UNL     1      -8.355   6.435  68.135  1.00  0.00     0.000 HD 
BRANCH  11  13
HETATM   13  C   UNL     1     -10.028   6.386  66.922  1.00  0.00    -0.167 C  
HETATM   14  O   UNL     1     -10.796   5.434  66.911  1.00  0.00    -0.237 OA 
BRANCH  13  15
HETATM   15  N   UNL     1     -10.425   7.686  66.752  1.00  0.00    -0.471 N  
HETATM   16  H   UNL     1     -10.816   7.987  65.859  1.00  0.00     0.000 HD 
BRANCH  15  17
HETATM   17  C   UNL     1     -10.289   8.622  67.828  1.00  0.00    -0.242 C  
BRANCH  17  18
HETATM   18  N   UNL     1     -11.329   9.617  67.817  1.00  0.00    -0.405 N  
HETATM   19  H   UNL     1     -12.019   9.633  67.066  1.00  0.00     0.000 HD 
BRANCH  18  20
HETATM   20  C   UNL     1     -11.385  10.543  68.826  1.00  0.00    -0.249 C  
HETATM   21  O   UNL     1     -10.966  10.344  69.958  1.00  0.00    -0.276 OA 
BRANCH  20  22
HETATM   22  N   UNL     1     -11.954  11.728  68.421  1.00  0.00    -0.269 N  
HETATM   23  H   UNL     1     -12.855  11.758  67.944  1.00  0.00     0.000 HD 
BRANCH  22  24
HETATM   24  C   UNL     1     -11.206  12.921  68.708  1.00  0.00    -0.279 C  
HETATM   25  N   UNL     1     -11.008  13.834  67.609  1.00  0.00    -0.260 N  
HETATM   26  O   UNL     1     -12.624  13.641  70.628  1.00  0.00    -0.327 OA 
HETATM   27  C   UNL     1     -11.057  15.146  68.035  1.00  0.00    -0.308 C  
HETATM   28  N   UNL     1     -11.557  15.169  69.296  1.00  0.00    -0.304 NA 
HETATM   29  O   UNL     1     -10.755  16.133  67.386  1.00  0.00    -0.312 OA 
HETATM   30  C   UNL     1     -11.902  13.907  69.678  1.00  0.00    -0.327 C  
BRANCH  25  31
HETATM   31  C   UNL     1     -10.529  13.434  66.324  1.00  0.00    -0.289 C  
HETATM   32  H   UNL     1     -11.058  12.161  64.969  1.00  0.00     0.000 HD 
HETATM   33  O   UNL     1     -11.376  12.427  65.823  1.00  0.00    -0.320 OA 
ENDBRANCH  25  31
ENDBRANCH  22  24
ENDBRANCH  20  22
ENDBRANCH  18  20
ENDBRANCH  17  18
ENDBRANCH  15  17
ENDBRANCH  13  15
ENDBRANCH  11  13
ENDBRANCH   5  11
ENDBRANCH   2   4
TORSDOF 10
ENDMDL
MODEL      431
REMARK 921   NORMALIZED FREE ENERGY PREDICTED BY IDOCK:   -3.16 KCAL/MOL
REMARK 922        TOTAL FREE ENERGY PREDICTED BY IDOCK:   -7.01 KCAL/MOL
REMARK 923 INTER-LIGAND FREE ENERGY PREDICTED BY IDOCK:   -5.49 KCAL/MOL
REMARK 924 INTRA-LIGAND FREE ENERGY PREDICTED BY IDOCK:   -1.52 KCAL/MOL
REMARK 927      BINDING AFFINITY PREDICTED BY RF-SCORE:    0.00 PKD
ROOT
HETATM    1  O   UNL     1      -8.173  15.007  69.619  1.00  0.00    -0.390 OA 
HETATM    2  C   UNL     1      -9.466  15.528  69.814  1.00  0.00    -0.173 C  
HETATM    3  H   UNL     1      -7.535  15.647  69.911  1.00  0.00     0.000 HD 
ENDROOT
BRANCH   2   4
HETATM    4  N   UNL     1     -10.428  14.564  69.373  1.00  0.00    -0.176 N  
HETATM    5  C   UNL     1     -10.107  13.643  68.301  1.00  0.00    -0.240 C  
HETATM    6  O   UNL     1     -12.280  15.829  69.986  1.00  0.00    -0.365 OA 
HETATM    7  C   UNL     1     -11.459  13.645  67.551  1.00  0.00    -0.329 C  
HETATM    8  N   UNL     1     -12.380  14.262  68.340  1.00  0.00    -0.132 NA 
HETATM    9  O   UNL     1     -11.718  13.129  66.474  1.00  0.00    -0.345 OA 
HETATM   10  C   UNL     1     -11.758  14.944  69.327  1.00  0.00    -0.316 C  
BRANCH   5  11
HETATM   11  N   UNL     1      -9.835  12.323  68.812  1.00  0.00    -0.414 N  
HETATM   12  H   UNL     1     -10.555  11.829  69.338  1.00  0.00     0.000 HD 
BRANCH  11  13
HETATM   13  C   UNL     1      -8.626  11.725  68.601  1.00  0.00    -0.062 C  
HETATM   14  O   UNL     1      -7.711  12.243  67.975  1.00  0.00    -0.112 OA 
BRANCH  13  15
HETATM   15  N   UNL     1      -8.524  10.516  69.237  1.00  0.00    -0.256 N  
HETATM   16  H   UNL     1      -9.330   9.891  69.278  1.00  0.00     0.000 HD 
BRANCH  15  17
HETATM   17  C   UNL     1      -7.286  10.130  69.846  1.00  0.00    -0.154 C  
BRANCH  17  18
HETATM   18  N   UNL     1      -7.453   9.047  70.780  1.00  0.00    -0.102 N  
HETATM   19  H   UNL     1      -7.290   9.197  71.776  1.00  0.00     0.000 HD 
BRANCH  18  20
HETATM   20  C   UNL     1      -7.834   7.814  70.320  1.00  0.00    -0.091 C  
HETATM   21  O   UNL     1      -7.208   7.174  69.486  1.00  0.00    -0.076 OA 
BRANCH  20  22
HETATM   22  N   UNL     1      -8.994   7.368  70.909  1.00  0.00    -0.149 N  
HETATM   23  H   UNL     1      -9.846   7.929  70.915  1.00  0.00     0.000 HD 
BRANCH  22  24
HETATM   24  C   UNL     1      -8.936   6.066  71.517  1.00  0.00    -0.143 C  
HETATM   25  N   UNL     1      -9.157   6.013  72.941  1.00  0.00    -0.132 N  
HETATM   26  O   UNL     1     -10.614   5.017  70.001  1.00  0.00    -0.245 OA 
HETATM   27  C   UNL     1      -9.859   4.879  73.296  1.00  0.00    -0.148 C  
HETATM   28  N   UNL     1     -10.366   4.318  72.169  1.00  0.00    -0.160 NA 
HETATM   29  O   UNL     1     -10.046   4.463  74.426  1.00  0.00    -0.162 OA 
HETATM   30  C   UNL     1     -10.070   5.101  71.092  1.00  0.00    -0.222 C  
BRANCH  25  31
HETATM   31  C   UNL     1      -8.484   6.856  73.878  1.00  0.00    -0.139 C  
HETATM   32  H   UNL     1      -8.407   8.751  74.252  1.00  0.00     0.000 HD 
HETATM   33  O   UNL     1      -8.854   8.190  73.628  1.00  0.00    -0.263 OA 
ENDBRANCH  25  31
ENDBRANCH  22  24
ENDBRANCH  20  22
ENDBRANCH  18  20
ENDBRANCH  17  18
ENDBRANCH  15  17
ENDBRANCH  13  15
ENDBRANCH  11  13
ENDBRANCH   5  11
ENDBRANCH   2   4
TORSDOF 10
ENDMDL
MODEL      432
REMARK 921   NORMALIZED FREE ENERGY PREDICTED BY IDOCK:   -3.16 KCAL/MOL
REMARK 922        TOTAL FREE ENERGY PREDICTED BY IDOCK:   -7.00 KCAL/MOL
REMARK 923 INTER-LIGAND FREE ENERGY PREDICTED BY IDOCK:   -5.23 KCAL/MOL
REMARK 924 INTRA-LIGAND FREE ENERGY PREDICTED BY IDOCK:   -1.77 KCAL/MOL
REMARK 927      BINDING AFFINITY PREDICTED BY RF-SCORE:    0.00 PKD
ROOT
HETATM    1  O   UNL     1      -9.499   4.796  68.791  1.00  0.00    -0.128 OA 
HETATM    2  C   UNL     1      -8.139   5.158  68.780  1.00  0.00    -0.085 C  
HETATM    3  H   UNL     1      -9.692   4.346  69.605  1.00  0.00     0.000 HD 
ENDROOT
BRANCH   2   4
HETATM    4  N   UNL     1      -7.847   5.837  67.553  1.00  0.00    -0.101 N  
HETATM    5  C   UNL     1      -8.793   5.808  66.455  1.00  0.00    -0.126 C  
HETATM    6  O   UNL     1      -5.539   5.670  67.771  1.00  0.00    -0.011 OA 
HETATM    7  C   UNL     1      -7.806   5.653  65.275  1.00  0.00    -0.100 C  
HETATM    8  N   UNL     1      -6.548   5.875  65.743  1.00  0.00    -0.046 NA 
HETATM    9  O   UNL     1      -8.072   5.445  64.101  1.00  0.00    -0.112 OA 
HETATM   10  C   UNL     1      -6.542   5.821  67.093  1.00  0.00    -0.056 C  
BRANCH   5  11
HETATM   11  N   UNL     1      -9.497   7.060  66.341  1.00  0.00    -0.304 N  
HETATM   12  H   UNL     1      -9.253   7.708  65.592  1.00  0.00     0.000 HD 
BRANCH  11  13
HETATM   13  C   UNL     1     -10.486   7.391  67.221  1.00  0.00    -0.315 C  
HETATM   14  O   UNL     1     -11.406   6.643  67.523  1.00  0.00    -0.271 OA 
BRANCH  13  15
HETATM   15  N   UNL     1     -10.289   8.622  67.789  1.00  0.00    -0.235 N  
HETATM   16  H   UNL     1      -9.880   9.378  67.240  1.00  0.00     0.000 HD 
BRANCH  15  17
HETATM   17  C   UNL     1     -10.656   8.847  69.156  1.00  0.00    -0.195 C  
BRANCH  17  18
HETATM   18  N   UNL     1     -11.383  10.077  69.329  1.00  0.00    -0.414 N  
HETATM   19  H   UNL     1     -11.991  10.206  70.138  1.00  0.00     0.000 HD 
BRANCH  18  20
HETATM   20  C   UNL     1     -11.252  11.073  68.397  1.00  0.00    -0.274 C  
HETATM   21  O   UNL     1     -11.874  11.108  67.344  1.00  0.00    -0.570 OA 
BRANCH  20  22
HETATM   22  N   UNL     1     -10.351  12.038  68.782  1.00  0.00    -0.348 N  
HETATM   23  H   UNL     1     -10.469  12.572  69.643  1.00  0.00     0.000 HD 
BRANCH  22  24
HETATM   24  C   UNL     1      -9.234  12.251  67.903  1.00  0.00    -0.190 C  
HETATM   25  N   UNL     1      -8.711  13.594  67.845  1.00  0.00    -0.173 N  
HETATM   26  O   UNL     1      -7.813  10.448  68.873  1.00  0.00    -0.098 OA 
HETATM   27  C   UNL     1      -7.337  13.589  67.710  1.00  0.00    -0.163 C  
HETATM   28  N   UNL     1      -6.886  12.334  67.960  1.00  0.00    -0.073 NA 
HETATM   29  O   UNL     1      -6.627  14.548  67.460  1.00  0.00    -0.227 OA 
HETATM   30  C   UNL     1      -7.929  11.534  68.325  1.00  0.00    -0.142 C  
BRANCH  25  31
HETATM   31  C   UNL     1      -9.523  14.753  67.650  1.00  0.00    -0.204 C  
HETATM   32  H   UNL     1      -9.998  15.895  66.165  1.00  0.00     0.000 HD 
HETATM   33  O   UNL     1      -9.458  15.124  66.294  1.00  0.00    -0.269 OA 
ENDBRANCH  25  31
ENDBRANCH  22  24
ENDBRANCH  20  22
ENDBRANCH  18  20
ENDBRANCH  17  18
ENDBRANCH  15  17
ENDBRANCH  13  15
ENDBRANCH  11  13
ENDBRANCH   5  11
ENDBRANCH   2   4
TORSDOF 10
ENDMDL
MODEL      433
REMARK 921   NORMALIZED FREE ENERGY PREDICTED BY IDOCK:   -3.16 KCAL/MOL
REMARK 922        TOTAL FREE ENERGY PREDICTED BY IDOCK:   -7.00 KCAL/MOL
REMARK 923 INTER-LIGAND FREE ENERGY PREDICTED BY IDOCK:   -5.77 KCAL/MOL
REMARK 924 INTRA-LIGAND FREE ENERGY PREDICTED BY IDOCK:   -1.23 KCAL/MOL
REMARK 927      BINDING AFFINITY PREDICTED BY RF-SCORE:    0.00 PKD
ROOT
HETATM    1  O   UNL     1      -9.897   8.810  65.771  1.00  0.00    -0.462 OA 
HETATM    2  C   UNL     1      -9.213   9.559  64.795  1.00  0.00    -0.205 C  
HETATM    3  H   UNL     1      -9.562   7.922  65.770  1.00  0.00     0.000 HD 
ENDROOT
BRANCH   2   4
HETATM    4  N   UNL     1      -9.720  10.899  64.796  1.00  0.00    -0.248 N  
HETATM    5  C   UNL     1     -10.713  11.308  65.768  1.00  0.00    -0.223 C  
HETATM    6  O   UNL     1      -9.363  11.253  62.526  1.00  0.00    -0.323 OA 
HETATM    7  C   UNL     1     -11.605  12.188  64.864  1.00  0.00    -0.316 C  
HETATM    8  N   UNL     1     -10.947  12.395  63.692  1.00  0.00    -0.444 NA 
HETATM    9  O   UNL     1     -12.683  12.693  65.142  1.00  0.00    -0.646 OA 
HETATM   10  C   UNL     1      -9.926  11.519  63.576  1.00  0.00    -0.399 C  
BRANCH   5  11
HETATM   11  N   UNL     1     -10.123  12.116  66.807  1.00  0.00    -0.199 N  
HETATM   12  H   UNL     1     -10.004  13.117  66.658  1.00  0.00     0.000 HD 
BRANCH  11  13
HETATM   13  C   UNL     1      -9.722  11.558  67.987  1.00  0.00    -0.186 C  
HETATM   14  O   UNL     1      -8.696  11.874  68.573  1.00  0.00    -0.165 OA 
BRANCH  13  15
HETATM   15  N   UNL     1     -10.638  10.666  68.480  1.00  0.00    -0.187 N  
HETATM   16  H   UNL     1     -11.599  10.962  68.648  1.00  0.00     0.000 HD 
BRANCH  15  17
HETATM   17  C   UNL     1     -10.243   9.318  68.760  1.00  0.00    -0.205 C  
BRANCH  17  18
HETATM   18  N   UNL     1     -10.646   8.895  70.075  1.00  0.00    -0.215 N  
HETATM   19  H   UNL     1     -10.574   9.536  70.866  1.00  0.00     0.000 HD 
BRANCH  18  20
HETATM   20  C   UNL     1     -11.126   7.625  70.257  1.00  0.00    -0.244 C  
HETATM   21  O   UNL     1     -11.985   7.114  69.551  1.00  0.00     0.236 OA 
BRANCH  20  22
HETATM   22  N   UNL     1     -10.526   6.982  71.314  1.00  0.00    -0.207 N  
HETATM   23  H   UNL     1     -10.971   6.918  72.229  1.00  0.00     0.000 HD 
BRANCH  22  24
HETATM   24  C   UNL     1      -9.236   6.403  71.055  1.00  0.00    -0.154 C  
HETATM   25  N   UNL     1      -8.210   6.658  72.036  1.00  0.00    -0.106 N  
HETATM   26  O   UNL     1     -10.068   4.072  70.763  1.00  0.00    -0.145 OA 
HETATM   27  C   UNL     1      -7.390   5.559  72.198  1.00  0.00    -0.090 C  
HETATM   28  N   UNL     1      -7.976   4.495  71.595  1.00  0.00    -0.097 NA 
HETATM   29  O   UNL     1      -6.340   5.521  72.816  1.00  0.00    -0.051 OA 
HETATM   30  C   UNL     1      -9.196   4.857  71.104  1.00  0.00    -0.145 C  
BRANCH  25  31
HETATM   31  C   UNL     1      -7.905   7.958  72.543  1.00  0.00    -0.117 C  
HETATM   32  H   UNL     1      -8.769   9.251  73.692  1.00  0.00     0.000 HD 
HETATM   33  O   UNL     1      -8.972   8.386  73.355  1.00  0.00    -0.229 OA 
ENDBRANCH  25  31
ENDBRANCH  22  24
ENDBRANCH  20  22
ENDBRANCH  18  20
ENDBRANCH  17  18
ENDBRANCH  15  17
ENDBRANCH  13  15
ENDBRANCH  11  13
ENDBRANCH   5  11
ENDBRANCH   2   4
TORSDOF 10
ENDMDL
MODEL      434
REMARK 921   NORMALIZED FREE ENERGY PREDICTED BY IDOCK:   -3.13 KCAL/MOL
REMARK 922        TOTAL FREE ENERGY PREDICTED BY IDOCK:   -6.96 KCAL/MOL
REMARK 923 INTER-LIGAND FREE ENERGY PREDICTED BY IDOCK:   -5.41 KCAL/MOL
REMARK 924 INTRA-LIGAND FREE ENERGY PREDICTED BY IDOCK:   -1.55 KCAL/MOL
REMARK 927      BINDING AFFINITY PREDICTED BY RF-SCORE:    0.00 PKD
ROOT
HETATM    1  O   UNL     1     -12.864  11.976  71.167  1.00  0.00    -0.337 OA 
HETATM    2  C   UNL     1     -13.443  13.196  71.563  1.00  0.00    -0.134 C  
HETATM    3  H   UNL     1     -13.276  11.268  71.648  1.00  0.00     0.000 HD 
ENDROOT
BRANCH   2   4
HETATM    4  N   UNL     1     -12.821  14.264  70.838  1.00  0.00    -0.343 N  
HETATM    5  C   UNL     1     -11.540  14.065  70.192  1.00  0.00    -0.204 C  
HETATM    6  O   UNL     1     -13.820  15.959  72.075  1.00  0.00    -0.357 OA 
HETATM    7  C   UNL     1     -10.881  15.426  70.512  1.00  0.00    -0.300 C  
HETATM    8  N   UNL     1     -11.842  16.259  70.993  1.00  0.00    -0.312 NA 
HETATM    9  O   UNL     1      -9.723  15.762  70.311  1.00  0.00     0.012 OA 
HETATM   10  C   UNL     1     -12.936  15.548  71.341  1.00  0.00    -0.483 C  
BRANCH   5  11
HETATM   11  N   UNL     1     -11.691  13.919  68.766  1.00  0.00    -0.334 N  
HETATM   12  H   UNL     1     -12.109  14.676  68.225  1.00  0.00     0.000 HD 
BRANCH  11  13
HETATM   13  C   UNL     1     -11.284  12.782  68.129  1.00  0.00    -0.272 C  
HETATM   14  O   UNL     1     -10.885  11.783  68.712  1.00  0.00    -0.211 OA 
BRANCH  13  15
HETATM   15  N   UNL     1     -11.449  12.857  66.771  1.00  0.00    -0.322 N  
HETATM   16  H   UNL     1     -12.278  13.306  66.382  1.00  0.00     0.000 HD 
BRANCH  15  17
HETATM   17  C   UNL     1     -10.456  12.304  65.899  1.00  0.00    -0.256 C  
BRANCH  17  18
HETATM   18  N   UNL     1     -10.186  10.921  66.191  1.00  0.00    -0.242 N  
HETATM   19  H   UNL     1     -10.740  10.424  66.889  1.00  0.00     0.000 HD 
BRANCH  18  20
HETATM   20  C   UNL     1      -9.178  10.276  65.523  1.00  0.00    -0.190 C  
HETATM   21  O   UNL     1      -9.366   9.467  64.624  1.00  0.00    -0.201 OA 
BRANCH  20  22
HETATM   22  N   UNL     1      -7.931  10.647  65.966  1.00  0.00    -0.156 N  
HETATM   23  H   UNL     1      -7.175  10.875  65.320  1.00  0.00     0.000 HD 
BRANCH  22  24
HETATM   24  C   UNL     1      -7.753  10.697  67.392  1.00  0.00    -0.106 C  
HETATM   25  N   UNL     1      -7.087   9.568  67.994  1.00  0.00    -0.079 N  
HETATM   26  O   UNL     1      -6.618  12.916  67.417  1.00  0.00    -0.161 OA 
HETATM   27  C   UNL     1      -6.275   9.966  69.037  1.00  0.00    -0.040 C  
HETATM   28  N   UNL     1      -6.139  11.315  68.985  1.00  0.00    -0.049 NA 
HETATM   29  O   UNL     1      -5.724   9.241  69.848  1.00  0.00    -0.031 OA 
HETATM   30  C   UNL     1      -6.787  11.801  67.887  1.00  0.00    -0.077 C  
BRANCH  25  31
HETATM   31  C   UNL     1      -7.449   8.209  67.744  1.00  0.00    -0.094 C  
HETATM   32  H   UNL     1      -9.094   7.211  67.559  1.00  0.00     0.000 HD 
HETATM   33  O   UNL     1      -8.853   8.114  67.725  1.00  0.00    -0.130 OA 
ENDBRANCH  25  31
ENDBRANCH  22  24
ENDBRANCH  20  22
ENDBRANCH  18  20
ENDBRANCH  17  18
ENDBRANCH  15  17
ENDBRANCH  13  15
ENDBRANCH  11  13
ENDBRANCH   5  11
ENDBRANCH   2   4
TORSDOF 10
ENDMDL
MODEL      435
REMARK 921   NORMALIZED FREE ENERGY PREDICTED BY IDOCK:   -3.11 KCAL/MOL
REMARK 922        TOTAL FREE ENERGY PREDICTED BY IDOCK:   -6.93 KCAL/MOL
REMARK 923 INTER-LIGAND FREE ENERGY PREDICTED BY IDOCK:   -5.85 KCAL/MOL
REMARK 924 INTRA-LIGAND FREE ENERGY PREDICTED BY IDOCK:   -1.08 KCAL/MOL
REMARK 927      BINDING AFFINITY PREDICTED BY RF-SCORE:    0.00 PKD
ROOT
HETATM    1  O   UNL     1      -9.906   7.817  73.787  1.00  0.00    -0.332 OA 
HETATM    2  C   UNL     1      -8.537   7.493  73.789  1.00  0.00    -0.208 C  
HETATM    3  H   UNL     1     -10.346   7.301  74.452  1.00  0.00     0.000 HD 
ENDROOT
BRANCH   2   4
HETATM    4  N   UNL     1      -7.873   8.272  72.787  1.00  0.00    -0.141 N  
HETATM    5  C   UNL     1      -8.120   8.024  71.381  1.00  0.00    -0.107 C  
HETATM    6  O   UNL     1      -6.010   8.742  74.095  1.00  0.00    -0.121 OA 
HETATM    7  C   UNL     1      -6.683   8.193  70.837  1.00  0.00    -0.038 C  
HETATM    8  N   UNL     1      -5.918   8.737  71.822  1.00  0.00    -0.056 NA 
HETATM    9  O   UNL     1      -6.279   7.965  69.707  1.00  0.00    -0.027 OA 
HETATM   10  C   UNL     1      -6.556   8.635  73.009  1.00  0.00    -0.011 C  
BRANCH   5  11
HETATM   11  N   UNL     1      -8.977   9.037  70.816  1.00  0.00    -0.216 N  
HETATM   12  H   UNL     1      -8.904   9.999  71.145  1.00  0.00     0.000 HD 
BRANCH  11  13
HETATM   13  C   UNL     1      -9.886   8.725  69.846  1.00  0.00    -0.184 C  
HETATM   14  O   UNL     1     -10.320   7.596  69.660  1.00  0.00    -0.203 OA 
BRANCH  13  15
HETATM   15  N   UNL     1     -10.315   9.829  69.159  1.00  0.00    -0.200 N  
HETATM   16  H   UNL     1     -11.310  10.050  69.117  1.00  0.00     0.000 HD 
BRANCH  15  17
HETATM   17  C   UNL     1      -9.365  10.675  68.498  1.00  0.00    -0.170 C  
BRANCH  17  18
HETATM   18  N   UNL     1      -9.915  11.967  68.183  1.00  0.00    -0.197 N  
HETATM   19  H   UNL     1      -9.305  12.783  68.115  1.00  0.00     0.000 HD 
BRANCH  18  20
HETATM   20  C   UNL     1     -11.263  12.093  67.976  1.00  0.00    -0.264 C  
HETATM   21  O   UNL     1     -12.017  11.146  67.797  1.00  0.00    -0.630 OA 
BRANCH  20  22
HETATM   22  N   UNL     1     -11.679  13.404  68.003  1.00  0.00    -0.336 N  
HETATM   23  H   UNL     1     -12.389  13.757  67.362  1.00  0.00     0.000 HD 
BRANCH  22  24
HETATM   24  C   UNL     1     -11.057  14.247  68.988  1.00  0.00    -0.259 C  
HETATM   25  N   UNL     1     -10.336  15.392  68.488  1.00  0.00    -0.222 N  
HETATM   26  O   UNL     1     -13.123  14.619  70.330  1.00  0.00    -0.291 OA 
HETATM   27  C   UNL     1     -10.481  16.478  69.327  1.00  0.00    -0.326 C  
HETATM   28  N   UNL     1     -11.482  16.212  70.204  1.00  0.00    -0.336 NA 
HETATM   29  O   UNL     1      -9.860  17.526  69.274  1.00  0.00    -0.187 OA 
HETATM   30  C   UNL     1     -12.042  15.004  69.911  1.00  0.00    -0.334 C  
BRANCH  25  31
HETATM   31  C   UNL     1      -9.369  15.323  67.439  1.00  0.00    -0.199 C  
HETATM   32  H   UNL     1      -9.378  15.502  65.514  1.00  0.00     0.000 HD 
HETATM   33  O   UNL     1     -10.021  15.548  66.212  1.00  0.00    -0.258 OA 
ENDBRANCH  25  31
ENDBRANCH  22  24
ENDBRANCH  20  22
ENDBRANCH  18  20
ENDBRANCH  17  18
ENDBRANCH  15  17
ENDBRANCH  13  15
ENDBRANCH  11  13
ENDBRANCH   5  11
ENDBRANCH   2   4
TORSDOF 10
ENDMDL
MODEL      436
REMARK 921   NORMALIZED FREE ENERGY PREDICTED BY IDOCK:   -3.11 KCAL/MOL
REMARK 922        TOTAL FREE ENERGY PREDICTED BY IDOCK:   -6.92 KCAL/MOL
REMARK 923 INTER-LIGAND FREE ENERGY PREDICTED BY IDOCK:   -6.20 KCAL/MOL
REMARK 924 INTRA-LIGAND FREE ENERGY PREDICTED BY IDOCK:   -0.71 KCAL/MOL
REMARK 927      BINDING AFFINITY PREDICTED BY RF-SCORE:    0.00 PKD
ROOT
HETATM    1  O   UNL     1      -8.210   6.658  68.715  1.00  0.00    -0.118 OA 
HETATM    2  C   UNL     1      -8.211   7.962  68.186  1.00  0.00    -0.123 C  
HETATM    3  H   UNL     1      -8.517   6.055  68.048  1.00  0.00     0.000 HD 
ENDROOT
BRANCH   2   4
HETATM    4  N   UNL     1      -7.748   8.872  69.191  1.00  0.00    -0.090 N  
HETATM    5  C   UNL     1      -8.059  10.285  69.101  1.00  0.00    -0.138 C  
HETATM    6  O   UNL     1      -5.886   7.607  69.770  1.00  0.00    -0.023 OA 
HETATM    7  C   UNL     1      -6.708  10.871  69.571  1.00  0.00    -0.117 C  
HETATM    8  N   UNL     1      -5.963   9.858  70.090  1.00  0.00    -0.051 NA 
HETATM    9  O   UNL     1      -6.359  12.042  69.567  1.00  0.00    -0.106 OA 
HETATM   10  C   UNL     1      -6.489   8.668  69.726  1.00  0.00    -0.038 C  
BRANCH   5  11
HETATM   11  N   UNL     1      -9.098  10.650  70.031  1.00  0.00    -0.131 N  
HETATM   12  H   UNL     1      -8.859  10.845  71.002  1.00  0.00     0.000 HD 
BRANCH  11  13
HETATM   13  C   UNL     1     -10.400  10.738  69.628  1.00  0.00    -0.101 C  
HETATM   14  O   UNL     1     -11.237   9.873  69.845  1.00  0.00    -0.242 OA 
BRANCH  13  15
HETATM   15  N   UNL     1     -10.680  11.936  69.027  1.00  0.00    -0.350 N  
HETATM   16  H   UNL     1     -10.140  12.240  68.218  1.00  0.00     0.000 HD 
BRANCH  15  17
HETATM   17  C   UNL     1     -11.734  12.763  69.538  1.00  0.00    -0.318 C  
BRANCH  17  18
HETATM   18  N   UNL     1     -12.105  13.802  68.614  1.00  0.00    -0.414 N  
HETATM   19  H   UNL     1     -12.786  13.616  67.876  1.00  0.00     0.000 HD 
BRANCH  18  20
HETATM   20  C   UNL     1     -11.537  15.043  68.732  1.00  0.00    -0.335 C  
HETATM   21  O   UNL     1     -12.156  16.047  69.063  1.00  0.00    -0.293 OA 
BRANCH  20  22
HETATM   22  N   UNL     1     -10.191  15.036  68.451  1.00  0.00    -0.224 N  
HETATM   23  H   UNL     1      -9.538  14.440  68.960  1.00  0.00     0.000 HD 
BRANCH  22  24
HETATM   24  C   UNL     1      -9.758  15.914  67.400  1.00  0.00    -0.227 C  
HETATM   25  N   UNL     1     -10.664  16.083  66.291  1.00  0.00    -0.276 N  
HETATM   26  O   UNL     1      -9.300  17.863  68.885  1.00  0.00    -0.252 OA 
HETATM   27  C   UNL     1     -10.635  17.379  65.815  1.00  0.00    -0.182 C  
HETATM   28  N   UNL     1      -9.979  18.152  66.716  1.00  0.00    -0.332 NA 
HETATM   29  O   UNL     1     -11.149  17.788  64.788  1.00  0.00    -0.852 OA 
HETATM   30  C   UNL     1      -9.641  17.404  67.805  1.00  0.00    -0.264 C  
BRANCH  25  31
HETATM   31  C   UNL     1     -11.275  14.996  65.595  1.00  0.00    -0.327 C  
HETATM   32  H   UNL     1     -11.011  13.084  65.478  1.00  0.00     0.000 HD 
HETATM   33  O   UNL     1     -10.605  13.808  65.941  1.00  0.00    -0.280 OA 
ENDBRANCH  25  31
ENDBRANCH  22  24
ENDBRANCH  20  22
ENDBRANCH  18  20
ENDBRANCH  17  18
ENDBRANCH  15  17
ENDBRANCH  13  15
ENDBRANCH  11  13
ENDBRANCH   5  11
ENDBRANCH   2   4
TORSDOF 10
ENDMDL
MODEL      437
REMARK 921   NORMALIZED FREE ENERGY PREDICTED BY IDOCK:   -3.10 KCAL/MOL
REMARK 922        TOTAL FREE ENERGY PREDICTED BY IDOCK:   -6.91 KCAL/MOL
REMARK 923 INTER-LIGAND FREE ENERGY PREDICTED BY IDOCK:   -5.14 KCAL/MOL
REMARK 924 INTRA-LIGAND FREE ENERGY PREDICTED BY IDOCK:   -1.76 KCAL/MOL
REMARK 927      BINDING AFFINITY PREDICTED BY RF-SCORE:    0.00 PKD
ROOT
HETATM    1  O   UNL     1      -6.164   9.229  66.105  1.00  0.00    -0.061 OA 
HETATM    2  C   UNL     1      -6.808  10.262  65.398  1.00  0.00    -0.140 C  
HETATM    3  H   UNL     1      -5.357   9.005  65.657  1.00  0.00     0.000 HD 
ENDROOT
BRANCH   2   4
HETATM    4  N   UNL     1      -8.025  10.600  66.073  1.00  0.00    -0.156 N  
HETATM    5  C   UNL     1      -9.226  10.898  65.318  1.00  0.00    -0.210 C  
HETATM    6  O   UNL     1      -6.978  11.476  67.954  1.00  0.00    -0.069 OA 
HETATM    7  C   UNL     1      -9.771  12.073  66.162  1.00  0.00    -0.238 C  
HETATM    8  N   UNL     1      -9.065  12.123  67.325  1.00  0.00    -0.175 NA 
HETATM    9  O   UNL     1     -10.715  12.804  65.905  1.00  0.00    -0.264 OA 
HETATM   10  C   UNL     1      -7.943  11.378  67.214  1.00  0.00    -0.149 C  
BRANCH   5  11
HETATM   11  N   UNL     1     -10.154   9.796  65.360  1.00  0.00    -0.333 N  
HETATM   12  H   UNL     1     -10.795   9.649  64.580  1.00  0.00     0.000 HD 
BRANCH  11  13
HETATM   13  C   UNL     1     -10.188   8.947  66.428  1.00  0.00    -0.203 C  
HETATM   14  O   UNL     1     -10.526   9.284  67.554  1.00  0.00    -0.245 OA 
BRANCH  13  15
HETATM   15  N   UNL     1      -9.879   7.658  66.079  1.00  0.00    -0.422 N  
HETATM   16  H   UNL     1     -10.567   7.081  65.598  1.00  0.00     0.000 HD 
BRANCH  15  17
HETATM   17  C   UNL     1      -8.587   7.123  66.393  1.00  0.00    -0.134 C  
BRANCH  17  18
HETATM   18  N   UNL     1      -8.077   7.630  67.640  1.00  0.00    -0.120 N  
HETATM   19  H   UNL     1      -7.741   8.591  67.706  1.00  0.00     0.000 HD 
BRANCH  18  20
HETATM   20  C   UNL     1      -8.047   6.811  68.738  1.00  0.00    -0.120 C  
HETATM   21  O   UNL     1      -7.662   5.649  68.711  1.00  0.00    -0.086 OA 
BRANCH  20  22
HETATM   22  N   UNL     1      -8.485   7.443  69.878  1.00  0.00    -0.137 N  
HETATM   23  H   UNL     1      -8.385   8.449  70.009  1.00  0.00     0.000 HD 
BRANCH  22  24
HETATM   24  C   UNL     1      -9.094   6.604  70.874  1.00  0.00    -0.154 C  
HETATM   25  N   UNL     1      -9.094   7.109  72.225  1.00  0.00    -0.132 N  
HETATM   26  O   UNL     1     -11.270   6.354  69.684  1.00  0.00    -0.358 OA 
HETATM   27  C   UNL     1     -10.258   6.769  72.885  1.00  0.00    -0.201 C  
HETATM   28  N   UNL     1     -11.152   6.314  71.972  1.00  0.00    -0.254 NA 
HETATM   29  O   UNL     1     -10.481   6.895  74.077  1.00  0.00    -0.374 OA 
HETATM   30  C   UNL     1     -10.623   6.416  70.719  1.00  0.00    -0.238 C  
BRANCH  25  31
HETATM   31  C   UNL     1      -7.933   7.625  72.878  1.00  0.00    -0.109 C  
HETATM   32  H   UNL     1      -6.024   7.594  72.568  1.00  0.00     0.000 HD 
HETATM   33  O   UNL     1      -6.797   7.251  72.135  1.00  0.00    -0.058 OA 
ENDBRANCH  25  31
ENDBRANCH  22  24
ENDBRANCH  20  22
ENDBRANCH  18  20
ENDBRANCH  17  18
ENDBRANCH  15  17
ENDBRANCH  13  15
ENDBRANCH  11  13
ENDBRANCH   5  11
ENDBRANCH   2   4
TORSDOF 10
ENDMDL
MODEL      438
REMARK 921   NORMALIZED FREE ENERGY PREDICTED BY IDOCK:   -3.08 KCAL/MOL
REMARK 922        TOTAL FREE ENERGY PREDICTED BY IDOCK:   -6.88 KCAL/MOL
REMARK 923 INTER-LIGAND FREE ENERGY PREDICTED BY IDOCK:   -5.65 KCAL/MOL
REMARK 924 INTRA-LIGAND FREE ENERGY PREDICTED BY IDOCK:   -1.23 KCAL/MOL
REMARK 927      BINDING AFFINITY PREDICTED BY RF-SCORE:    0.00 PKD
ROOT
HETATM    1  O   UNL     1     -10.703   5.916  66.483  1.00  0.00    -0.418 OA 
HETATM    2  C   UNL     1     -10.673   7.313  66.653  1.00  0.00     0.021 C  
HETATM    3  H   UNL     1     -11.495   5.679  66.017  1.00  0.00     0.000 HD 
ENDROOT
BRANCH   2   4
HETATM    4  N   UNL     1      -9.478   7.671  67.357  1.00  0.00    -0.139 N  
HETATM    5  C   UNL     1      -8.220   7.800  66.649  1.00  0.00    -0.123 C  
HETATM    6  O   UNL     1     -10.163   6.778  69.390  1.00  0.00    -0.176 OA 
HETATM    7  C   UNL     1      -7.276   7.157  67.690  1.00  0.00    -0.091 C  
HETATM    8  N   UNL     1      -7.965   7.012  68.855  1.00  0.00    -0.118 NA 
HETATM    9  O   UNL     1      -6.093   6.882  67.559  1.00  0.00    -0.029 OA 
HETATM   10  C   UNL     1      -9.289   7.155  68.627  1.00  0.00    -0.134 C  
BRANCH   5  11
HETATM   11  N   UNL     1      -7.867   9.185  66.461  1.00  0.00    -0.099 N  
HETATM   12  H   UNL     1      -8.263   9.893  67.079  1.00  0.00     0.000 HD 
BRANCH  11  13
HETATM   13  C   UNL     1      -7.011   9.562  65.467  1.00  0.00    -0.089 C  
HETATM   14  O   UNL     1      -6.702   8.842  64.528  1.00  0.00    -0.070 OA 
BRANCH  13  15
HETATM   15  N   UNL     1      -6.600  10.863  65.598  1.00  0.00    -0.346 N  
HETATM   16  H   UNL     1      -6.680  11.504  64.809  1.00  0.00     0.000 HD 
BRANCH  15  17
HETATM   17  C   UNL     1      -6.058  11.320  66.843  1.00  0.00    -0.120 C  
BRANCH  17  18
HETATM   18  N   UNL     1      -6.626  12.577  67.254  1.00  0.00    -0.256 N  
HETATM   19  H   UNL     1      -6.028  13.393  67.387  1.00  0.00     0.000 HD 
BRANCH  18  20
HETATM   20  C   UNL     1      -7.977  12.670  67.464  1.00  0.00    -0.174 C  
HETATM   21  O   UNL     1      -8.494  12.684  68.573  1.00  0.00    -0.140 OA 
BRANCH  20  22
HETATM   22  N   UNL     1      -8.687  12.757  66.290  1.00  0.00    -0.411 N  
HETATM   23  H   UNL     1      -8.260  13.089  65.425  1.00  0.00     0.000 HD 
BRANCH  22  24
HETATM   24  C   UNL     1     -10.066  12.355  66.352  1.00  0.00    -0.236 C  
HETATM   25  N   UNL     1     -11.032  13.407  66.553  1.00  0.00    -0.288 N  
HETATM   26  O   UNL     1     -10.058  11.129  64.182  1.00  0.00    -0.274 OA 
HETATM   27  C   UNL     1     -12.191  13.163  65.843  1.00  0.00    -0.436 C  
HETATM   28  N   UNL     1     -11.950  12.162  64.960  1.00  0.00    -0.329 NA 
HETATM   29  O   UNL     1     -13.245  13.767  65.942  1.00  0.00    -0.365 OA 
HETATM   30  C   UNL     1     -10.638  11.793  65.028  1.00  0.00    -0.288 C  
BRANCH  25  31
HETATM   31  C   UNL     1     -10.922  14.399  67.575  1.00  0.00    -0.293 C  
HETATM   32  H   UNL     1      -9.942  16.047  67.824  1.00  0.00     0.000 HD 
HETATM   33  O   UNL     1     -10.016  15.387  67.145  1.00  0.00    -0.231 OA 
ENDBRANCH  25  31
ENDBRANCH  22  24
ENDBRANCH  20  22
ENDBRANCH  18  20
ENDBRANCH  17  18
ENDBRANCH  15  17
ENDBRANCH  13  15
ENDBRANCH  11  13
ENDBRANCH   5  11
ENDBRANCH   2   4
TORSDOF 10
ENDMDL
MODEL      439
REMARK 921   NORMALIZED FREE ENERGY PREDICTED BY IDOCK:   -3.07 KCAL/MOL
REMARK 922        TOTAL FREE ENERGY PREDICTED BY IDOCK:   -6.86 KCAL/MOL
REMARK 923 INTER-LIGAND FREE ENERGY PREDICTED BY IDOCK:   -5.47 KCAL/MOL
REMARK 924 INTRA-LIGAND FREE ENERGY PREDICTED BY IDOCK:   -1.39 KCAL/MOL
REMARK 927      BINDING AFFINITY PREDICTED BY RF-SCORE:    0.00 PKD
ROOT
HETATM    1  O   UNL     1     -12.000  10.555  67.988  1.00  0.00    -0.758 OA 
HETATM    2  C   UNL     1     -10.912  10.013  68.697  1.00  0.00    -0.204 C  
HETATM    3  H   UNL     1     -12.681  10.796  68.605  1.00  0.00     0.000 HD 
ENDROOT
BRANCH   2   4
HETATM    4  N   UNL     1      -9.885   9.649  67.767  1.00  0.00    -0.153 N  
HETATM    5  C   UNL     1      -9.023  10.661  67.191  1.00  0.00    -0.136 C  
HETATM    6  O   UNL     1     -10.980   7.751  66.990  1.00  0.00    -0.247 OA 
HETATM    7  C   UNL     1      -8.937  10.126  65.743  1.00  0.00    -0.160 C  
HETATM    8  N   UNL     1      -9.456   8.869  65.724  1.00  0.00    -0.230 NA 
HETATM    9  O   UNL     1      -8.430  10.671  64.773  1.00  0.00    -0.168 OA 
HETATM   10  C   UNL     1     -10.158   8.643  66.856  1.00  0.00    -0.285 C  
BRANCH   5  11
HETATM   11  N   UNL     1      -7.716  10.638  67.798  1.00  0.00    -0.099 N  
HETATM   12  H   UNL     1      -6.977  10.074  67.380  1.00  0.00     0.000 HD 
BRANCH  11  13
HETATM   13  C   UNL     1      -7.453  11.363  68.924  1.00  0.00    -0.113 C  
HETATM   14  O   UNL     1      -7.218  12.564  68.920  1.00  0.00    -0.102 OA 
BRANCH  13  15
HETATM   15  N   UNL     1      -7.561  10.612  70.065  1.00  0.00    -0.331 N  
HETATM   16  H   UNL     1      -7.928  11.031  70.919  1.00  0.00     0.000 HD 
BRANCH  15  17
HETATM   17  C   UNL     1      -7.159   9.237  70.056  1.00  0.00    -0.070 C  
BRANCH  17  18
HETATM   18  N   UNL     1      -6.464   8.866  71.261  1.00  0.00    -0.070 N  
HETATM   19  H   UNL     1      -5.448   8.951  71.316  1.00  0.00     0.000 HD 
BRANCH  18  20
HETATM   20  C   UNL     1      -7.177   8.399  72.334  1.00  0.00    -0.083 C  
HETATM   21  O   UNL     1      -7.098   8.869  73.461  1.00  0.00    -0.357 OA 
BRANCH  20  22
HETATM   22  N   UNL     1      -8.002   7.351  72.001  1.00  0.00    -0.092 N  
HETATM   23  H   UNL     1      -7.837   6.776  71.175  1.00  0.00     0.000 HD 
BRANCH  22  24
HETATM   24  C   UNL     1      -9.112   7.113  72.883  1.00  0.00    -0.136 C  
HETATM   25  N   UNL     1     -10.302   6.563  72.282  1.00  0.00    -0.189 N  
HETATM   26  O   UNL     1      -7.835   5.721  74.508  1.00  0.00    -0.100 OA 
HETATM   27  C   UNL     1     -10.923   5.669  73.131  1.00  0.00    -0.285 C  
HETATM   28  N   UNL     1     -10.070   5.376  74.143  1.00  0.00    -0.214 NA 
HETATM   29  O   UNL     1     -12.030   5.178  72.986  1.00  0.00    -0.231 OA 
HETATM   30  C   UNL     1      -8.877   6.003  73.937  1.00  0.00    -0.126 C  
BRANCH  25  31
HETATM   31  C   UNL     1     -10.912   7.095  71.104  1.00  0.00    -0.248 C  
HETATM   32  H   UNL     1     -12.362   8.310  70.706  1.00  0.00     0.000 HD 
HETATM   33  O   UNL     1     -11.956   7.956  71.489  1.00  0.00    -0.284 OA 
ENDBRANCH  25  31
ENDBRANCH  22  24
ENDBRANCH  20  22
ENDBRANCH  18  20
ENDBRANCH  17  18
ENDBRANCH  15  17
ENDBRANCH  13  15
ENDBRANCH  11  13
ENDBRANCH   5  11
ENDBRANCH   2   4
TORSDOF 10
ENDMDL
MODEL      440
REMARK 921   NORMALIZED FREE ENERGY PREDICTED BY IDOCK:   -3.06 KCAL/MOL
REMARK 922        TOTAL FREE ENERGY PREDICTED BY IDOCK:   -6.85 KCAL/MOL
REMARK 923 INTER-LIGAND FREE ENERGY PREDICTED BY IDOCK:   -5.32 KCAL/MOL
REMARK 924 INTRA-LIGAND FREE ENERGY PREDICTED BY IDOCK:   -1.53 KCAL/MOL
REMARK 927      BINDING AFFINITY PREDICTED BY RF-SCORE:    0.00 PKD
ROOT
HETATM    1  O   UNL     1      -6.172   9.209  66.107  1.00  0.00    -0.061 OA 
HETATM    2  C   UNL     1      -6.910  10.119  65.327  1.00  0.00    -0.137 C  
HETATM    3  H   UNL     1      -5.316   9.089  65.713  1.00  0.00     0.000 HD 
ENDROOT
BRANCH   2   4
HETATM    4  N   UNL     1      -8.201  10.301  65.920  1.00  0.00    -0.141 N  
HETATM    5  C   UNL     1      -8.661   9.409  66.965  1.00  0.00    -0.128 C  
HETATM    6  O   UNL     1      -9.146  11.303  64.048  1.00  0.00    -0.111 OA 
HETATM    7  C   UNL     1     -10.140   9.262  66.541  1.00  0.00    -0.273 C  
HETATM    8  N   UNL     1     -10.402  10.197  65.588  1.00  0.00    -0.201 NA 
HETATM    9  O   UNL     1     -10.980   8.506  67.006  1.00  0.00    -0.095 OA 
HETATM   10  C   UNL     1      -9.245  10.696  65.102  1.00  0.00    -0.207 C  
BRANCH   5  11
HETATM   11  N   UNL     1      -8.586  10.040  68.259  1.00  0.00    -0.114 N  
HETATM   12  H   UNL     1      -8.533   9.463  69.098  1.00  0.00     0.000 HD 
BRANCH  11  13
HETATM   13  C   UNL     1      -8.584  11.400  68.377  1.00  0.00    -0.156 C  
HETATM   14  O   UNL     1      -9.531  12.110  68.068  1.00  0.00    -0.188 OA 
BRANCH  13  15
HETATM   15  N   UNL     1      -7.435  11.872  68.956  1.00  0.00    -0.290 N  
HETATM   16  H   UNL     1      -7.278  11.745  69.956  1.00  0.00     0.000 HD 
BRANCH  15  17
HETATM   17  C   UNL     1      -6.456  12.545  68.156  1.00  0.00    -0.076 C  
BRANCH  17  18
HETATM   18  N   UNL     1      -7.053  13.475  67.233  1.00  0.00    -0.333 N  
HETATM   19  H   UNL     1      -7.571  13.135  66.422  1.00  0.00     0.000 HD 
BRANCH  18  20
HETATM   20  C   UNL     1      -6.920  14.821  67.453  1.00  0.00    -0.110 C  
HETATM   21  O   UNL     1      -5.888  15.349  67.843  1.00  0.00    -0.130 OA 
BRANCH  20  22
HETATM   22  N   UNL     1      -8.074  15.515  67.175  1.00  0.00    -0.197 N  
HETATM   23  H   UNL     1      -8.717  15.220  66.441  1.00  0.00     0.000 HD 
BRANCH  22  24
HETATM   24  C   UNL     1      -8.322  16.681  67.979  1.00  0.00    -0.187 C  
HETATM   25  N   UNL     1      -8.959  17.793  67.317  1.00  0.00    -0.243 N  
HETATM   26  O   UNL     1      -9.565  15.478  69.773  1.00  0.00    -0.279 OA 
HETATM   27  C   UNL     1      -9.838  18.440  68.162  1.00  0.00    -0.342 C  
HETATM   28  N   UNL     1     -10.038  17.659  69.253  1.00  0.00    -0.222 NA 
HETATM   29  O   UNL     1     -10.390  19.507  67.958  1.00  0.00    -0.415 OA 
HETATM   30  C   UNL     1      -9.364  16.482  69.107  1.00  0.00    -0.207 C  
BRANCH  25  31
HETATM   31  C   UNL     1      -8.519  18.328  66.068  1.00  0.00    -0.004 C  
HETATM   32  H   UNL     1      -6.946  18.170  64.954  1.00  0.00     0.000 HD 
HETATM   33  O   UNL     1      -7.240  17.814  65.785  1.00  0.00    -0.469 OA 
ENDBRANCH  25  31
ENDBRANCH  22  24
ENDBRANCH  20  22
ENDBRANCH  18  20
ENDBRANCH  17  18
ENDBRANCH  15  17
ENDBRANCH  13  15
ENDBRANCH  11  13
ENDBRANCH   5  11
ENDBRANCH   2   4
TORSDOF 10
ENDMDL
MODEL      441
REMARK 921   NORMALIZED FREE ENERGY PREDICTED BY IDOCK:   -3.06 KCAL/MOL
REMARK 922        TOTAL FREE ENERGY PREDICTED BY IDOCK:   -6.85 KCAL/MOL
REMARK 923 INTER-LIGAND FREE ENERGY PREDICTED BY IDOCK:   -5.84 KCAL/MOL
REMARK 924 INTRA-LIGAND FREE ENERGY PREDICTED BY IDOCK:   -1.01 KCAL/MOL
REMARK 927      BINDING AFFINITY PREDICTED BY RF-SCORE:    0.00 PKD
ROOT
HETATM    1  O   UNL     1     -11.688  11.761  67.986  1.00  0.00    -0.402 OA 
HETATM    2  C   UNL     1     -11.811  12.827  68.896  1.00  0.00    -0.308 C  
HETATM    3  H   UNL     1     -11.576  12.113  67.111  1.00  0.00     0.000 HD 
ENDROOT
BRANCH   2   4
HETATM    4  N   UNL     1     -11.980  12.295  70.215  1.00  0.00    -0.335 N  
HETATM    5  C   UNL     1     -12.236  10.883  70.411  1.00  0.00    -0.365 C  
HETATM    6  O   UNL     1     -12.777  14.277  71.133  1.00  0.00    -0.319 OA 
HETATM    7  C   UNL     1     -13.280  10.969  71.547  1.00  0.00    -0.299 C  
HETATM    8  N   UNL     1     -13.290  12.246  72.017  1.00  0.00    -0.477 NA 
HETATM    9  O   UNL     1     -13.945  10.061  72.023  1.00  0.00    -0.142 OA 
HETATM   10  C   UNL     1     -12.660  13.062  71.145  1.00  0.00    -0.297 C  
BRANCH   5  11
HETATM   11  N   UNL     1     -11.058  10.199  70.882  1.00  0.00    -0.345 N  
HETATM   12  H   UNL     1     -10.373  10.706  71.442  1.00  0.00     0.000 HD 
BRANCH  11  13
HETATM   13  C   UNL     1     -10.846   8.883  70.590  1.00  0.00    -0.239 C  
HETATM   14  O   UNL     1     -11.497   7.967  71.072  1.00  0.00    -0.275 OA 
BRANCH  13  15
HETATM   15  N   UNL     1      -9.878   8.710  69.636  1.00  0.00    -0.183 N  
HETATM   16  H   UNL     1      -8.894   8.694  69.904  1.00  0.00     0.000 HD 
BRANCH  15  17
HETATM   17  C   UNL     1     -10.249   8.551  68.261  1.00  0.00    -0.205 C  
BRANCH  17  18
HETATM   18  N   UNL     1     -10.610   7.193  67.949  1.00  0.00    -0.273 N  
HETATM   19  H   UNL     1     -11.479   6.992  67.454  1.00  0.00     0.000 HD 
BRANCH  18  20
HETATM   20  C   UNL     1      -9.775   6.172  68.321  1.00  0.00    -0.121 C  
HETATM   21  O   UNL     1      -8.636   6.033  67.895  1.00  0.00    -0.114 OA 
BRANCH  20  22
HETATM   22  N   UNL     1     -10.355   5.326  69.238  1.00  0.00    -0.233 N  
HETATM   23  H   UNL     1     -11.364   5.297  69.381  1.00  0.00     0.000 HD 
BRANCH  22  24
HETATM   24  C   UNL     1      -9.457   4.487  69.983  1.00  0.00    -0.177 C  
HETATM   25  N   UNL     1      -8.704   3.519  69.223  1.00  0.00    -0.077 N  
HETATM   26  O   UNL     1      -8.236   6.358  71.088  1.00  0.00    -0.119 OA 
HETATM   27  C   UNL     1      -7.430   3.366  69.731  1.00  0.00    -0.045 C  
HETATM   28  N   UNL     1      -7.193   4.377  70.605  1.00  0.00    -0.044 NA 
HETATM   29  O   UNL     1      -6.623   2.507  69.423  1.00  0.00    -0.032 OA 
HETATM   30  C   UNL     1      -8.259   5.228  70.626  1.00  0.00    -0.109 C  
BRANCH  25  31
HETATM   31  C   UNL     1      -9.292   2.629  68.273  1.00  0.00    -0.201 C  
HETATM   32  H   UNL     1      -9.122   2.297  66.375  1.00  0.00     0.000 HD 
HETATM   33  O   UNL     1      -8.731   2.889  67.008  1.00  0.00    -0.106 OA 
ENDBRANCH  25  31
ENDBRANCH  22  24
ENDBRANCH  20  22
ENDBRANCH  18  20
ENDBRANCH  17  18
ENDBRANCH  15  17
ENDBRANCH  13  15
ENDBRANCH  11  13
ENDBRANCH   5  11
ENDBRANCH   2   4
TORSDOF 10
ENDMDL
MODEL      442
REMARK 921   NORMALIZED FREE ENERGY PREDICTED BY IDOCK:   -3.04 KCAL/MOL
REMARK 922        TOTAL FREE ENERGY PREDICTED BY IDOCK:   -6.82 KCAL/MOL
REMARK 923 INTER-LIGAND FREE ENERGY PREDICTED BY IDOCK:   -4.37 KCAL/MOL
REMARK 924 INTRA-LIGAND FREE ENERGY PREDICTED BY IDOCK:   -2.45 KCAL/MOL
REMARK 927      BINDING AFFINITY PREDICTED BY RF-SCORE:    0.00 PKD
ROOT
HETATM    1  O   UNL     1     -10.909   6.465  66.339  1.00  0.00    -0.520 OA 
HETATM    2  C   UNL     1     -10.450   7.650  66.944  1.00  0.00    -0.318 C  
HETATM    3  H   UNL     1     -11.476   6.690  65.611  1.00  0.00     0.000 HD 
ENDROOT
BRANCH   2   4
HETATM    4  N   UNL     1      -9.597   7.312  68.043  1.00  0.00    -0.138 N  
HETATM    5  C   UNL     1      -8.156   7.359  67.896  1.00  0.00    -0.119 C  
HETATM    6  O   UNL     1     -11.124   5.879  69.053  1.00  0.00    -0.336 OA 
HETATM    7  C   UNL     1      -7.778   6.092  68.695  1.00  0.00    -0.095 C  
HETATM    8  N   UNL     1      -8.881   5.671  69.371  1.00  0.00    -0.111 NA 
HETATM    9  O   UNL     1      -6.677   5.569  68.792  1.00  0.00    -0.049 OA 
HETATM   10  C   UNL     1      -9.983   6.274  68.874  1.00  0.00    -0.153 C  
BRANCH   5  11
HETATM   11  N   UNL     1      -7.605   8.525  68.541  1.00  0.00    -0.094 N  
HETATM   12  H   UNL     1      -8.148   9.387  68.571  1.00  0.00     0.000 HD 
BRANCH  11  13
HETATM   13  C   UNL     1      -6.365   8.490  69.111  1.00  0.00    -0.043 C  
HETATM   14  O   UNL     1      -5.324   8.442  68.471  1.00  0.00    -0.032 OA 
BRANCH  13  15
HETATM   15  N   UNL     1      -6.415   8.597  70.476  1.00  0.00    -0.036 N  
HETATM   16  H   UNL     1      -7.160   9.135  70.919  1.00  0.00     0.000 HD 
BRANCH  15  17
HETATM   17  C   UNL     1      -5.421   7.952  71.281  1.00  0.00    -0.034 C  
BRANCH  17  18
HETATM   18  N   UNL     1      -5.982   6.930  72.125  1.00  0.00    -0.038 N  
HETATM   19  H   UNL     1      -5.495   6.043  72.252  1.00  0.00     0.000 HD 
BRANCH  18  20
HETATM   20  C   UNL     1      -7.177   7.159  72.755  1.00  0.00    -0.072 C  
HETATM   21  O   UNL     1      -7.304   7.884  73.733  1.00  0.00    -0.119 OA 
BRANCH  20  22
HETATM   22  N   UNL     1      -8.223   6.493  72.160  1.00  0.00    -0.107 N  
HETATM   23  H   UNL     1      -8.094   5.932  71.318  1.00  0.00     0.000 HD 
BRANCH  22  24
HETATM   24  C   UNL     1      -9.506   6.634  72.791  1.00  0.00    -0.142 C  
HETATM   25  N   UNL     1     -10.380   7.646  72.250  1.00  0.00    -0.211 N  
HETATM   26  O   UNL     1     -10.155   4.238  72.558  1.00  0.00    -0.160 OA 
HETATM   27  C   UNL     1     -11.697   7.236  72.277  1.00  0.00    -0.265 C  
HETATM   28  N   UNL     1     -11.727   5.905  72.539  1.00  0.00    -0.287 NA 
HETATM   29  O   UNL     1     -12.678   7.925  72.057  1.00  0.00    -0.311 OA 
HETATM   30  C   UNL     1     -10.453   5.422  72.613  1.00  0.00    -0.217 C  
BRANCH  25  31
HETATM   31  C   UNL     1      -9.973   8.993  72.003  1.00  0.00    -0.154 C  
HETATM   32  H   UNL     1      -9.095   9.950  70.570  1.00  0.00     0.000 HD 
HETATM   33  O   UNL     1      -9.366   9.054  70.734  1.00  0.00    -0.205 OA 
ENDBRANCH  25  31
ENDBRANCH  22  24
ENDBRANCH  20  22
ENDBRANCH  18  20
ENDBRANCH  17  18
ENDBRANCH  15  17
ENDBRANCH  13  15
ENDBRANCH  11  13
ENDBRANCH   5  11
ENDBRANCH   2   4
TORSDOF 10
ENDMDL
MODEL      443
REMARK 921   NORMALIZED FREE ENERGY PREDICTED BY IDOCK:   -3.01 KCAL/MOL
REMARK 922        TOTAL FREE ENERGY PREDICTED BY IDOCK:   -6.77 KCAL/MOL
REMARK 923 INTER-LIGAND FREE ENERGY PREDICTED BY IDOCK:   -5.06 KCAL/MOL
REMARK 924 INTRA-LIGAND FREE ENERGY PREDICTED BY IDOCK:   -1.71 KCAL/MOL
REMARK 927      BINDING AFFINITY PREDICTED BY RF-SCORE:    0.00 PKD
ROOT
HETATM    1  O   UNL     1      -9.475   9.419  68.917  1.00  0.00    -0.150 OA 
HETATM    2  C   UNL     1      -9.550  10.791  69.221  1.00  0.00    -0.100 C  
HETATM    3  H   UNL     1      -9.113   8.957  69.663  1.00  0.00     0.000 HD 
ENDROOT
BRANCH   2   4
HETATM    4  N   UNL     1     -10.095  11.489  68.094  1.00  0.00    -0.187 N  
HETATM    5  C   UNL     1      -9.409  12.639  67.541  1.00  0.00    -0.188 C  
HETATM    6  O   UNL     1     -12.303  10.925  68.554  1.00  0.00    -0.490 OA 
HETATM    7  C   UNL     1     -10.628  13.541  67.241  1.00  0.00    -0.263 C  
HETATM    8  N   UNL     1     -11.754  12.788  67.370  1.00  0.00    -0.358 NA 
HETATM    9  O   UNL     1     -10.624  14.707  66.875  1.00  0.00    -0.274 OA 
HETATM   10  C   UNL     1     -11.468  11.641  68.023  1.00  0.00    -0.315 C  
BRANCH   5  11
HETATM   11  N   UNL     1      -8.737  12.303  66.311  1.00  0.00    -0.408 N  
HETATM   12  H   UNL     1      -8.644  13.008  65.580  1.00  0.00     0.000 HD 
BRANCH  11  13
HETATM   13  C   UNL     1      -8.224  11.054  66.110  1.00  0.00    -0.155 C  
HETATM   14  O   UNL     1      -7.309  10.582  66.771  1.00  0.00    -0.104 OA 
BRANCH  13  15
HETATM   15  N   UNL     1      -8.901  10.361  65.141  1.00  0.00    -0.180 N  
HETATM   16  H   UNL     1      -8.698  10.532  64.157  1.00  0.00     0.000 HD 
BRANCH  15  17
HETATM   17  C   UNL     1      -9.893   9.397  65.513  1.00  0.00    -0.161 C  
BRANCH  17  18
HETATM   18  N   UNL     1      -9.309   8.178  66.006  1.00  0.00    -0.366 N  
HETATM   19  H   UNL     1      -8.295   8.074  66.051  1.00  0.00     0.000 HD 
BRANCH  18  20
HETATM   20  C   UNL     1     -10.127   7.157  66.416  1.00  0.00     0.020 C  
HETATM   21  O   UNL     1     -11.126   7.319  67.103  1.00  0.00    -0.295 OA 
BRANCH  20  22
HETATM   22  N   UNL     1      -9.706   5.930  65.959  1.00  0.00    -0.357 N  
HETATM   23  H   UNL     1     -10.224   5.414  65.248  1.00  0.00     0.000 HD 
BRANCH  22  24
HETATM   24  C   UNL     1      -8.496   5.417  66.540  1.00  0.00    -0.113 C  
HETATM   25  N   UNL     1      -8.611   4.180  67.273  1.00  0.00    -0.100 N  
HETATM   26  O   UNL     1      -7.180   5.443  64.424  1.00  0.00    -0.052 OA 
HETATM   27  C   UNL     1      -7.495   3.387  67.092  1.00  0.00    -0.071 C  
HETATM   28  N   UNL     1      -6.772   3.893  66.061  1.00  0.00    -0.048 NA 
HETATM   29  O   UNL     1      -7.215   2.374  67.708  1.00  0.00    -0.047 OA 
HETATM   30  C   UNL     1      -7.428   4.959  65.518  1.00  0.00    -0.081 C  
BRANCH  25  31
HETATM   31  C   UNL     1      -9.598   3.944  68.278  1.00  0.00    -0.114 C  
HETATM   32  H   UNL     1      -9.849   4.428  70.133  1.00  0.00     0.000 HD 
HETATM   33  O   UNL     1      -9.193   4.585  69.464  1.00  0.00    -0.105 OA 
ENDBRANCH  25  31
ENDBRANCH  22  24
ENDBRANCH  20  22
ENDBRANCH  18  20
ENDBRANCH  17  18
ENDBRANCH  15  17
ENDBRANCH  13  15
ENDBRANCH  11  13
ENDBRANCH   5  11
ENDBRANCH   2   4
TORSDOF 10
ENDMDL
MODEL      444
REMARK 921   NORMALIZED FREE ENERGY PREDICTED BY IDOCK:   -3.01 KCAL/MOL
REMARK 922        TOTAL FREE ENERGY PREDICTED BY IDOCK:   -6.77 KCAL/MOL
REMARK 923 INTER-LIGAND FREE ENERGY PREDICTED BY IDOCK:   -5.38 KCAL/MOL
REMARK 924 INTRA-LIGAND FREE ENERGY PREDICTED BY IDOCK:   -1.39 KCAL/MOL
REMARK 927      BINDING AFFINITY PREDICTED BY RF-SCORE:    0.00 PKD
ROOT
HETATM    1  O   UNL     1      -9.415   8.729  70.569  1.00  0.00    -0.164 OA 
HETATM    2  C   UNL     1      -9.288   9.863  69.745  1.00  0.00    -0.221 C  
HETATM    3  H   UNL     1      -8.610   8.613  71.059  1.00  0.00     0.000 HD 
ENDROOT
BRANCH   2   4
HETATM    4  N   UNL     1     -10.502  10.039  69.005  1.00  0.00    -0.202 N  
HETATM    5  C   UNL     1     -10.475  10.126  67.559  1.00  0.00    -0.253 C  
HETATM    6  O   UNL     1     -11.631  11.127  70.721  1.00  0.00    -0.239 OA 
HETATM    7  C   UNL     1     -11.532  11.235  67.352  1.00  0.00    -0.221 C  
HETATM    8  N   UNL     1     -12.177  11.431  68.534  1.00  0.00    -0.520 NA 
HETATM    9  O   UNL     1     -11.823  11.807  66.312  1.00  0.00    -0.501 OA 
HETATM   10  C   UNL     1     -11.479  10.860  69.540  1.00  0.00    -0.301 C  
BRANCH   5  11
HETATM   11  N   UNL     1     -10.930   8.900  66.954  1.00  0.00    -0.166 N  
HETATM   12  H   UNL     1     -11.704   8.923  66.291  1.00  0.00     0.000 HD 
BRANCH  11  13
HETATM   13  C   UNL     1     -10.339   7.707  67.256  1.00  0.00    -0.297 C  
HETATM   14  O   UNL     1      -9.129   7.528  67.249  1.00  0.00    -0.121 OA 
BRANCH  13  15
HETATM   15  N   UNL     1     -11.248   6.758  67.645  1.00  0.00    -0.598 N  
HETATM   16  H   UNL     1     -11.917   6.386  66.972  1.00  0.00     0.000 HD 
BRANCH  15  17
HETATM   17  C   UNL     1     -11.257   6.290  68.999  1.00  0.00    -0.343 C  
BRANCH  17  18
HETATM   18  N   UNL     1      -9.928   6.081  69.511  1.00  0.00    -0.169 N  
HETATM   19  H   UNL     1      -9.273   6.861  69.580  1.00  0.00     0.000 HD 
BRANCH  18  20
HETATM   20  C   UNL     1      -9.548   4.824  69.905  1.00  0.00    -0.181 C  
HETATM   21  O   UNL     1     -10.248   3.829  69.775  1.00  0.00     0.241 OA 
BRANCH  20  22
HETATM   22  N   UNL     1      -8.286   4.803  70.451  1.00  0.00    -0.085 N  
HETATM   23  H   UNL     1      -7.479   5.187  69.959  1.00  0.00     0.000 HD 
BRANCH  22  24
HETATM   24  C   UNL     1      -8.169   4.209  71.755  1.00  0.00    -0.091 C  
HETATM   25  N   UNL     1      -9.194   4.552  72.710  1.00  0.00    -0.127 N  
HETATM   26  O   UNL     1      -8.025   1.858  70.938  1.00  0.00    -0.042 OA 
HETATM   27  C   UNL     1      -9.508   3.474  73.513  1.00  0.00    -0.103 C  
HETATM   28  N   UNL     1      -8.961   2.359  72.968  1.00  0.00    -0.070 NA 
HETATM   29  O   UNL     1     -10.199   3.493  74.518  1.00  0.00    -0.157 OA 
HETATM   30  C   UNL     1      -8.356   2.672  71.787  1.00  0.00    -0.057 C  
BRANCH  25  31
HETATM   31  C   UNL     1      -9.606   5.892  72.983  1.00  0.00    -0.154 C  
HETATM   32  H   UNL     1     -11.247   6.906  72.851  1.00  0.00     0.000 HD 
HETATM   33  O   UNL     1     -10.973   6.014  72.670  1.00  0.00    -0.235 OA 
ENDBRANCH  25  31
ENDBRANCH  22  24
ENDBRANCH  20  22
ENDBRANCH  18  20
ENDBRANCH  17  18
ENDBRANCH  15  17
ENDBRANCH  13  15
ENDBRANCH  11  13
ENDBRANCH   5  11
ENDBRANCH   2   4
TORSDOF 10
ENDMDL
MODEL      445
REMARK 921   NORMALIZED FREE ENERGY PREDICTED BY IDOCK:   -3.01 KCAL/MOL
REMARK 922        TOTAL FREE ENERGY PREDICTED BY IDOCK:   -6.76 KCAL/MOL
REMARK 923 INTER-LIGAND FREE ENERGY PREDICTED BY IDOCK:   -6.85 KCAL/MOL
REMARK 924 INTRA-LIGAND FREE ENERGY PREDICTED BY IDOCK:    0.08 KCAL/MOL
REMARK 927      BINDING AFFINITY PREDICTED BY RF-SCORE:    0.00 PKD
ROOT
HETATM    1  O   UNL     1      -6.774  11.998  70.062  1.00  0.00    -0.359 OA 
HETATM    2  C   UNL     1      -6.727  11.299  68.841  1.00  0.00    -0.081 C  
HETATM    3  H   UNL     1      -5.892  12.080  70.405  1.00  0.00     0.000 HD 
ENDROOT
BRANCH   2   4
HETATM    4  N   UNL     1      -8.058  11.175  68.325  1.00  0.00    -0.124 N  
HETATM    5  C   UNL     1      -8.879  12.352  68.121  1.00  0.00    -0.191 C  
HETATM    6  O   UNL     1      -8.396   9.027  69.146  1.00  0.00    -0.118 OA 
HETATM    7  C   UNL     1     -10.239  11.798  68.601  1.00  0.00    -0.201 C  
HETATM    8  N   UNL     1     -10.124  10.449  68.736  1.00  0.00    -0.178 NA 
HETATM    9  O   UNL     1     -11.281  12.414  68.768  1.00  0.00    -0.238 OA 
HETATM   10  C   UNL     1      -8.820  10.096  68.737  1.00  0.00    -0.146 C  
BRANCH   5  11
HETATM   11  N   UNL     1      -8.958  12.696  66.723  1.00  0.00    -0.276 N  
HETATM   12  H   UNL     1      -8.334  12.243  66.057  1.00  0.00     0.000 HD 
BRANCH  11  13
HETATM   13  C   UNL     1      -9.858  13.622  66.279  1.00  0.00    -0.301 C  
HETATM   14  O   UNL     1     -10.620  13.432  65.341  1.00  0.00    -0.286 OA 
BRANCH  13  15
HETATM   15  N   UNL     1      -9.868  14.753  67.052  1.00  0.00    -0.235 N  
HETATM   16  H   UNL     1     -10.631  14.915  67.709  1.00  0.00     0.000 HD 
BRANCH  15  17
HETATM   17  C   UNL     1      -8.806  15.707  66.936  1.00  0.00    -0.250 C  
BRANCH  17  18
HETATM   18  N   UNL     1      -9.281  17.063  67.024  1.00  0.00    -0.230 N  
HETATM   19  H   UNL     1      -9.019  17.748  66.315  1.00  0.00     0.000 HD 
BRANCH  18  20
HETATM   20  C   UNL     1     -10.090  17.426  68.069  1.00  0.00    -0.326 C  
HETATM   21  O   UNL     1     -11.130  16.851  68.358  1.00  0.00    -0.341 OA 
BRANCH  20  22
HETATM   22  N   UNL     1      -9.595  18.503  68.767  1.00  0.00    -0.348 N  
HETATM   23  H   UNL     1      -9.657  18.560  69.784  1.00  0.00     0.000 HD 
BRANCH  22  24
HETATM   24  C   UNL     1      -8.985  19.542  67.983  1.00  0.00    -0.327 C  
HETATM   25  N   UNL     1      -7.610  19.334  67.601  1.00  0.00    -0.241 N  
HETATM   26  O   UNL     1     -10.735  19.564  66.208  1.00  0.00    -0.453 OA 
HETATM   27  C   UNL     1      -7.365  19.822  66.334  1.00  0.00    -0.271 C  
HETATM   28  N   UNL     1      -8.555  20.086  65.738  1.00  0.00    -0.222 NA 
HETATM   29  O   UNL     1      -6.275  19.954  65.804  1.00  0.00    -0.181 OA 
HETATM   30  C   UNL     1      -9.575  19.713  66.562  1.00  0.00    -0.389 C  
BRANCH  25  31
HETATM   31  C   UNL     1      -6.583  18.953  68.518  1.00  0.00    -0.246 C  
HETATM   32  H   UNL     1      -5.499  19.838  69.851  1.00  0.00     0.000 HD 
HETATM   33  O   UNL     1      -6.182  20.091  69.242  1.00  0.00    -0.287 OA 
ENDBRANCH  25  31
ENDBRANCH  22  24
ENDBRANCH  20  22
ENDBRANCH  18  20
ENDBRANCH  17  18
ENDBRANCH  15  17
ENDBRANCH  13  15
ENDBRANCH  11  13
ENDBRANCH   5  11
ENDBRANCH   2   4
TORSDOF 10
ENDMDL
MODEL      446
REMARK 921   NORMALIZED FREE ENERGY PREDICTED BY IDOCK:   -3.01 KCAL/MOL
REMARK 922        TOTAL FREE ENERGY PREDICTED BY IDOCK:   -6.76 KCAL/MOL
REMARK 923 INTER-LIGAND FREE ENERGY PREDICTED BY IDOCK:   -5.23 KCAL/MOL
REMARK 924 INTRA-LIGAND FREE ENERGY PREDICTED BY IDOCK:   -1.53 KCAL/MOL
REMARK 927      BINDING AFFINITY PREDICTED BY RF-SCORE:    0.00 PKD
ROOT
HETATM    1  O   UNL     1      -9.411   5.215  73.920  1.00  0.00    -0.127 OA 
HETATM    2  C   UNL     1      -8.091   5.195  73.431  1.00  0.00    -0.111 C  
HETATM    3  H   UNL     1      -9.388   5.265  74.868  1.00  0.00     0.000 HD 
ENDROOT
BRANCH   2   4
HETATM    4  N   UNL     1      -8.125   5.120  72.001  1.00  0.00    -0.111 N  
HETATM    5  C   UNL     1      -9.391   5.030  71.300  1.00  0.00    -0.149 C  
HETATM    6  O   UNL     1      -6.034   4.125  71.799  1.00  0.00    -0.015 OA 
HETATM    7  C   UNL     1      -9.003   4.012  70.205  1.00  0.00    -0.096 C  
HETATM    8  N   UNL     1      -7.650   3.868  70.220  1.00  0.00    -0.045 NA 
HETATM    9  O   UNL     1      -9.739   3.466  69.396  1.00  0.00    -0.133 OA 
HETATM   10  C   UNL     1      -7.145   4.380  71.363  1.00  0.00    -0.043 C  
BRANCH   5  11
HETATM   11  N   UNL     1      -9.740   6.290  70.693  1.00  0.00    -0.175 N  
HETATM   12  H   UNL     1      -9.006   6.883  70.306  1.00  0.00     0.000 HD 
BRANCH  11  13
HETATM   13  C   UNL     1     -11.040   6.701  70.627  1.00  0.00    -0.298 C  
HETATM   14  O   UNL     1     -11.764   6.821  71.606  1.00  0.00    -0.280 OA 
BRANCH  13  15
HETATM   15  N   UNL     1     -11.417   7.040  69.354  1.00  0.00    -0.536 N  
HETATM   16  H   UNL     1     -12.239   6.608  68.933  1.00  0.00     0.000 HD 
BRANCH  15  17
HETATM   17  C   UNL     1     -10.654   8.002  68.616  1.00  0.00    -0.109 C  
BRANCH  17  18
HETATM   18  N   UNL     1     -10.469   9.227  69.348  1.00  0.00    -0.214 N  
HETATM   19  H   UNL     1     -11.238   9.626  69.887  1.00  0.00     0.000 HD 
BRANCH  18  20
HETATM   20  C   UNL     1      -9.251   9.854  69.315  1.00  0.00    -0.200 C  
HETATM   21  O   UNL     1      -8.181   9.270  69.424  1.00  0.00    -0.103 OA 
BRANCH  20  22
HETATM   22  N   UNL     1      -9.363  11.212  69.132  1.00  0.00    -0.404 N  
HETATM   23  H   UNL     1      -9.557  11.846  69.907  1.00  0.00     0.000 HD 
BRANCH  22  24
HETATM   24  C   UNL     1      -9.189  11.687  67.786  1.00  0.00    -0.178 C  
HETATM   25  N   UNL     1     -10.365  12.209  67.134  1.00  0.00    -0.213 N  
HETATM   26  O   UNL     1      -7.318  13.246  68.319  1.00  0.00    -0.093 OA 
HETATM   27  C   UNL     1     -10.052  13.285  66.327  1.00  0.00    -0.294 C  
HETATM   28  N   UNL     1      -8.791  13.689  66.620  1.00  0.00    -0.131 NA 
HETATM   29  O   UNL     1     -10.787  13.825  65.518  1.00  0.00    -0.287 OA 
HETATM   30  C   UNL     1      -8.297  12.946  67.652  1.00  0.00    -0.176 C  
BRANCH  25  31
HETATM   31  C   UNL     1     -11.618  11.525  67.094  1.00  0.00    -0.167 C  
HETATM   32  H   UNL     1     -13.011  11.081  68.359  1.00  0.00     0.000 HD 
HETATM   33  O   UNL     1     -12.178  11.536  68.385  1.00  0.00    -0.540 OA 
ENDBRANCH  25  31
ENDBRANCH  22  24
ENDBRANCH  20  22
ENDBRANCH  18  20
ENDBRANCH  17  18
ENDBRANCH  15  17
ENDBRANCH  13  15
ENDBRANCH  11  13
ENDBRANCH   5  11
ENDBRANCH   2   4
TORSDOF 10
ENDMDL
MODEL      447
REMARK 921   NORMALIZED FREE ENERGY PREDICTED BY IDOCK:   -3.00 KCAL/MOL
REMARK 922        TOTAL FREE ENERGY PREDICTED BY IDOCK:   -6.75 KCAL/MOL
REMARK 923 INTER-LIGAND FREE ENERGY PREDICTED BY IDOCK:   -5.95 KCAL/MOL
REMARK 924 INTRA-LIGAND FREE ENERGY PREDICTED BY IDOCK:   -0.80 KCAL/MOL
REMARK 927      BINDING AFFINITY PREDICTED BY RF-SCORE:    0.00 PKD
ROOT
HETATM    1  O   UNL     1      -7.778  10.300  64.062  1.00  0.00    -0.186 OA 
HETATM    2  C   UNL     1      -7.703   8.918  63.811  1.00  0.00    -0.129 C  
HETATM    3  H   UNL     1      -7.398  10.768  63.328  1.00  0.00     0.000 HD 
ENDROOT
BRANCH   2   4
HETATM    4  N   UNL     1      -8.276   8.212  64.918  1.00  0.00    -0.155 N  
HETATM    5  C   UNL     1      -8.205   8.763  66.256  1.00  0.00    -0.115 C  
HETATM    6  O   UNL     1      -8.032   6.106  63.966  1.00  0.00    -0.117 OA 
HETATM    7  C   UNL     1      -7.923   7.466  67.049  1.00  0.00    -0.116 C  
HETATM    8  N   UNL     1      -8.127   6.408  66.218  1.00  0.00    -0.110 NA 
HETATM    9  O   UNL     1      -7.639   7.360  68.233  1.00  0.00    -0.109 OA 
HETATM   10  C   UNL     1      -8.173   6.832  64.936  1.00  0.00    -0.082 C  
BRANCH   5  11
HETATM   11  N   UNL     1      -9.473   9.315  66.661  1.00  0.00    -0.177 N  
HETATM   12  H   UNL     1     -10.146   9.603  65.952  1.00  0.00     0.000 HD 
BRANCH  11  13
HETATM   13  C   UNL     1      -9.786   9.459  67.982  1.00  0.00    -0.145 C  
HETATM   14  O   UNL     1     -10.723   8.889  68.525  1.00  0.00    -0.178 OA 
BRANCH  13  15
HETATM   15  N   UNL     1      -8.886  10.248  68.649  1.00  0.00    -0.130 N  
HETATM   16  H   UNL     1      -7.982   9.867  68.929  1.00  0.00     0.000 HD 
BRANCH  15  17
HETATM   17  C   UNL     1      -9.215  11.609  68.952  1.00  0.00     0.059 C  
BRANCH  17  18
HETATM   18  N   UNL     1      -8.988  12.486  67.833  1.00  0.00    -0.180 N  
HETATM   19  H   UNL     1      -9.162  12.161  66.881  1.00  0.00     0.000 HD 
BRANCH  18  20
HETATM   20  C   UNL     1      -8.538  13.760  68.056  1.00  0.00    -0.177 C  
HETATM   21  O   UNL     1      -7.366  14.041  68.268  1.00  0.00    -0.094 OA 
BRANCH  20  22
HETATM   22  N   UNL     1      -9.547  14.692  68.002  1.00  0.00    -0.207 N  
HETATM   23  H   UNL     1     -10.339  14.667  68.645  1.00  0.00     0.000 HD 
BRANCH  22  24
HETATM   24  C   UNL     1      -9.424  15.704  66.989  1.00  0.00    -0.224 C  
HETATM   25  N   UNL     1     -10.192  15.503  65.785  1.00  0.00    -0.337 N  
HETATM   26  O   UNL     1     -10.004  17.614  68.481  1.00  0.00    -0.326 OA 
HETATM   27  C   UNL     1     -10.671  16.701  65.293  1.00  0.00    -0.204 C  
HETATM   28  N   UNL     1     -10.509  17.652  66.246  1.00  0.00    -0.330 NA 
HETATM   29  O   UNL     1     -11.198  16.883  64.209  1.00  0.00    -1.204 OA 
HETATM   30  C   UNL     1      -9.999  17.087  67.378  1.00  0.00    -0.278 C  
BRANCH  25  31
HETATM   31  C   UNL     1     -10.201  14.281  65.046  1.00  0.00    -0.372 C  
HETATM   32  H   UNL     1     -11.541  13.042  64.406  1.00  0.00     0.000 HD 
HETATM   33  O   UNL     1     -11.534  13.855  64.898  1.00  0.00    -0.326 OA 
ENDBRANCH  25  31
ENDBRANCH  22  24
ENDBRANCH  20  22
ENDBRANCH  18  20
ENDBRANCH  17  18
ENDBRANCH  15  17
ENDBRANCH  13  15
ENDBRANCH  11  13
ENDBRANCH   5  11
ENDBRANCH   2   4
TORSDOF 10
ENDMDL
MODEL      448
REMARK 921   NORMALIZED FREE ENERGY PREDICTED BY IDOCK:   -3.00 KCAL/MOL
REMARK 922        TOTAL FREE ENERGY PREDICTED BY IDOCK:   -6.75 KCAL/MOL
REMARK 923 INTER-LIGAND FREE ENERGY PREDICTED BY IDOCK:   -5.72 KCAL/MOL
REMARK 924 INTRA-LIGAND FREE ENERGY PREDICTED BY IDOCK:   -1.03 KCAL/MOL
REMARK 927      BINDING AFFINITY PREDICTED BY RF-SCORE:    0.00 PKD
ROOT
HETATM    1  O   UNL     1     -10.120   4.791  69.728  1.00  0.00    -0.233 OA 
HETATM    2  C   UNL     1      -9.394   5.959  70.025  1.00  0.00    -0.148 C  
HETATM    3  H   UNL     1     -10.391   4.381  70.541  1.00  0.00     0.000 HD 
ENDROOT
BRANCH   2   4
HETATM    4  N   UNL     1      -8.986   6.578  68.799  1.00  0.00    -0.125 N  
HETATM    5  C   UNL     1      -9.629   6.226  67.549  1.00  0.00    -0.116 C  
HETATM    6  O   UNL     1      -6.806   6.990  69.495  1.00  0.00    -0.048 OA 
HETATM    7  C   UNL     1      -8.391   6.210  66.623  1.00  0.00    -0.111 C  
HETATM    8  N   UNL     1      -7.350   6.767  67.297  1.00  0.00    -0.088 NA 
HETATM    9  O   UNL     1      -8.333   5.842  65.459  1.00  0.00    -0.128 OA 
HETATM   10  C   UNL     1      -7.638   6.835  68.616  1.00  0.00    -0.105 C  
BRANCH   5  11
HETATM   11  N   UNL     1     -10.542   7.257  67.125  1.00  0.00    -0.321 N  
HETATM   12  H   UNL     1     -11.276   7.034  66.453  1.00  0.00     0.000 HD 
BRANCH  11  13
HETATM   13  C   UNL     1     -10.438   8.529  67.609  1.00  0.00    -0.241 C  
HETATM   14  O   UNL     1     -10.462   8.806  68.801  1.00  0.00    -0.214 OA 
BRANCH  13  15
HETATM   15  N   UNL     1     -10.225   9.449  66.617  1.00  0.00    -0.258 N  
HETATM   16  H   UNL     1     -10.991   9.726  66.004  1.00  0.00     0.000 HD 
BRANCH  15  17
HETATM   17  C   UNL     1      -8.924  10.023  66.442  1.00  0.00    -0.144 C  
BRANCH  17  18
HETATM   18  N   UNL     1      -8.633  11.024  67.435  1.00  0.00    -0.131 N  
HETATM   19  H   UNL     1      -7.820  10.925  68.043  1.00  0.00     0.000 HD 
BRANCH  18  20
HETATM   20  C   UNL     1      -9.457  12.112  67.555  1.00  0.00    -0.180 C  
HETATM   21  O   UNL     1     -10.277  12.249  68.453  1.00  0.00    -0.212 OA 
BRANCH  20  22
HETATM   22  N   UNL     1      -9.252  13.040  66.562  1.00  0.00    -0.379 N  
HETATM   23  H   UNL     1      -8.915  12.774  65.637  1.00  0.00     0.000 HD 
BRANCH  22  24
HETATM   24  C   UNL     1      -9.538  14.407  66.902  1.00  0.00    -0.256 C  
HETATM   25  N   UNL     1      -8.401  15.260  67.144  1.00  0.00    -0.200 N  
HETATM   26  O   UNL     1     -10.977  14.855  64.917  1.00  0.00    -0.381 OA 
HETATM   27  C   UNL     1      -8.626  16.538  66.673  1.00  0.00    -0.254 C  
HETATM   28  N   UNL     1      -9.728  16.516  65.882  1.00  0.00    -0.470 NA 
HETATM   29  O   UNL     1      -7.937  17.522  66.881  1.00  0.00    -0.204 OA 
HETATM   30  C   UNL     1     -10.187  15.237  65.767  1.00  0.00    -0.349 C  
BRANCH  25  31
HETATM   31  C   UNL     1      -7.321  14.913  68.012  1.00  0.00    -0.130 C  
HETATM   32  H   UNL     1      -5.649  13.956  67.852  1.00  0.00     0.000 HD 
HETATM   33  O   UNL     1      -6.367  14.188  67.274  1.00  0.00    -0.295 OA 
ENDBRANCH  25  31
ENDBRANCH  22  24
ENDBRANCH  20  22
ENDBRANCH  18  20
ENDBRANCH  17  18
ENDBRANCH  15  17
ENDBRANCH  13  15
ENDBRANCH  11  13
ENDBRANCH   5  11
ENDBRANCH   2   4
TORSDOF 10
ENDMDL
MODEL      449
REMARK 921   NORMALIZED FREE ENERGY PREDICTED BY IDOCK:   -2.98 KCAL/MOL
REMARK 922        TOTAL FREE ENERGY PREDICTED BY IDOCK:   -6.71 KCAL/MOL
REMARK 923 INTER-LIGAND FREE ENERGY PREDICTED BY IDOCK:   -5.39 KCAL/MOL
REMARK 924 INTRA-LIGAND FREE ENERGY PREDICTED BY IDOCK:   -1.33 KCAL/MOL
REMARK 927      BINDING AFFINITY PREDICTED BY RF-SCORE:    0.00 PKD
ROOT
HETATM    1  O   UNL     1      -8.998  11.406  64.545  1.00  0.00    -0.395 OA 
HETATM    2  C   UNL     1      -8.536  10.437  63.634  1.00  0.00    -0.186 C  
HETATM    3  H   UNL     1      -8.890  12.268  64.160  1.00  0.00     0.000 HD 
ENDROOT
BRANCH   2   4
HETATM    4  N   UNL     1      -8.699   9.138  64.214  1.00  0.00    -0.184 N  
HETATM    5  C   UNL     1      -8.716   8.973  65.654  1.00  0.00    -0.175 C  
HETATM    6  O   UNL     1      -7.770   7.994  62.416  1.00  0.00    -0.107 OA 
HETATM    7  C   UNL     1      -7.896   7.668  65.770  1.00  0.00    -0.106 C  
HETATM    8  N   UNL     1      -7.764   7.139  64.523  1.00  0.00    -0.108 NA 
HETATM    9  O   UNL     1      -7.486   7.130  66.787  1.00  0.00    -0.085 OA 
HETATM   10  C   UNL     1      -8.084   8.065  63.593  1.00  0.00    -0.099 C  
BRANCH   5  11
HETATM   11  N   UNL     1     -10.056   8.752  66.137  1.00  0.00    -0.424 N  
HETATM   12  H   UNL     1     -10.849   9.085  65.590  1.00  0.00     0.000 HD 
BRANCH  11  13
HETATM   13  C   UNL     1     -10.278   8.103  67.318  1.00  0.00    -0.278 C  
HETATM   14  O   UNL     1     -10.841   7.020  67.402  1.00  0.00    -0.285 OA 
BRANCH  13  15
HETATM   15  N   UNL     1      -9.728   8.762  68.386  1.00  0.00    -0.158 N  
HETATM   16  H   UNL     1      -8.714   8.836  68.473  1.00  0.00     0.000 HD 
BRANCH  15  17
HETATM   17  C   UNL     1     -10.578   9.344  69.381  1.00  0.00    -0.221 C  
BRANCH  17  18
HETATM   18  N   UNL     1     -10.446  10.777  69.437  1.00  0.00    -0.298 N  
HETATM   19  H   UNL     1      -9.664  11.203  69.935  1.00  0.00     0.000 HD 
BRANCH  18  20
HETATM   20  C   UNL     1     -11.380  11.563  68.816  1.00  0.00    -0.265 C  
HETATM   21  O   UNL     1     -12.555  11.620  69.151  1.00  0.00    -0.108 OA 
BRANCH  20  22
HETATM   22  N   UNL     1     -10.846  12.294  67.780  1.00  0.00    -0.213 N  
HETATM   23  H   UNL     1     -10.722  11.898  66.849  1.00  0.00     0.000 HD 
BRANCH  22  24
HETATM   24  C   UNL     1     -10.475  13.649  68.085  1.00  0.00    -0.247 C  
HETATM   25  N   UNL     1      -9.247  14.125  67.497  1.00  0.00    -0.185 N  
HETATM   26  O   UNL     1     -12.631  14.663  67.352  1.00  0.00     0.115 OA 
HETATM   27  C   UNL     1      -9.349  15.453  67.135  1.00  0.00    -0.214 C  
HETATM   28  N   UNL     1     -10.656  15.812  67.185  1.00  0.00    -0.310 NA 
HETATM   29  O   UNL     1      -8.438  16.182  66.780  1.00  0.00    -0.201 OA 
HETATM   30  C   UNL     1     -11.420  14.728  67.503  1.00  0.00    -0.354 C  
BRANCH  25  31
HETATM   31  C   UNL     1      -8.011  13.412  67.558  1.00  0.00    -0.183 C  
HETATM   32  H   UNL     1      -6.597  13.170  68.854  1.00  0.00     0.000 HD 
HETATM   33  O   UNL     1      -7.420  13.644  68.813  1.00  0.00    -0.115 OA 
ENDBRANCH  25  31
ENDBRANCH  22  24
ENDBRANCH  20  22
ENDBRANCH  18  20
ENDBRANCH  17  18
ENDBRANCH  15  17
ENDBRANCH  13  15
ENDBRANCH  11  13
ENDBRANCH   5  11
ENDBRANCH   2   4
TORSDOF 10
ENDMDL
MODEL      450
REMARK 921   NORMALIZED FREE ENERGY PREDICTED BY IDOCK:   -2.95 KCAL/MOL
REMARK 922        TOTAL FREE ENERGY PREDICTED BY IDOCK:   -6.67 KCAL/MOL
REMARK 923 INTER-LIGAND FREE ENERGY PREDICTED BY IDOCK:   -4.46 KCAL/MOL
REMARK 924 INTRA-LIGAND FREE ENERGY PREDICTED BY IDOCK:   -2.21 KCAL/MOL
REMARK 927      BINDING AFFINITY PREDICTED BY RF-SCORE:    0.00 PKD
ROOT
HETATM    1  O   UNL     1     -11.370   5.122  65.731  1.00  0.00    -0.812 OA 
HETATM    2  C   UNL     1     -10.681   5.863  66.709  1.00  0.00    -0.299 C  
HETATM    3  H   UNL     1     -12.296   5.327  65.784  1.00  0.00     0.000 HD 
ENDROOT
BRANCH   2   4
HETATM    4  N   UNL     1      -9.285   5.554  66.630  1.00  0.00    -0.131 N  
HETATM    5  C   UNL     1      -8.400   6.359  65.813  1.00  0.00    -0.146 C  
HETATM    6  O   UNL     1      -9.553   3.286  67.063  1.00  0.00    -0.173 OA 
HETATM    7  C   UNL     1      -7.513   5.240  65.222  1.00  0.00    -0.077 C  
HETATM    8  N   UNL     1      -7.769   4.091  65.904  1.00  0.00    -0.089 NA 
HETATM    9  O   UNL     1      -6.664   5.340  64.348  1.00  0.00    -0.044 OA 
HETATM   10  C   UNL     1      -8.912   4.222  66.613  1.00  0.00    -0.121 C  
BRANCH   5  11
HETATM   11  N   UNL     1      -7.597   7.239  66.625  1.00  0.00    -0.091 N  
HETATM   12  H   UNL     1      -7.166   6.884  67.478  1.00  0.00     0.000 HD 
BRANCH  11  13
HETATM   13  C   UNL     1      -7.405   8.543  66.268  1.00  0.00    -0.079 C  
HETATM   14  O   UNL     1      -7.685   8.993  65.165  1.00  0.00    -0.096 OA 
BRANCH  13  15
HETATM   15  N   UNL     1      -6.940   9.305  67.307  1.00  0.00    -0.081 N  
HETATM   16  H   UNL     1      -6.924  10.322  67.226  1.00  0.00     0.000 HD 
BRANCH  15  17
HETATM   17  C   UNL     1      -6.477   8.674  68.506  1.00  0.00    -0.055 C  
BRANCH  17  18
HETATM   18  N   UNL     1      -7.374   8.881  69.612  1.00  0.00    -0.055 N  
HETATM   19  H   UNL     1      -7.165   9.586  70.319  1.00  0.00     0.000 HD 
BRANCH  18  20
HETATM   20  C   UNL     1      -8.513   8.125  69.706  1.00  0.00    -0.125 C  
HETATM   21  O   UNL     1      -9.504   8.296  69.009  1.00  0.00    -0.154 OA 
BRANCH  20  22
HETATM   22  N   UNL     1      -8.415   7.143  70.663  1.00  0.00    -0.136 N  
HETATM   23  H   UNL     1      -7.531   6.677  70.869  1.00  0.00     0.000 HD 
BRANCH  22  24
HETATM   24  C   UNL     1      -9.628   6.811  71.358  1.00  0.00    -0.167 C  
HETATM   25  N   UNL     1      -9.921   5.406  71.502  1.00  0.00    -0.175 N  
HETATM   26  O   UNL     1      -9.113   8.146  73.399  1.00  0.00    -0.266 OA 
HETATM   27  C   UNL     1     -10.510   5.140  72.722  1.00  0.00    -0.214 C  
HETATM   28  N   UNL     1     -10.370   6.234  73.512  1.00  0.00    -0.234 NA 
HETATM   29  O   UNL     1     -11.029   4.093  73.066  1.00  0.00    -0.190 OA 
HETATM   30  C   UNL     1      -9.639   7.183  72.861  1.00  0.00    -0.154 C  
BRANCH  25  31
HETATM   31  C   UNL     1      -9.883   4.474  70.420  1.00  0.00    -0.232 C  
HETATM   32  H   UNL     1      -8.512   3.547  69.419  1.00  0.00     0.000 HD 
HETATM   33  O   UNL     1      -8.538   4.166  70.139  1.00  0.00    -0.067 OA 
ENDBRANCH  25  31
ENDBRANCH  22  24
ENDBRANCH  20  22
ENDBRANCH  18  20
ENDBRANCH  17  18
ENDBRANCH  15  17
ENDBRANCH  13  15
ENDBRANCH  11  13
ENDBRANCH   5  11
ENDBRANCH   2   4
TORSDOF 10
ENDMDL
MODEL      451
REMARK 921   NORMALIZED FREE ENERGY PREDICTED BY IDOCK:   -2.92 KCAL/MOL
REMARK 922        TOTAL FREE ENERGY PREDICTED BY IDOCK:   -6.63 KCAL/MOL
REMARK 923 INTER-LIGAND FREE ENERGY PREDICTED BY IDOCK:   -5.48 KCAL/MOL
REMARK 924 INTRA-LIGAND FREE ENERGY PREDICTED BY IDOCK:   -1.15 KCAL/MOL
REMARK 927      BINDING AFFINITY PREDICTED BY RF-SCORE:    0.00 PKD
ROOT
HETATM    1  O   UNL     1      -6.770   6.451  68.107  1.00  0.00    -0.063 OA 
HETATM    2  C   UNL     1      -7.391   5.641  69.076  1.00  0.00    -0.082 C  
HETATM    3  H   UNL     1      -5.890   6.129  67.953  1.00  0.00     0.000 HD 
ENDROOT
BRANCH   2   4
HETATM    4  N   UNL     1      -8.718   6.128  69.308  1.00  0.00    -0.122 N  
HETATM    5  C   UNL     1      -9.291   6.092  70.638  1.00  0.00    -0.165 C  
HETATM    6  O   UNL     1      -9.475   5.691  67.154  1.00  0.00    -0.113 OA 
HETATM    7  C   UNL     1     -10.735   5.674  70.281  1.00  0.00    -0.294 C  
HETATM    8  N   UNL     1     -10.888   5.784  68.934  1.00  0.00    -0.270 NA 
HETATM    9  O   UNL     1     -11.636   5.365  71.047  1.00  0.00     0.314 OA 
HETATM   10  C   UNL     1      -9.679   5.889  68.341  1.00  0.00    -0.129 C  
BRANCH   5  11
HETATM   11  N   UNL     1      -9.297   7.403  71.238  1.00  0.00    -0.154 N  
HETATM   12  H   UNL     1      -8.496   8.020  71.108  1.00  0.00     0.000 HD 
BRANCH  11  13
HETATM   13  C   UNL     1     -10.362   7.830  71.978  1.00  0.00    -0.214 C  
HETATM   14  O   UNL     1     -10.436   7.711  73.194  1.00  0.00    -0.327 OA 
BRANCH  13  15
HETATM   15  N   UNL     1     -11.299   8.479  71.218  1.00  0.00    -0.259 N  
HETATM   16  H   UNL     1     -11.953   7.944  70.648  1.00  0.00     0.000 HD 
BRANCH  15  17
HETATM   17  C   UNL     1     -11.358   9.911  71.225  1.00  0.00    -0.333 C  
BRANCH  17  18
HETATM   18  N   UNL     1     -10.497  10.496  70.232  1.00  0.00    -0.425 N  
HETATM   19  H   UNL     1      -9.514  10.672  70.442  1.00  0.00     0.000 HD 
BRANCH  18  20
HETATM   20  C   UNL     1     -11.007  10.813  69.001  1.00  0.00    -0.240 C  
HETATM   21  O   UNL     1     -11.847  10.141  68.417  1.00  0.00    -0.109 OA 
BRANCH  20  22
HETATM   22  N   UNL     1     -10.480  11.979  68.497  1.00  0.00    -0.225 N  
HETATM   23  H   UNL     1      -9.476  12.104  68.368  1.00  0.00     0.000 HD 
BRANCH  22  24
HETATM   24  C   UNL     1     -11.424  13.010  68.163  1.00  0.00    -0.319 C  
HETATM   25  N   UNL     1     -11.348  14.224  68.937  1.00  0.00    -0.257 N  
HETATM   26  O   UNL     1     -10.847  13.092  65.740  1.00  0.00    -0.271 OA 
HETATM   27  C   UNL     1     -11.611  15.332  68.157  1.00  0.00    -0.330 C  
HETATM   28  N   UNL     1     -11.578  14.955  66.854  1.00  0.00    -0.321 NA 
HETATM   29  O   UNL     1     -11.795  16.471  68.549  1.00  0.00    -0.065 OA 
HETATM   30  C   UNL     1     -11.229  13.640  66.762  1.00  0.00    -0.314 C  
BRANCH  25  31
HETATM   31  C   UNL     1     -11.306  14.251  70.365  1.00  0.00    -0.040 C  
HETATM   32  H   UNL     1     -12.154  13.284  71.809  1.00  0.00     0.000 HD 
HETATM   33  O   UNL     1     -12.181  13.267  70.859  1.00  0.00    -0.356 OA 
ENDBRANCH  25  31
ENDBRANCH  22  24
ENDBRANCH  20  22
ENDBRANCH  18  20
ENDBRANCH  17  18
ENDBRANCH  15  17
ENDBRANCH  13  15
ENDBRANCH  11  13
ENDBRANCH   5  11
ENDBRANCH   2   4
TORSDOF 10
ENDMDL
MODEL      452
REMARK 921   NORMALIZED FREE ENERGY PREDICTED BY IDOCK:   -2.91 KCAL/MOL
REMARK 922        TOTAL FREE ENERGY PREDICTED BY IDOCK:   -6.60 KCAL/MOL
REMARK 923 INTER-LIGAND FREE ENERGY PREDICTED BY IDOCK:   -5.50 KCAL/MOL
REMARK 924 INTRA-LIGAND FREE ENERGY PREDICTED BY IDOCK:   -1.11 KCAL/MOL
REMARK 927      BINDING AFFINITY PREDICTED BY RF-SCORE:    0.00 PKD
ROOT
HETATM    1  O   UNL     1      -7.305  13.733  69.298  1.00  0.00    -0.286 OA 
HETATM    2  C   UNL     1      -8.173  14.065  68.241  1.00  0.00    -0.153 C  
HETATM    3  H   UNL     1      -6.433  14.046  69.092  1.00  0.00     0.000 HD 
ENDROOT
BRANCH   2   4
HETATM    4  N   UNL     1      -9.488  13.592  68.552  1.00  0.00    -0.176 N  
HETATM    5  C   UNL     1      -9.900  12.258  68.163  1.00  0.00    -0.212 C  
HETATM    6  O   UNL     1     -10.465  15.701  68.567  1.00  0.00    -0.227 OA 
HETATM    7  C   UNL     1     -11.352  12.559  67.724  1.00  0.00    -0.296 C  
HETATM    8  N   UNL     1     -11.665  13.818  68.132  1.00  0.00    -0.338 NA 
HETATM    9  O   UNL     1     -12.139  11.803  67.175  1.00  0.00    -0.592 OA 
HETATM   10  C   UNL     1     -10.540  14.487  68.468  1.00  0.00    -0.252 C  
BRANCH   5  11
HETATM   11  N   UNL     1      -9.908  11.364  69.294  1.00  0.00    -0.413 N  
HETATM   12  H   UNL     1     -10.724  11.333  69.905  1.00  0.00     0.000 HD 
BRANCH  11  13
HETATM   13  C   UNL     1      -8.838  10.559  69.560  1.00  0.00    -0.022 C  
HETATM   14  O   UNL     1      -7.750  10.675  69.013  1.00  0.00    -0.110 OA 
BRANCH  13  15
HETATM   15  N   UNL     1      -9.096   9.663  70.563  1.00  0.00    -0.321 N  
HETATM   16  H   UNL     1      -8.372   9.010  70.862  1.00  0.00     0.000 HD 
BRANCH  15  17
HETATM   17  C   UNL     1     -10.383   9.643  71.191  1.00  0.00    -0.166 C  
BRANCH  17  18
HETATM   18  N   UNL     1     -10.758   8.321  71.621  1.00  0.00    -0.241 N  
HETATM   19  H   UNL     1     -11.534   7.834  71.172  1.00  0.00     0.000 HD 
BRANCH  18  20
HETATM   20  C   UNL     1     -10.063   7.722  72.638  1.00  0.00    -0.260 C  
HETATM   21  O   UNL     1      -9.481   8.338  73.521  1.00  0.00    -0.188 OA 
BRANCH  20  22
HETATM   22  N   UNL     1     -10.102   6.349  72.565  1.00  0.00    -0.175 N  
HETATM   23  H   UNL     1     -10.844   5.807  73.007  1.00  0.00     0.000 HD 
BRANCH  22  24
HETATM   24  C   UNL     1      -9.037   5.723  71.830  1.00  0.00    -0.138 C  
HETATM   25  N   UNL     1      -8.980   6.006  70.417  1.00  0.00    -0.147 N  
HETATM   26  O   UNL     1      -7.205   6.559  73.299  1.00  0.00    -0.081 OA 
HETATM   27  C   UNL     1      -7.674   6.102  69.980  1.00  0.00    -0.097 C  
HETATM   28  N   UNL     1      -6.863   6.183  71.065  1.00  0.00    -0.064 NA 
HETATM   29  O   UNL     1      -7.298   6.157  68.822  1.00  0.00    -0.081 OA 
HETATM   30  C   UNL     1      -7.616   6.213  72.202  1.00  0.00    -0.096 C  
BRANCH  25  31
HETATM   31  C   UNL     1     -10.104   5.900  69.543  1.00  0.00    -0.203 C  
HETATM   32  H   UNL     1     -10.937   7.008  68.194  1.00  0.00     0.000 HD 
HETATM   33  O   UNL     1     -10.189   7.077  68.776  1.00  0.00    -0.165 OA 
ENDBRANCH  25  31
ENDBRANCH  22  24
ENDBRANCH  20  22
ENDBRANCH  18  20
ENDBRANCH  17  18
ENDBRANCH  15  17
ENDBRANCH  13  15
ENDBRANCH  11  13
ENDBRANCH   5  11
ENDBRANCH   2   4
TORSDOF 10
ENDMDL
MODEL      453
REMARK 921   NORMALIZED FREE ENERGY PREDICTED BY IDOCK:   -2.87 KCAL/MOL
REMARK 922        TOTAL FREE ENERGY PREDICTED BY IDOCK:   -6.55 KCAL/MOL
REMARK 923 INTER-LIGAND FREE ENERGY PREDICTED BY IDOCK:   -5.11 KCAL/MOL
REMARK 924 INTRA-LIGAND FREE ENERGY PREDICTED BY IDOCK:   -1.43 KCAL/MOL
REMARK 927      BINDING AFFINITY PREDICTED BY RF-SCORE:    0.00 PKD
ROOT
HETATM    1  O   UNL     1     -11.054  10.897  63.327  1.00  0.00    -0.650 OA 
HETATM    2  C   UNL     1     -11.417  12.186  63.759  1.00  0.00    -0.465 C  
HETATM    3  H   UNL     1     -11.423  10.745  62.466  1.00  0.00     0.000 HD 
ENDROOT
BRANCH   2   4
HETATM    4  N   UNL     1     -10.860  12.416  65.059  1.00  0.00    -0.285 N  
HETATM    5  C   UNL     1     -10.800  11.345  66.032  1.00  0.00    -0.249 C  
HETATM    6  O   UNL     1     -11.372  14.683  65.102  1.00  0.00    -0.344 OA 
HETATM    7  C   UNL     1     -11.171  12.138  67.306  1.00  0.00    -0.306 C  
HETATM    8  N   UNL     1     -11.123  13.465  67.007  1.00  0.00    -0.287 NA 
HETATM    9  O   UNL     1     -11.399  11.697  68.422  1.00  0.00    -0.231 OA 
HETATM   10  C   UNL     1     -11.104  13.635  65.667  1.00  0.00    -0.294 C  
BRANCH   5  11
HETATM   11  N   UNL     1      -9.461  10.824  66.154  1.00  0.00    -0.181 N  
HETATM   12  H   UNL     1      -8.677  11.470  66.244  1.00  0.00     0.000 HD 
BRANCH  11  13
HETATM   13  C   UNL     1      -9.229   9.479  66.152  1.00  0.00    -0.177 C  
HETATM   14  O   UNL     1      -9.841   8.683  66.850  1.00  0.00    -0.193 OA 
BRANCH  13  15
HETATM   15  N   UNL     1      -8.290   9.114  65.224  1.00  0.00    -0.137 N  
HETATM   16  H   UNL     1      -7.588   9.787  64.915  1.00  0.00     0.000 HD 
BRANCH  15  17
HETATM   17  C   UNL     1      -8.295   7.786  64.686  1.00  0.00    -0.018 C  
BRANCH  17  18
HETATM   18  N   UNL     1      -7.494   6.880  65.466  1.00  0.00    -0.082 N  
HETATM   19  H   UNL     1      -6.563   7.156  65.779  1.00  0.00     0.000 HD 
BRANCH  18  20
HETATM   20  C   UNL     1      -7.992   5.644  65.784  1.00  0.00    -0.109 C  
HETATM   21  O   UNL     1      -7.892   4.662  65.061  1.00  0.00    -0.090 OA 
BRANCH  20  22
HETATM   22  N   UNL     1      -8.606   5.625  67.014  1.00  0.00    -0.110 N  
HETATM   23  H   UNL     1      -9.621   5.593  67.109  1.00  0.00     0.000 HD 
BRANCH  22  24
HETATM   24  C   UNL     1      -7.736   5.653  68.158  1.00  0.00    -0.089 C  
HETATM   25  N   UNL     1      -8.297   6.183  69.377  1.00  0.00    -0.115 N  
HETATM   26  O   UNL     1      -7.135   3.236  68.064  1.00  0.00    -0.049 OA 
HETATM   27  C   UNL     1      -7.828   5.499  70.481  1.00  0.00    -0.098 C  
HETATM   28  N   UNL     1      -7.213   4.367  70.055  1.00  0.00    -0.045 NA 
HETATM   29  O   UNL     1      -7.975   5.816  71.649  1.00  0.00    -0.113 OA 
HETATM   30  C   UNL     1      -7.332   4.260  68.700  1.00  0.00    -0.056 C  
BRANCH  25  31
HETATM   31  C   UNL     1      -8.996   7.426  69.452  1.00  0.00    -0.139 C  
HETATM   32  H   UNL     1     -10.778   8.003  69.934  1.00  0.00     0.000 HD 
HETATM   33  O   UNL     1     -10.312   7.176  69.884  1.00  0.00    -0.202 OA 
ENDBRANCH  25  31
ENDBRANCH  22  24
ENDBRANCH  20  22
ENDBRANCH  18  20
ENDBRANCH  17  18
ENDBRANCH  15  17
ENDBRANCH  13  15
ENDBRANCH  11  13
ENDBRANCH   5  11
ENDBRANCH   2   4
TORSDOF 10
ENDMDL
MODEL      454
REMARK 921   NORMALIZED FREE ENERGY PREDICTED BY IDOCK:   -2.87 KCAL/MOL
REMARK 922        TOTAL FREE ENERGY PREDICTED BY IDOCK:   -6.54 KCAL/MOL
REMARK 923 INTER-LIGAND FREE ENERGY PREDICTED BY IDOCK:   -4.82 KCAL/MOL
REMARK 924 INTRA-LIGAND FREE ENERGY PREDICTED BY IDOCK:   -1.72 KCAL/MOL
REMARK 927      BINDING AFFINITY PREDICTED BY RF-SCORE:    0.00 PKD
ROOT
HETATM    1  O   UNL     1      -9.232   8.306  70.032  1.00  0.00    -0.150 OA 
HETATM    2  C   UNL     1      -9.146   9.710  70.055  1.00  0.00    -0.237 C  
HETATM    3  H   UNL     1      -8.401   7.941  70.313  1.00  0.00     0.000 HD 
ENDROOT
BRANCH   2   4
HETATM    4  N   UNL     1     -10.399  10.260  69.630  1.00  0.00    -0.241 N  
HETATM    5  C   UNL     1     -10.437  11.388  68.722  1.00  0.00    -0.204 C  
HETATM    6  O   UNL     1     -11.561   9.615  71.538  1.00  0.00    -0.370 OA 
HETATM    7  C   UNL     1     -11.603  12.182  69.353  1.00  0.00    -0.317 C  
HETATM    8  N   UNL     1     -12.218  11.381  70.264  1.00  0.00    -0.348 NA 
HETATM    9  O   UNL     1     -11.988  13.305  69.060  1.00  0.00    -0.310 OA 
HETATM   10  C   UNL     1     -11.430  10.322  70.552  1.00  0.00    -0.343 C  
BRANCH   5  11
HETATM   11  N   UNL     1     -10.794  10.973  67.389  1.00  0.00    -0.256 N  
HETATM   12  H   UNL     1     -11.762  11.051  67.080  1.00  0.00     0.000 HD 
BRANCH  11  13
HETATM   13  C   UNL     1      -9.854  10.475  66.534  1.00  0.00    -0.206 C  
HETATM   14  O   UNL     1      -8.737  10.955  66.398  1.00  0.00    -0.158 OA 
BRANCH  13  15
HETATM   15  N   UNL     1     -10.273   9.331  65.906  1.00  0.00    -0.310 N  
HETATM   16  H   UNL     1     -10.690   9.383  64.977  1.00  0.00     0.000 HD 
BRANCH  15  17
HETATM   17  C   UNL     1     -10.124   8.063  66.556  1.00  0.00    -0.200 C  
BRANCH  17  18
HETATM   18  N   UNL     1      -8.746   7.758  66.842  1.00  0.00    -0.128 N  
HETATM   19  H   UNL     1      -8.014   8.438  66.635  1.00  0.00     0.000 HD 
BRANCH  18  20
HETATM   20  C   UNL     1      -8.427   6.546  67.397  1.00  0.00    -0.119 C  
HETATM   21  O   UNL     1      -9.150   5.942  68.177  1.00  0.00    -0.118 OA 
BRANCH  20  22
HETATM   22  N   UNL     1      -7.206   6.078  66.970  1.00  0.00    -0.074 N  
HETATM   23  H   UNL     1      -6.353   6.628  67.069  1.00  0.00     0.000 HD 
BRANCH  22  24
HETATM   24  C   UNL     1      -7.202   4.769  66.376  1.00  0.00    -0.077 C  
HETATM   25  N   UNL     1      -7.269   3.652  67.286  1.00  0.00    -0.062 N  
HETATM   26  O   UNL     1      -9.124   5.189  64.847  1.00  0.00    -0.133 OA 
HETATM   27  C   UNL     1      -8.029   2.626  66.762  1.00  0.00    -0.076 C  
HETATM   28  N   UNL     1      -8.705   3.099  65.686  1.00  0.00    -0.120 NA 
HETATM   29  O   UNL     1      -8.128   1.494  67.206  1.00  0.00    -0.064 OA 
HETATM   30  C   UNL     1      -8.458   4.432  65.537  1.00  0.00    -0.116 C  
BRANCH  25  31
HETATM   31  C   UNL     1      -6.424   3.510  68.429  1.00  0.00    -0.037 C  
HETATM   32  H   UNL     1      -6.532   3.939  70.312  1.00  0.00     0.000 HD 
HETATM   33  O   UNL     1      -7.094   4.033  69.551  1.00  0.00    -0.045 OA 
ENDBRANCH  25  31
ENDBRANCH  22  24
ENDBRANCH  20  22
ENDBRANCH  18  20
ENDBRANCH  17  18
ENDBRANCH  15  17
ENDBRANCH  13  15
ENDBRANCH  11  13
ENDBRANCH   5  11
ENDBRANCH   2   4
TORSDOF 10
ENDMDL
MODEL      455
REMARK 921   NORMALIZED FREE ENERGY PREDICTED BY IDOCK:   -2.84 KCAL/MOL
REMARK 922        TOTAL FREE ENERGY PREDICTED BY IDOCK:   -6.50 KCAL/MOL
REMARK 923 INTER-LIGAND FREE ENERGY PREDICTED BY IDOCK:   -5.28 KCAL/MOL
REMARK 924 INTRA-LIGAND FREE ENERGY PREDICTED BY IDOCK:   -1.22 KCAL/MOL
REMARK 927      BINDING AFFINITY PREDICTED BY RF-SCORE:    0.00 PKD
ROOT
HETATM    1  O   UNL     1      -7.345  13.682  69.286  1.00  0.00    -0.291 OA 
HETATM    2  C   UNL     1      -8.271  13.949  68.260  1.00  0.00    -0.158 C  
HETATM    3  H   UNL     1      -6.571  14.215  69.150  1.00  0.00     0.000 HD 
ENDROOT
BRANCH   2   4
HETATM    4  N   UNL     1      -9.438  13.144  68.466  1.00  0.00    -0.157 N  
HETATM    5  C   UNL     1      -9.577  11.867  67.796  1.00  0.00    -0.190 C  
HETATM    6  O   UNL     1     -10.838  14.936  68.948  1.00  0.00    -0.233 OA 
HETATM    7  C   UNL     1     -11.080  11.930  67.440  1.00  0.00    -0.279 C  
HETATM    8  N   UNL     1     -11.632  12.974  68.115  1.00  0.00    -0.319 NA 
HETATM    9  O   UNL     1     -11.716  11.154  66.742  1.00  0.00    -0.349 OA 
HETATM   10  C   UNL     1     -10.659  13.785  68.585  1.00  0.00    -0.253 C  
BRANCH   5  11
HETATM   11  N   UNL     1      -9.336  10.773  68.703  1.00  0.00    -0.177 N  
HETATM   12  H   UNL     1     -10.109  10.391  69.247  1.00  0.00     0.000 HD 
BRANCH  11  13
HETATM   13  C   UNL     1      -8.087  10.241  68.845  1.00  0.00    -0.123 C  
HETATM   14  O   UNL     1      -7.063  10.810  68.492  1.00  0.00    -0.065 OA 
BRANCH  13  15
HETATM   15  N   UNL     1      -8.103   9.038  69.500  1.00  0.00    -0.101 N  
HETATM   16  H   UNL     1      -8.864   8.817  70.142  1.00  0.00     0.000 HD 
BRANCH  15  17
HETATM   17  C   UNL     1      -7.051   8.091  69.281  1.00  0.00    -0.068 C  
BRANCH  17  18
HETATM   18  N   UNL     1      -7.398   6.775  69.749  1.00  0.00    -0.087 N  
HETATM   19  H   UNL     1      -6.892   6.355  70.529  1.00  0.00     0.000 HD 
BRANCH  18  20
HETATM   20  C   UNL     1      -8.415   6.090  69.138  1.00  0.00    -0.114 C  
HETATM   21  O   UNL     1      -8.720   6.229  67.961  1.00  0.00    -0.116 OA 
BRANCH  20  22
HETATM   22  N   UNL     1      -9.049   5.217  69.991  1.00  0.00    -0.120 N  
HETATM   23  H   UNL     1      -8.736   4.253  70.106  1.00  0.00     0.000 HD 
BRANCH  22  24
HETATM   24  C   UNL     1     -10.177   5.741  70.711  1.00  0.00    -0.219 C  
HETATM   25  N   UNL     1      -9.896   6.767  71.685  1.00  0.00    -0.166 N  
HETATM   26  O   UNL     1     -11.502   6.337  68.686  1.00  0.00    -0.263 OA 
HETATM   27  C   UNL     1     -10.900   7.714  71.717  1.00  0.00    -0.229 C  
HETATM   28  N   UNL     1     -11.691   7.537  70.629  1.00  0.00    -0.256 NA 
HETATM   29  O   UNL     1     -11.040   8.597  72.544  1.00  0.00    -0.325 OA 
HETATM   30  C   UNL     1     -11.184   6.539  69.848  1.00  0.00    -0.395 C  
BRANCH  25  31
HETATM   31  C   UNL     1      -8.878   6.655  72.681  1.00  0.00    -0.123 C  
HETATM   32  H   UNL     1      -7.371   7.715  73.267  1.00  0.00     0.000 HD 
HETATM   33  O   UNL     1      -8.048   7.789  72.605  1.00  0.00    -0.103 OA 
ENDBRANCH  25  31
ENDBRANCH  22  24
ENDBRANCH  20  22
ENDBRANCH  18  20
ENDBRANCH  17  18
ENDBRANCH  15  17
ENDBRANCH  13  15
ENDBRANCH  11  13
ENDBRANCH   5  11
ENDBRANCH   2   4
TORSDOF 10
ENDMDL
MODEL      456
REMARK 921   NORMALIZED FREE ENERGY PREDICTED BY IDOCK:   -2.78 KCAL/MOL
REMARK 922        TOTAL FREE ENERGY PREDICTED BY IDOCK:   -6.41 KCAL/MOL
REMARK 923 INTER-LIGAND FREE ENERGY PREDICTED BY IDOCK:   -5.62 KCAL/MOL
REMARK 924 INTRA-LIGAND FREE ENERGY PREDICTED BY IDOCK:   -0.79 KCAL/MOL
REMARK 927      BINDING AFFINITY PREDICTED BY RF-SCORE:    0.00 PKD
ROOT
HETATM    1  O   UNL     1      -9.810   9.945  62.427  1.00  0.00    -0.606 OA 
HETATM    2  C   UNL     1      -8.857   8.944  62.693  1.00  0.00    -0.056 C  
HETATM    3  H   UNL     1      -9.826  10.114  61.492  1.00  0.00     0.000 HD 
ENDROOT
BRANCH   2   4
HETATM    4  N   UNL     1      -8.832   8.689  64.103  1.00  0.00     0.077 N  
HETATM    5  C   UNL     1      -8.796   9.787  65.047  1.00  0.00    -0.191 C  
HETATM    6  O   UNL     1      -7.798   6.615  63.916  1.00  0.00    -0.114 OA 
HETATM    7  C   UNL     1      -7.807   9.201  66.080  1.00  0.00    -0.103 C  
HETATM    8  N   UNL     1      -7.632   7.881  65.798  1.00  0.00    -0.081 NA 
HETATM    9  O   UNL     1      -7.307   9.766  67.041  1.00  0.00    -0.090 OA 
HETATM   10  C   UNL     1      -8.093   7.611  64.557  1.00  0.00    -0.098 C  
BRANCH   5  11
HETATM   11  N   UNL     1     -10.084   9.987  65.664  1.00  0.00    -0.277 N  
HETATM   12  H   UNL     1     -10.850  10.374  65.114  1.00  0.00     0.000 HD 
BRANCH  11  13
HETATM   13  C   UNL     1     -10.292   9.664  66.974  1.00  0.00    -0.248 C  
HETATM   14  O   UNL     1     -10.149   8.537  67.426  1.00  0.00    -0.194 OA 
BRANCH  13  15
HETATM   15  N   UNL     1     -10.599  10.759  67.738  1.00  0.00    -0.211 N  
HETATM   16  H   UNL     1     -11.315  11.414  67.426  1.00  0.00     0.000 HD 
BRANCH  15  17
HETATM   17  C   UNL     1      -9.912  10.982  68.975  1.00  0.00    -0.167 C  
BRANCH  17  18
HETATM   18  N   UNL     1      -8.634  11.614  68.781  1.00  0.00    -0.347 N  
HETATM   19  H   UNL     1      -7.788  11.193  69.166  1.00  0.00     0.000 HD 
BRANCH  18  20
HETATM   20  C   UNL     1      -8.562  12.786  68.074  1.00  0.00    -0.186 C  
HETATM   21  O   UNL     1      -8.437  12.841  66.858  1.00  0.00    -0.181 OA 
BRANCH  20  22
HETATM   22  N   UNL     1      -8.658  13.894  68.882  1.00  0.00    -0.364 N  
HETATM   23  H   UNL     1      -8.355  13.880  69.855  1.00  0.00     0.000 HD 
BRANCH  22  24
HETATM   24  C   UNL     1      -9.211  15.075  68.275  1.00  0.00    -0.184 C  
HETATM   25  N   UNL     1      -9.866  16.004  69.162  1.00  0.00    -0.233 N  
HETATM   26  O   UNL     1      -7.104  15.776  67.144  1.00  0.00    -0.202 OA 
HETATM   27  C   UNL     1      -9.640  17.309  68.773  1.00  0.00    -0.269 C  
HETATM   28  N   UNL     1      -8.645  17.316  67.852  1.00  0.00    -0.219 NA 
HETATM   29  O   UNL     1     -10.196  18.304  69.208  1.00  0.00    -0.275 OA 
HETATM   30  C   UNL     1      -8.165  16.050  67.683  1.00  0.00    -0.148 C  
BRANCH  25  31
HETATM   31  C   UNL     1     -10.853  15.621  70.122  1.00  0.00    -0.343 C  
HETATM   32  H   UNL     1     -12.708  15.079  70.082  1.00  0.00     0.000 HD 
HETATM   33  O   UNL     1     -12.052  15.333  69.444  1.00  0.00    -0.313 OA 
ENDBRANCH  25  31
ENDBRANCH  22  24
ENDBRANCH  20  22
ENDBRANCH  18  20
ENDBRANCH  17  18
ENDBRANCH  15  17
ENDBRANCH  13  15
ENDBRANCH  11  13
ENDBRANCH   5  11
ENDBRANCH   2   4
TORSDOF 10
ENDMDL
MODEL      457
REMARK 921   NORMALIZED FREE ENERGY PREDICTED BY IDOCK:   -2.78 KCAL/MOL
REMARK 922        TOTAL FREE ENERGY PREDICTED BY IDOCK:   -6.40 KCAL/MOL
REMARK 923 INTER-LIGAND FREE ENERGY PREDICTED BY IDOCK:   -5.43 KCAL/MOL
REMARK 924 INTRA-LIGAND FREE ENERGY PREDICTED BY IDOCK:   -0.98 KCAL/MOL
REMARK 927      BINDING AFFINITY PREDICTED BY RF-SCORE:    0.00 PKD
ROOT
HETATM    1  O   UNL     1      -8.695  14.333  69.364  1.00  0.00    -0.359 OA 
HETATM    2  C   UNL     1      -8.896  13.952  68.024  1.00  0.00    -0.184 C  
HETATM    3  H   UNL     1      -7.801  14.636  69.467  1.00  0.00     0.000 HD 
ENDROOT
BRANCH   2   4
HETATM    4  N   UNL     1     -10.245  13.495  67.868  1.00  0.00    -0.241 N  
HETATM    5  C   UNL     1     -10.573  12.505  66.862  1.00  0.00    -0.236 C  
HETATM    6  O   UNL     1     -11.217  15.452  68.660  1.00  0.00    -0.272 OA 
HETATM    7  C   UNL     1     -11.920  13.080  66.369  1.00  0.00    -0.402 C  
HETATM    8  N   UNL     1     -12.308  14.053  67.238  1.00  0.00    -0.274 NA 
HETATM    9  O   UNL     1     -12.590  12.706  65.418  1.00  0.00    -0.641 OA 
HETATM   10  C   UNL     1     -11.267  14.415  68.019  1.00  0.00    -0.280 C  
BRANCH   5  11
HETATM   11  N   UNL     1     -10.785  11.208  67.456  1.00  0.00    -0.220 N  
HETATM   12  H   UNL     1     -11.303  11.135  68.331  1.00  0.00     0.000 HD 
BRANCH  11  13
HETATM   13  C   UNL     1     -10.301  10.078  66.864  1.00  0.00    -0.234 C  
HETATM   14  O   UNL     1      -9.834  10.050  65.733  1.00  0.00    -0.240 OA 
BRANCH  13  15
HETATM   15  N   UNL     1     -10.322   8.997  67.706  1.00  0.00    -0.233 N  
HETATM   16  H   UNL     1     -11.205   8.531  67.916  1.00  0.00     0.000 HD 
BRANCH  15  17
HETATM   17  C   UNL     1      -9.104   8.523  68.292  1.00  0.00    -0.138 C  
BRANCH  17  18
HETATM   18  N   UNL     1      -9.312   7.359  69.113  1.00  0.00    -0.147 N  
HETATM   19  H   UNL     1      -8.975   7.341  70.076  1.00  0.00     0.000 HD 
BRANCH  18  20
HETATM   20  C   UNL     1      -9.967   6.276  68.590  1.00  0.00    -0.145 C  
HETATM   21  O   UNL     1     -11.053   6.341  68.029  1.00  0.00    -0.333 OA 
BRANCH  20  22
HETATM   22  N   UNL     1      -9.264   5.105  68.755  1.00  0.00    -0.114 N  
HETATM   23  H   UNL     1      -9.498   4.434  69.486  1.00  0.00     0.000 HD 
BRANCH  22  24
HETATM   24  C   UNL     1      -8.181   4.882  67.836  1.00  0.00    -0.100 C  
HETATM   25  N   UNL     1      -8.407   5.280  66.469  1.00  0.00    -0.108 N  
HETATM   26  O   UNL     1      -6.471   6.105  69.176  1.00  0.00    -0.039 OA 
HETATM   27  C   UNL     1      -7.258   5.793  65.901  1.00  0.00    -0.075 C  
HETATM   28  N   UNL     1      -6.358   6.024  66.889  1.00  0.00    -0.040 NA 
HETATM   29  O   UNL     1      -7.081   6.048  64.722  1.00  0.00    -0.056 OA 
HETATM   30  C   UNL     1      -6.919   5.740  68.099  1.00  0.00    -0.069 C  
BRANCH  25  31
HETATM   31  C   UNL     1      -9.568   4.915  65.720  1.00  0.00    -0.170 C  
HETATM   32  H   UNL     1     -10.788   3.416  65.671  1.00  0.00     0.000 HD 
HETATM   33  O   UNL     1     -10.016   3.659  66.169  1.00  0.00    -0.075 OA 
ENDBRANCH  25  31
ENDBRANCH  22  24
ENDBRANCH  20  22
ENDBRANCH  18  20
ENDBRANCH  17  18
ENDBRANCH  15  17
ENDBRANCH  13  15
ENDBRANCH  11  13
ENDBRANCH   5  11
ENDBRANCH   2   4
TORSDOF 10
ENDMDL
MODEL      458
REMARK 921   NORMALIZED FREE ENERGY PREDICTED BY IDOCK:   -2.74 KCAL/MOL
REMARK 922        TOTAL FREE ENERGY PREDICTED BY IDOCK:   -6.34 KCAL/MOL
REMARK 923 INTER-LIGAND FREE ENERGY PREDICTED BY IDOCK:   -5.75 KCAL/MOL
REMARK 924 INTRA-LIGAND FREE ENERGY PREDICTED BY IDOCK:   -0.59 KCAL/MOL
REMARK 927      BINDING AFFINITY PREDICTED BY RF-SCORE:    0.00 PKD
ROOT
HETATM    1  O   UNL     1     -10.030  10.312  63.388  1.00  0.00    -0.444 OA 
HETATM    2  C   UNL     1      -8.713   9.835  63.525  1.00  0.00    -0.222 C  
HETATM    3  H   UNL     1     -10.212  10.458  62.467  1.00  0.00     0.000 HD 
ENDROOT
BRANCH   2   4
HETATM    4  N   UNL     1      -8.440   9.614  64.913  1.00  0.00    -0.140 N  
HETATM    5  C   UNL     1      -8.832  10.596  65.904  1.00  0.00    -0.174 C  
HETATM    6  O   UNL     1      -6.581   8.269  64.544  1.00  0.00    -0.064 OA 
HETATM    7  C   UNL     1      -7.592  10.537  66.825  1.00  0.00    -0.115 C  
HETATM    8  N   UNL     1      -6.849   9.455  66.466  1.00  0.00    -0.082 NA 
HETATM    9  O   UNL     1      -7.326  11.266  67.769  1.00  0.00    -0.088 OA 
HETATM   10  C   UNL     1      -7.244   9.007  65.254  1.00  0.00    -0.088 C  
BRANCH   5  11
HETATM   11  N   UNL     1     -10.000  10.165  66.631  1.00  0.00    -0.206 N  
HETATM   12  H   UNL     1     -10.437   9.274  66.399  1.00  0.00     0.000 HD 
BRANCH  11  13
HETATM   13  C   UNL     1     -10.530  10.935  67.626  1.00  0.00    -0.209 C  
HETATM   14  O   UNL     1     -10.980  10.480  68.670  1.00  0.00    -0.217 OA 
BRANCH  13  15
HETATM   15  N   UNL     1     -10.428  12.275  67.360  1.00  0.00    -0.209 N  
HETATM   16  H   UNL     1     -10.275  12.595  66.404  1.00  0.00     0.000 HD 
BRANCH  15  17
HETATM   17  C   UNL     1     -10.536  13.225  68.427  1.00  0.00    -0.253 C  
BRANCH  17  18
HETATM   18  N   UNL     1      -9.248  13.687  68.875  1.00  0.00    -0.392 N  
HETATM   19  H   UNL     1      -8.728  13.161  69.577  1.00  0.00     0.000 HD 
BRANCH  18  20
HETATM   20  C   UNL     1      -8.726  14.840  68.350  1.00  0.00    -0.169 C  
HETATM   21  O   UNL     1      -8.263  14.926  67.221  1.00  0.00    -0.182 OA 
BRANCH  20  22
HETATM   22  N   UNL     1      -8.793  15.896  69.229  1.00  0.00    -0.254 N  
HETATM   23  H   UNL     1      -8.691  15.766  70.236  1.00  0.00     0.000 HD 
BRANCH  22  24
HETATM   24  C   UNL     1      -9.013  17.192  68.649  1.00  0.00    -0.267 C  
HETATM   25  N   UNL     1      -7.866  17.831  68.052  1.00  0.00    -0.234 N  
HETATM   26  O   UNL     1     -10.895  16.481  67.177  1.00  0.00    -0.262 OA 
HETATM   27  C   UNL     1      -8.221  18.538  66.920  1.00  0.00    -0.258 C  
HETATM   28  N   UNL     1      -9.480  18.177  66.567  1.00  0.00    -0.301 NA 
HETATM   29  O   UNL     1      -7.520  19.319  66.301  1.00  0.00    -0.246 OA 
HETATM   30  C   UNL     1      -9.931  17.197  67.402  1.00  0.00    -0.280 C  
BRANCH  25  31
HETATM   31  C   UNL     1      -6.603  17.962  68.706  1.00  0.00    -0.235 C  
HETATM   32  H   UNL     1      -5.912  18.924  70.234  1.00  0.00     0.000 HD 
HETATM   33  O   UNL     1      -6.752  18.836  69.799  1.00  0.00    -0.160 OA 
ENDBRANCH  25  31
ENDBRANCH  22  24
ENDBRANCH  20  22
ENDBRANCH  18  20
ENDBRANCH  17  18
ENDBRANCH  15  17
ENDBRANCH  13  15
ENDBRANCH  11  13
ENDBRANCH   5  11
ENDBRANCH   2   4
TORSDOF 10
ENDMDL
MODEL      459
REMARK 921   NORMALIZED FREE ENERGY PREDICTED BY IDOCK:   -2.69 KCAL/MOL
REMARK 922        TOTAL FREE ENERGY PREDICTED BY IDOCK:   -6.26 KCAL/MOL
REMARK 923 INTER-LIGAND FREE ENERGY PREDICTED BY IDOCK:   -6.31 KCAL/MOL
REMARK 924 INTRA-LIGAND FREE ENERGY PREDICTED BY IDOCK:    0.05 KCAL/MOL
REMARK 927      BINDING AFFINITY PREDICTED BY RF-SCORE:    0.00 PKD
ROOT
HETATM    1  O   UNL     1     -11.842  11.729  67.890  1.00  0.00    -0.518 OA 
HETATM    2  C   UNL     1     -12.035  12.782  68.803  1.00  0.00    -0.240 C  
HETATM    3  H   UNL     1     -11.843  12.081  67.008  1.00  0.00     0.000 HD 
ENDROOT
BRANCH   2   4
HETATM    4  N   UNL     1     -12.034  12.251  70.134  1.00  0.00    -0.335 N  
HETATM    5  C   UNL     1     -12.093  10.820  70.353  1.00  0.00    -0.354 C  
HETATM    6  O   UNL     1     -13.001  14.129  71.104  1.00  0.00    -0.331 OA 
HETATM    7  C   UNL     1     -13.049  10.789  71.568  1.00  0.00    -0.414 C  
HETATM    8  N   UNL     1     -13.184  12.061  72.033  1.00  0.00    -0.465 NA 
HETATM    9  O   UNL     1     -13.554   9.811  72.097  1.00  0.00    -0.419 OA 
HETATM   10  C   UNL     1     -12.731  12.938  71.111  1.00  0.00    -0.276 C  
BRANCH   5  11
HETATM   11  N   UNL     1     -10.805  10.297  70.733  1.00  0.00    -0.383 N  
HETATM   12  H   UNL     1     -10.148  10.893  71.235  1.00  0.00     0.000 HD 
BRANCH  11  13
HETATM   13  C   UNL     1     -10.452   9.013  70.430  1.00  0.00    -0.213 C  
HETATM   14  O   UNL     1     -10.836   8.037  71.059  1.00  0.00    -0.228 OA 
BRANCH  13  15
HETATM   15  N   UNL     1      -9.686   8.937  69.296  1.00  0.00    -0.162 N  
HETATM   16  H   UNL     1      -8.698   9.185  69.330  1.00  0.00     0.000 HD 
BRANCH  15  17
HETATM   17  C   UNL     1     -10.276   8.508  68.063  1.00  0.00    -0.213 C  
BRANCH  17  18
HETATM   18  N   UNL     1      -9.765   7.234  67.630  1.00  0.00    -0.138 N  
HETATM   19  H   UNL     1     -10.190   6.369  67.962  1.00  0.00     0.000 HD 
BRANCH  18  20
HETATM   20  C   UNL     1      -8.702   7.194  66.766  1.00  0.00    -0.127 C  
HETATM   21  O   UNL     1      -7.598   6.758  67.065  1.00  0.00    -0.092 OA 
BRANCH  20  22
HETATM   22  N   UNL     1      -9.015   7.686  65.521  1.00  0.00    -0.378 N  
HETATM   23  H   UNL     1      -9.830   7.359  65.002  1.00  0.00     0.000 HD 
BRANCH  22  24
HETATM   24  C   UNL     1      -8.130   8.688  64.994  1.00  0.00    -0.143 C  
HETATM   25  N   UNL     1      -7.863   9.821  65.846  1.00  0.00    -0.106 N  
HETATM   26  O   UNL     1      -6.270   7.116  64.467  1.00  0.00    -0.036 OA 
HETATM   27  C   UNL     1      -6.557  10.246  65.717  1.00  0.00    -0.119 C  
HETATM   28  N   UNL     1      -5.860   9.294  65.046  1.00  0.00    -0.062 NA 
HETATM   29  O   UNL     1      -6.079  11.274  66.164  1.00  0.00    -0.126 OA 
HETATM   30  C   UNL     1      -6.667   8.223  64.796  1.00  0.00    -0.067 C  
BRANCH  25  31
HETATM   31  C   UNL     1      -8.883  10.578  66.499  1.00  0.00    -0.144 C  
HETATM   32  H   UNL     1      -9.847  12.218  66.154  1.00  0.00     0.000 HD 
HETATM   33  O   UNL     1      -9.169  11.714  65.719  1.00  0.00    -0.225 OA 
ENDBRANCH  25  31
ENDBRANCH  22  24
ENDBRANCH  20  22
ENDBRANCH  18  20
ENDBRANCH  17  18
ENDBRANCH  15  17
ENDBRANCH  13  15
ENDBRANCH  11  13
ENDBRANCH   5  11
ENDBRANCH   2   4
TORSDOF 10
ENDMDL
MODEL      460
REMARK 921   NORMALIZED FREE ENERGY PREDICTED BY IDOCK:   -2.66 KCAL/MOL
REMARK 922        TOTAL FREE ENERGY PREDICTED BY IDOCK:   -6.22 KCAL/MOL
REMARK 923 INTER-LIGAND FREE ENERGY PREDICTED BY IDOCK:   -5.61 KCAL/MOL
REMARK 924 INTRA-LIGAND FREE ENERGY PREDICTED BY IDOCK:   -0.61 KCAL/MOL
REMARK 927      BINDING AFFINITY PREDICTED BY RF-SCORE:    0.00 PKD
ROOT
HETATM    1  O   UNL     1      -6.878   8.011  69.120  1.00  0.00    -0.050 OA 
HETATM    2  C   UNL     1      -8.088   7.293  69.100  1.00  0.00    -0.121 C  
HETATM    3  H   UNL     1      -6.723   8.378  68.258  1.00  0.00     0.000 HD 
ENDROOT
BRANCH   2   4
HETATM    4  N   UNL     1      -8.322   6.738  70.400  1.00  0.00    -0.128 N  
HETATM    5  C   UNL     1      -9.046   7.494  71.401  1.00  0.00    -0.137 C  
HETATM    6  O   UNL     1      -6.442   5.371  70.380  1.00  0.00    -0.031 OA 
HETATM    7  C   UNL     1      -8.212   7.128  72.649  1.00  0.00    -0.107 C  
HETATM    8  N   UNL     1      -7.381   6.102  72.318  1.00  0.00    -0.092 NA 
HETATM    9  O   UNL     1      -8.302   7.597  73.774  1.00  0.00    -0.151 OA 
HETATM   10  C   UNL     1      -7.319   5.976  70.974  1.00  0.00    -0.080 C  
BRANCH   5  11
HETATM   11  N   UNL     1     -10.393   7.001  71.553  1.00  0.00    -0.203 N  
HETATM   12  H   UNL     1     -10.601   6.029  71.328  1.00  0.00     0.000 HD 
BRANCH  11  13
HETATM   13  C   UNL     1     -11.393   7.818  71.995  1.00  0.00    -0.284 C  
HETATM   14  O   UNL     1     -11.657   7.991  73.177  1.00  0.00    -0.289 OA 
BRANCH  13  15
HETATM   15  N   UNL     1     -12.013   8.485  70.971  1.00  0.00    -0.376 N  
HETATM   16  H   UNL     1     -11.806   8.239  70.003  1.00  0.00     0.000 HD 
BRANCH  15  17
HETATM   17  C   UNL     1     -12.952   9.527  71.261  1.00  0.00    -0.328 C  
BRANCH  17  18
HETATM   18  N   UNL     1     -12.598  10.769  70.624  1.00  0.00    -0.350 N  
HETATM   19  H   UNL     1     -13.018  11.645  70.937  1.00  0.00     0.000 HD 
BRANCH  18  20
HETATM   20  C   UNL     1     -11.694  10.765  69.595  1.00  0.00    -0.323 C  
HETATM   21  O   UNL     1     -10.499  10.543  69.738  1.00  0.00    -0.244 OA 
BRANCH  20  22
HETATM   22  N   UNL     1     -12.280  11.025  68.378  1.00  0.00    -0.217 N  
HETATM   23  H   UNL     1     -13.281  10.900  68.224  1.00  0.00     0.000 HD 
BRANCH  22  24
HETATM   24  C   UNL     1     -11.402  11.483  67.336  1.00  0.00    -0.298 C  
HETATM   25  N   UNL     1     -10.566  12.614  67.653  1.00  0.00    -0.216 N  
HETATM   26  O   UNL     1     -10.328   9.270  66.934  1.00  0.00    -0.249 OA 
HETATM   27  C   UNL     1      -9.323  12.497  67.065  1.00  0.00    -0.210 C  
HETATM   28  N   UNL     1      -9.182  11.227  66.610  1.00  0.00    -0.175 NA 
HETATM   29  O   UNL     1      -8.466  13.361  66.998  1.00  0.00    -0.194 OA 
HETATM   30  C   UNL     1     -10.278  10.491  66.952  1.00  0.00    -0.229 C  
BRANCH  25  31
HETATM   31  C   UNL     1     -11.056  13.821  68.240  1.00  0.00    -0.255 C  
HETATM   32  H   UNL     1     -11.850  14.336  69.926  1.00  0.00     0.000 HD 
HETATM   33  O   UNL     1     -11.524  13.533  69.535  1.00  0.00    -0.274 OA 
ENDBRANCH  25  31
ENDBRANCH  22  24
ENDBRANCH  20  22
ENDBRANCH  18  20
ENDBRANCH  17  18
ENDBRANCH  15  17
ENDBRANCH  13  15
ENDBRANCH  11  13
ENDBRANCH   5  11
ENDBRANCH   2   4
TORSDOF 10
ENDMDL
MODEL      461
REMARK 921   NORMALIZED FREE ENERGY PREDICTED BY IDOCK:   -2.66 KCAL/MOL
REMARK 922        TOTAL FREE ENERGY PREDICTED BY IDOCK:   -6.21 KCAL/MOL
REMARK 923 INTER-LIGAND FREE ENERGY PREDICTED BY IDOCK:   -5.62 KCAL/MOL
REMARK 924 INTRA-LIGAND FREE ENERGY PREDICTED BY IDOCK:   -0.59 KCAL/MOL
REMARK 927      BINDING AFFINITY PREDICTED BY RF-SCORE:    0.00 PKD
ROOT
HETATM    1  O   UNL     1      -6.798   8.156  65.559  1.00  0.00    -0.061 OA 
HETATM    2  C   UNL     1      -7.922   8.675  66.228  1.00  0.00    -0.102 C  
HETATM    3  H   UNL     1      -6.711   8.589  64.718  1.00  0.00     0.000 HD 
ENDROOT
BRANCH   2   4
HETATM    4  N   UNL     1      -8.054   8.021  67.495  1.00  0.00    -0.122 N  
HETATM    5  C   UNL     1      -7.372   8.540  68.663  1.00  0.00    -0.088 C  
HETATM    6  O   UNL     1      -8.456   5.915  66.597  1.00  0.00    -0.109 OA 
HETATM    7  C   UNL     1      -6.926   7.209  69.309  1.00  0.00    -0.070 C  
HETATM    8  N   UNL     1      -7.570   6.193  68.674  1.00  0.00    -0.090 NA 
HETATM    9  O   UNL     1      -6.188   7.054  70.271  1.00  0.00    -0.029 OA 
HETATM   10  C   UNL     1      -8.101   6.639  67.514  1.00  0.00    -0.118 C  
BRANCH   5  11
HETATM   11  N   UNL     1      -8.289   9.225  69.541  1.00  0.00    -0.122 N  
HETATM   12  H   UNL     1      -7.931   9.909  70.207  1.00  0.00     0.000 HD 
BRANCH  11  13
HETATM   13  C   UNL     1      -9.628   8.969  69.493  1.00  0.00    -0.165 C  
HETATM   14  O   UNL     1     -10.142   7.951  69.939  1.00  0.00    -0.190 OA 
BRANCH  13  15
HETATM   15  N   UNL     1     -10.341  10.013  68.964  1.00  0.00    -0.194 N  
HETATM   16  H   UNL     1     -11.337   9.907  68.777  1.00  0.00     0.000 HD 
BRANCH  15  17
HETATM   17  C   UNL     1      -9.683  11.252  68.674  1.00  0.00    -0.195 C  
BRANCH  17  18
HETATM   18  N   UNL     1     -10.539  12.387  68.902  1.00  0.00    -0.380 N  
HETATM   19  H   UNL     1     -10.201  13.187  69.438  1.00  0.00     0.000 HD 
BRANCH  18  20
HETATM   20  C   UNL     1     -11.811  12.385  68.393  1.00  0.00    -0.309 C  
HETATM   21  O   UNL     1     -12.455  11.368  68.175  1.00  0.00    -0.240 OA 
BRANCH  20  22
HETATM   22  N   UNL     1     -12.290  13.654  68.167  1.00  0.00    -0.325 N  
HETATM   23  H   UNL     1     -13.043  14.053  68.727  1.00  0.00     0.000 HD 
BRANCH  22  24
HETATM   24  C   UNL     1     -11.667  14.385  67.098  1.00  0.00    -0.400 C  
HETATM   25  N   UNL     1     -10.381  14.970  67.384  1.00  0.00    -0.237 N  
HETATM   26  O   UNL     1     -11.803  12.539  65.429  1.00  0.00    -0.388 OA 
HETATM   27  C   UNL     1      -9.549  14.911  66.284  1.00  0.00    -0.307 C  
HETATM   28  N   UNL     1     -10.102  14.071  65.373  1.00  0.00    -0.334 NA 
HETATM   29  O   UNL     1      -8.474  15.471  66.154  1.00  0.00    -0.212 OA 
HETATM   30  C   UNL     1     -11.242  13.524  65.884  1.00  0.00    -0.300 C  
BRANCH  25  31
HETATM   31  C   UNL     1     -10.112  15.764  68.541  1.00  0.00    -0.215 C  
HETATM   32  H   UNL     1     -11.102  17.001  69.650  1.00  0.00     0.000 HD 
HETATM   33  O   UNL     1     -11.280  16.472  68.881  1.00  0.00    -0.319 OA 
ENDBRANCH  25  31
ENDBRANCH  22  24
ENDBRANCH  20  22
ENDBRANCH  18  20
ENDBRANCH  17  18
ENDBRANCH  15  17
ENDBRANCH  13  15
ENDBRANCH  11  13
ENDBRANCH   5  11
ENDBRANCH   2   4
TORSDOF 10
ENDMDL
MODEL      462
REMARK 921   NORMALIZED FREE ENERGY PREDICTED BY IDOCK:   -2.65 KCAL/MOL
REMARK 922        TOTAL FREE ENERGY PREDICTED BY IDOCK:   -6.20 KCAL/MOL
REMARK 923 INTER-LIGAND FREE ENERGY PREDICTED BY IDOCK:   -6.33 KCAL/MOL
REMARK 924 INTRA-LIGAND FREE ENERGY PREDICTED BY IDOCK:    0.13 KCAL/MOL
REMARK 927      BINDING AFFINITY PREDICTED BY RF-SCORE:    0.00 PKD
ROOT
HETATM    1  O   UNL     1      -8.473   6.347  68.866  1.00  0.00    -0.120 OA 
HETATM    2  C   UNL     1      -8.239   7.620  68.312  1.00  0.00    -0.125 C  
HETATM    3  H   UNL     1      -8.555   5.715  68.162  1.00  0.00     0.000 HD 
ENDROOT
BRANCH   2   4
HETATM    4  N   UNL     1      -8.116   8.574  69.373  1.00  0.00    -0.110 N  
HETATM    5  C   UNL     1      -8.210   9.994  69.098  1.00  0.00    -0.137 C  
HETATM    6  O   UNL     1      -6.785   7.219  70.713  1.00  0.00    -0.047 OA 
HETATM    7  C   UNL     1      -7.101  10.509  70.043  1.00  0.00    -0.127 C  
HETATM    8  N   UNL     1      -6.737   9.488  70.866  1.00  0.00    -0.180 NA 
HETATM    9  O   UNL     1      -6.653  11.643  70.124  1.00  0.00    -0.104 OA 
HETATM   10  C   UNL     1      -7.202   8.317  70.379  1.00  0.00    -0.044 C  
BRANCH   5  11
HETATM   11  N   UNL     1      -9.486  10.521  69.511  1.00  0.00    -0.399 N  
HETATM   12  H   UNL     1      -9.755  10.477  70.494  1.00  0.00     0.000 HD 
BRANCH  11  13
HETATM   13  C   UNL     1     -10.341  11.080  68.605  1.00  0.00    -0.193 C  
HETATM   14  O   UNL     1     -11.308  10.497  68.135  1.00  0.00    -0.297 OA 
BRANCH  13  15
HETATM   15  N   UNL     1     -10.041  12.391  68.345  1.00  0.00    -0.223 N  
HETATM   16  H   UNL     1      -9.766  13.013  69.105  1.00  0.00     0.000 HD 
BRANCH  15  17
HETATM   17  C   UNL     1     -10.114  12.888  67.003  1.00  0.00    -0.245 C  
BRANCH  17  18
HETATM   18  N   UNL     1      -8.959  13.672  66.650  1.00  0.00    -0.423 N  
HETATM   19  H   UNL     1      -8.255  13.294  66.015  1.00  0.00     0.000 HD 
BRANCH  18  20
HETATM   20  C   UNL     1      -8.812  14.929  67.174  1.00  0.00    -0.217 C  
HETATM   21  O   UNL     1      -9.080  15.220  68.332  1.00  0.00    -0.179 OA 
BRANCH  20  22
HETATM   22  N   UNL     1      -8.318  15.827  66.257  1.00  0.00    -0.347 N  
HETATM   23  H   UNL     1      -8.149  15.567  65.285  1.00  0.00     0.000 HD 
BRANCH  22  24
HETATM   24  C   UNL     1      -8.052  17.152  66.746  1.00  0.00    -0.243 C  
HETATM   25  N   UNL     1      -9.194  17.912  67.192  1.00  0.00    -0.254 N  
HETATM   26  O   UNL     1      -6.346  16.454  68.424  1.00  0.00    -0.122 OA 
HETATM   27  C   UNL     1      -8.879  18.690  68.288  1.00  0.00    -0.326 C  
HETATM   28  N   UNL     1      -7.680  18.283  68.773  1.00  0.00    -0.295 NA 
HETATM   29  O   UNL     1      -9.570  19.565  68.780  1.00  0.00    -0.391 OA 
HETATM   30  C   UNL     1      -7.236  17.207  68.061  1.00  0.00    -0.184 C  
BRANCH  25  31
HETATM   31  C   UNL     1     -10.390  18.066  66.426  1.00  0.00    -0.379 C  
HETATM   32  H   UNL     1     -11.176  17.222  64.874  1.00  0.00     0.000 HD 
HETATM   33  O   UNL     1     -10.381  17.120  65.384  1.00  0.00    -0.619 OA 
ENDBRANCH  25  31
ENDBRANCH  22  24
ENDBRANCH  20  22
ENDBRANCH  18  20
ENDBRANCH  17  18
ENDBRANCH  15  17
ENDBRANCH  13  15
ENDBRANCH  11  13
ENDBRANCH   5  11
ENDBRANCH   2   4
TORSDOF 10
ENDMDL
MODEL      463
REMARK 921   NORMALIZED FREE ENERGY PREDICTED BY IDOCK:   -2.64 KCAL/MOL
REMARK 922        TOTAL FREE ENERGY PREDICTED BY IDOCK:   -6.18 KCAL/MOL
REMARK 923 INTER-LIGAND FREE ENERGY PREDICTED BY IDOCK:   -5.26 KCAL/MOL
REMARK 924 INTRA-LIGAND FREE ENERGY PREDICTED BY IDOCK:   -0.93 KCAL/MOL
REMARK 927      BINDING AFFINITY PREDICTED BY RF-SCORE:    0.00 PKD
ROOT
HETATM    1  O   UNL     1      -7.922  14.156  69.282  1.00  0.00    -0.339 OA 
HETATM    2  C   UNL     1      -8.775  14.587  68.249  1.00  0.00    -0.173 C  
HETATM    3  H   UNL     1      -7.077  14.579  69.181  1.00  0.00     0.000 HD 
ENDROOT
BRANCH   2   4
HETATM    4  N   UNL     1     -10.049  13.949  68.401  1.00  0.00    -0.234 N  
HETATM    5  C   UNL     1     -10.292  12.646  67.816  1.00  0.00    -0.220 C  
HETATM    6  O   UNL     1     -11.245  15.931  68.615  1.00  0.00    -0.318 OA 
HETATM    7  C   UNL     1     -11.739  12.859  67.315  1.00  0.00    -0.373 C  
HETATM    8  N   UNL     1     -12.209  14.015  67.857  1.00  0.00    -0.253 NA 
HETATM    9  O   UNL     1     -12.407  12.110  66.619  1.00  0.00    -0.453 OA 
HETATM   10  C   UNL     1     -11.184  14.740  68.356  1.00  0.00    -0.284 C  
BRANCH   5  11
HETATM   11  N   UNL     1     -10.271  11.612  68.820  1.00  0.00    -0.304 N  
HETATM   12  H   UNL     1     -11.101  11.446  69.389  1.00  0.00     0.000 HD 
BRANCH  11  13
HETATM   13  C   UNL     1      -9.155  10.851  69.020  1.00  0.00    -0.098 C  
HETATM   14  O   UNL     1      -8.035  11.178  68.652  1.00  0.00    -0.130 OA 
BRANCH  13  15
HETATM   15  N   UNL     1      -9.418   9.721  69.749  1.00  0.00    -0.216 N  
HETATM   16  H   UNL     1     -10.381   9.470  69.972  1.00  0.00     0.000 HD 
BRANCH  15  17
HETATM   17  C   UNL     1      -8.339   8.892  70.197  1.00  0.00    -0.139 C  
BRANCH  17  18
HETATM   18  N   UNL     1      -8.757   7.536  70.434  1.00  0.00    -0.143 N  
HETATM   19  H   UNL     1      -9.061   7.246  71.364  1.00  0.00     0.000 HD 
BRANCH  18  20
HETATM   20  C   UNL     1      -8.744   6.637  69.400  1.00  0.00    -0.135 C  
HETATM   21  O   UNL     1      -7.728   6.283  68.817  1.00  0.00    -0.097 OA 
BRANCH  20  22
HETATM   22  N   UNL     1     -10.000   6.165  69.097  1.00  0.00    -0.147 N  
HETATM   23  H   UNL     1     -10.743   6.783  68.770  1.00  0.00     0.000 HD 
BRANCH  22  24
HETATM   24  C   UNL     1     -10.206   4.753  69.267  1.00  0.00    -0.074 C  
HETATM   25  N   UNL     1      -9.568   3.891  68.302  1.00  0.00    -0.146 N  
HETATM   26  O   UNL     1      -9.437   4.679  71.637  1.00  0.00    -0.140 OA 
HETATM   27  C   UNL     1      -9.117   2.728  68.893  1.00  0.00    -0.147 C  
HETATM   28  N   UNL     1      -9.162   2.885  70.239  1.00  0.00    -0.125 NA 
HETATM   29  O   UNL     1      -8.699   1.736  68.320  1.00  0.00    -0.065 OA 
HETATM   30  C   UNL     1      -9.565   4.152  70.542  1.00  0.00    -0.191 C  
BRANCH  25  31
HETATM   31  C   UNL     1      -9.659   4.081  66.889  1.00  0.00    -0.207 C  
HETATM   32  H   UNL     1      -8.444   4.541  65.458  1.00  0.00     0.000 HD 
HETATM   33  O   UNL     1      -8.384   4.415  66.397  1.00  0.00    -0.106 OA 
ENDBRANCH  25  31
ENDBRANCH  22  24
ENDBRANCH  20  22
ENDBRANCH  18  20
ENDBRANCH  17  18
ENDBRANCH  15  17
ENDBRANCH  13  15
ENDBRANCH  11  13
ENDBRANCH   5  11
ENDBRANCH   2   4
TORSDOF 10
ENDMDL
MODEL      464
REMARK 921   NORMALIZED FREE ENERGY PREDICTED BY IDOCK:   -2.64 KCAL/MOL
REMARK 922        TOTAL FREE ENERGY PREDICTED BY IDOCK:   -6.18 KCAL/MOL
REMARK 923 INTER-LIGAND FREE ENERGY PREDICTED BY IDOCK:   -5.27 KCAL/MOL
REMARK 924 INTRA-LIGAND FREE ENERGY PREDICTED BY IDOCK:   -0.91 KCAL/MOL
REMARK 927      BINDING AFFINITY PREDICTED BY RF-SCORE:    0.00 PKD
ROOT
HETATM    1  O   UNL     1     -11.108  12.599  67.579  1.00  0.00    -0.249 OA 
HETATM    2  C   UNL     1     -11.917  13.361  68.442  1.00  0.00    -0.324 C  
HETATM    3  H   UNL     1     -11.110  13.001  66.719  1.00  0.00     0.000 HD 
ENDROOT
BRANCH   2   4
HETATM    4  N   UNL     1     -11.914  12.755  69.740  1.00  0.00    -0.314 N  
HETATM    5  C   UNL     1     -12.076  11.322  69.881  1.00  0.00    -0.341 C  
HETATM    6  O   UNL     1     -12.702  14.640  70.848  1.00  0.00    -0.313 OA 
HETATM    7  C   UNL     1     -12.992  11.292  71.127  1.00  0.00    -0.272 C  
HETATM    8  N   UNL     1     -13.013  12.541  71.667  1.00  0.00    -0.357 NA 
HETATM    9  O   UNL     1     -13.554  10.326  71.619  1.00  0.00    -0.269 OA 
HETATM   10  C   UNL     1     -12.524  13.435  70.779  1.00  0.00    -0.341 C  
BRANCH   5  11
HETATM   11  N   UNL     1     -10.820  10.682  70.184  1.00  0.00    -0.451 N  
HETATM   12  H   UNL     1     -10.097  11.203  70.678  1.00  0.00     0.000 HD 
BRANCH  11  13
HETATM   13  C   UNL     1     -10.587   9.388  69.819  1.00  0.00    -0.231 C  
HETATM   14  O   UNL     1     -10.165   9.059  68.719  1.00  0.00    -0.197 OA 
BRANCH  13  15
HETATM   15  N   UNL     1     -10.800   8.508  70.847  1.00  0.00    -0.225 N  
HETATM   16  H   UNL     1     -11.501   7.774  70.753  1.00  0.00     0.000 HD 
BRANCH  15  17
HETATM   17  C   UNL     1     -10.039   8.623  72.056  1.00  0.00    -0.331 C  
BRANCH  17  18
HETATM   18  N   UNL     1      -8.935   7.700  72.091  1.00  0.00    -0.128 N  
HETATM   19  H   UNL     1      -8.574   7.363  72.984  1.00  0.00     0.000 HD 
BRANCH  18  20
HETATM   20  C   UNL     1      -8.372   7.277  70.916  1.00  0.00    -0.116 C  
HETATM   21  O   UNL     1      -7.501   7.893  70.317  1.00  0.00    -0.074 OA 
BRANCH  20  22
HETATM   22  N   UNL     1      -8.887   6.075  70.488  1.00  0.00    -0.144 N  
HETATM   23  H   UNL     1      -9.868   5.831  70.623  1.00  0.00     0.000 HD 
BRANCH  22  24
HETATM   24  C   UNL     1      -7.963   5.184  69.841  1.00  0.00    -0.078 C  
HETATM   25  N   UNL     1      -7.768   3.898  70.466  1.00  0.00    -0.044 N  
HETATM   26  O   UNL     1      -9.060   5.279  67.605  1.00  0.00    -0.109 OA 
HETATM   27  C   UNL     1      -7.601   2.905  69.522  1.00  0.00    -0.044 C  
HETATM   28  N   UNL     1      -7.954   3.401  68.310  1.00  0.00    -0.069 NA 
HETATM   29  O   UNL     1      -7.245   1.758  69.730  1.00  0.00    -0.036 OA 
HETATM   30  C   UNL     1      -8.417   4.676  68.451  1.00  0.00    -0.090 C  
BRANCH  25  31
HETATM   31  C   UNL     1      -7.488   3.728  71.856  1.00  0.00    -0.056 C  
HETATM   32  H   UNL     1      -8.198   2.666  73.307  1.00  0.00     0.000 HD 
HETATM   33  O   UNL     1      -8.384   2.779  72.382  1.00  0.00    -0.064 OA 
ENDBRANCH  25  31
ENDBRANCH  22  24
ENDBRANCH  20  22
ENDBRANCH  18  20
ENDBRANCH  17  18
ENDBRANCH  15  17
ENDBRANCH  13  15
ENDBRANCH  11  13
ENDBRANCH   5  11
ENDBRANCH   2   4
TORSDOF 10
ENDMDL
MODEL      465
REMARK 921   NORMALIZED FREE ENERGY PREDICTED BY IDOCK:   -2.64 KCAL/MOL
REMARK 922        TOTAL FREE ENERGY PREDICTED BY IDOCK:   -6.17 KCAL/MOL
REMARK 923 INTER-LIGAND FREE ENERGY PREDICTED BY IDOCK:   -4.94 KCAL/MOL
REMARK 924 INTRA-LIGAND FREE ENERGY PREDICTED BY IDOCK:   -1.23 KCAL/MOL
REMARK 927      BINDING AFFINITY PREDICTED BY RF-SCORE:    0.00 PKD
ROOT
HETATM    1  O   UNL     1      -7.348  13.619  69.285  1.00  0.00    -0.291 OA 
HETATM    2  C   UNL     1      -8.286  13.860  68.264  1.00  0.00    -0.163 C  
HETATM    3  H   UNL     1      -6.584  14.163  69.137  1.00  0.00     0.000 HD 
ENDROOT
BRANCH   2   4
HETATM    4  N   UNL     1      -9.439  13.039  68.487  1.00  0.00    -0.152 N  
HETATM    5  C   UNL     1      -9.599  11.789  67.772  1.00  0.00    -0.184 C  
HETATM    6  O   UNL     1     -10.827  14.799  69.102  1.00  0.00    -0.244 OA 
HETATM    7  C   UNL     1     -11.117  11.854  67.485  1.00  0.00    -0.273 C  
HETATM    8  N   UNL     1     -11.645  12.866  68.226  1.00  0.00    -0.313 NA 
HETATM    9  O   UNL     1     -11.778  11.103  66.784  1.00  0.00    -0.349 OA 
HETATM   10  C   UNL     1     -10.657  13.665  68.685  1.00  0.00    -0.248 C  
BRANCH   5  11
HETATM   11  N   UNL     1      -9.312  10.661  68.623  1.00  0.00    -0.169 N  
HETATM   12  H   UNL     1     -10.046  10.283  69.221  1.00  0.00     0.000 HD 
BRANCH  11  13
HETATM   13  C   UNL     1      -8.071  10.092  68.639  1.00  0.00    -0.109 C  
HETATM   14  O   UNL     1      -7.063  10.652  68.231  1.00  0.00    -0.078 OA 
BRANCH  13  15
HETATM   15  N   UNL     1      -8.070   8.859  69.236  1.00  0.00    -0.107 N  
HETATM   16  H   UNL     1      -7.727   8.755  70.190  1.00  0.00     0.000 HD 
BRANCH  15  17
HETATM   17  C   UNL     1      -8.551   7.717  68.517  1.00  0.00    -0.129 C  
BRANCH  17  18
HETATM   18  N   UNL     1      -8.784   6.589  69.381  1.00  0.00    -0.133 N  
HETATM   19  H   UNL     1      -8.211   5.749  69.297  1.00  0.00     0.000 HD 
BRANCH  18  20
HETATM   20  C   UNL     1      -9.780   6.654  70.320  1.00  0.00    -0.171 C  
HETATM   21  O   UNL     1     -10.766   7.373  70.219  1.00  0.00    -0.227 OA 
BRANCH  20  22
HETATM   22  N   UNL     1      -9.557   5.812  71.384  1.00  0.00    -0.157 N  
HETATM   23  H   UNL     1      -9.861   4.839  71.373  1.00  0.00     0.000 HD 
BRANCH  22  24
HETATM   24  C   UNL     1      -8.870   6.382  72.510  1.00  0.00    -0.133 C  
HETATM   25  N   UNL     1      -7.529   6.857  72.271  1.00  0.00    -0.087 N  
HETATM   26  O   UNL     1     -10.649   8.036  73.068  1.00  0.00    -0.353 OA 
HETATM   27  C   UNL     1      -7.267   8.001  72.998  1.00  0.00    -0.105 C  
HETATM   28  N   UNL     1      -8.440   8.476  73.487  1.00  0.00    -0.370 NA 
HETATM   29  O   UNL     1      -6.182   8.535  73.146  1.00  0.00    -0.098 OA 
HETATM   30  C   UNL     1      -9.473   7.708  73.036  1.00  0.00    -0.226 C  
BRANCH  25  31
HETATM   31  C   UNL     1      -6.522   6.087  71.613  1.00  0.00    -0.050 C  
HETATM   32  H   UNL     1      -5.301   6.350  70.137  1.00  0.00     0.000 HD 
HETATM   33  O   UNL     1      -5.971   6.861  70.575  1.00  0.00    -0.026 OA 
ENDBRANCH  25  31
ENDBRANCH  22  24
ENDBRANCH  20  22
ENDBRANCH  18  20
ENDBRANCH  17  18
ENDBRANCH  15  17
ENDBRANCH  13  15
ENDBRANCH  11  13
ENDBRANCH   5  11
ENDBRANCH   2   4
TORSDOF 10
ENDMDL
MODEL      466
REMARK 921   NORMALIZED FREE ENERGY PREDICTED BY IDOCK:   -2.64 KCAL/MOL
REMARK 922        TOTAL FREE ENERGY PREDICTED BY IDOCK:   -6.17 KCAL/MOL
REMARK 923 INTER-LIGAND FREE ENERGY PREDICTED BY IDOCK:   -5.68 KCAL/MOL
REMARK 924 INTRA-LIGAND FREE ENERGY PREDICTED BY IDOCK:   -0.49 KCAL/MOL
REMARK 927      BINDING AFFINITY PREDICTED BY RF-SCORE:    0.00 PKD
ROOT
HETATM    1  O   UNL     1     -11.792  11.739  67.907  1.00  0.00    -0.518 OA 
HETATM    2  C   UNL     1     -11.931  12.729  68.897  1.00  0.00    -0.244 C  
HETATM    3  H   UNL     1     -11.772  12.155  67.054  1.00  0.00     0.000 HD 
ENDROOT
BRANCH   2   4
HETATM    4  N   UNL     1     -11.961  12.101  70.184  1.00  0.00    -0.345 N  
HETATM    5  C   UNL     1     -12.121  10.665  70.296  1.00  0.00    -0.338 C  
HETATM    6  O   UNL     1     -12.789  13.964  71.301  1.00  0.00    -0.331 OA 
HETATM    7  C   UNL     1     -13.071  10.611  71.514  1.00  0.00    -0.424 C  
HETATM    8  N   UNL     1     -13.114  11.850  72.074  1.00  0.00    -0.424 NA 
HETATM    9  O   UNL     1     -13.643   9.634  71.974  1.00  0.00    -0.408 OA 
HETATM   10  C   UNL     1     -12.604  12.761  71.217  1.00  0.00    -0.250 C  
BRANCH   5  11
HETATM   11  N   UNL     1     -10.871  10.026  70.624  1.00  0.00    -0.319 N  
HETATM   12  H   UNL     1     -10.176  10.531  71.173  1.00  0.00     0.000 HD 
BRANCH  11  13
HETATM   13  C   UNL     1     -10.605   8.753  70.209  1.00  0.00    -0.216 C  
HETATM   14  O   UNL     1     -11.126   7.757  70.695  1.00  0.00    -0.251 OA 
BRANCH  13  15
HETATM   15  N   UNL     1      -9.753   8.720  69.137  1.00  0.00    -0.172 N  
HETATM   16  H   UNL     1      -8.748   8.809  69.282  1.00  0.00     0.000 HD 
BRANCH  15  17
HETATM   17  C   UNL     1     -10.277   8.563  67.813  1.00  0.00    -0.225 C  
BRANCH  17  18
HETATM   18  N   UNL     1     -10.090   7.227  67.310  1.00  0.00    -0.201 N  
HETATM   19  H   UNL     1     -10.874   6.574  67.279  1.00  0.00     0.000 HD 
BRANCH  18  20
HETATM   20  C   UNL     1      -8.851   6.839  66.873  1.00  0.00    -0.119 C  
HETATM   21  O   UNL     1      -8.655   6.243  65.822  1.00  0.00    -0.147 OA 
BRANCH  20  22
HETATM   22  N   UNL     1      -7.849   7.205  67.740  1.00  0.00    -0.112 N  
HETATM   23  H   UNL     1      -7.626   8.183  67.925  1.00  0.00     0.000 HD 
BRANCH  22  24
HETATM   24  C   UNL     1      -7.132   6.130  68.372  1.00  0.00    -0.082 C  
HETATM   25  N   UNL     1      -7.931   5.065  68.926  1.00  0.00    -0.080 N  
HETATM   26  O   UNL     1      -5.663   5.638  66.419  1.00  0.00    -0.016 OA 
HETATM   27  C   UNL     1      -7.316   3.841  68.760  1.00  0.00    -0.054 C  
HETATM   28  N   UNL     1      -6.295   3.990  67.879  1.00  0.00    -0.036 NA 
HETATM   29  O   UNL     1      -7.650   2.784  69.268  1.00  0.00    -0.044 OA 
HETATM   30  C   UNL     1      -6.273   5.271  67.412  1.00  0.00    -0.035 C  
BRANCH  25  31
HETATM   31  C   UNL     1      -9.049   5.281  69.789  1.00  0.00    -0.116 C  
HETATM   32  H   UNL     1     -10.953   4.953  69.721  1.00  0.00     0.000 HD 
HETATM   33  O   UNL     1     -10.209   4.809  69.147  1.00  0.00    -0.171 OA 
ENDBRANCH  25  31
ENDBRANCH  22  24
ENDBRANCH  20  22
ENDBRANCH  18  20
ENDBRANCH  17  18
ENDBRANCH  15  17
ENDBRANCH  13  15
ENDBRANCH  11  13
ENDBRANCH   5  11
ENDBRANCH   2   4
TORSDOF 10
ENDMDL
MODEL      467
REMARK 921   NORMALIZED FREE ENERGY PREDICTED BY IDOCK:   -2.60 KCAL/MOL
REMARK 922        TOTAL FREE ENERGY PREDICTED BY IDOCK:   -6.12 KCAL/MOL
REMARK 923 INTER-LIGAND FREE ENERGY PREDICTED BY IDOCK:   -5.01 KCAL/MOL
REMARK 924 INTRA-LIGAND FREE ENERGY PREDICTED BY IDOCK:   -1.11 KCAL/MOL
REMARK 927      BINDING AFFINITY PREDICTED BY RF-SCORE:    0.00 PKD
ROOT
HETATM    1  O   UNL     1      -6.851  12.387  68.760  1.00  0.00    -0.083 OA 
HETATM    2  C   UNL     1      -7.043  12.051  67.407  1.00  0.00    -0.136 C  
HETATM    3  H   UNL     1      -5.934  12.586  68.902  1.00  0.00     0.000 HD 
ENDROOT
BRANCH   2   4
HETATM    4  N   UNL     1      -8.427  11.750  67.193  1.00  0.00    -0.163 N  
HETATM    5  C   UNL     1      -8.831  10.895  66.095  1.00  0.00    -0.186 C  
HETATM    6  O   UNL     1      -9.214  13.716  68.152  1.00  0.00    -0.193 OA 
HETATM    7  C   UNL     1     -10.103  11.647  65.642  1.00  0.00    -0.240 C  
HETATM    8  N   UNL     1     -10.410  12.571  66.593  1.00  0.00    -0.226 NA 
HETATM    9  O   UNL     1     -10.787  11.432  64.653  1.00  0.00    -0.317 OA 
HETATM   10  C   UNL     1      -9.354  12.752  67.416  1.00  0.00    -0.193 C  
BRANCH   5  11
HETATM   11  N   UNL     1      -9.184   9.578  66.564  1.00  0.00    -0.153 N  
HETATM   12  H   UNL     1      -9.499   9.454  67.526  1.00  0.00     0.000 HD 
BRANCH  11  13
HETATM   13  C   UNL     1      -9.104   8.494  65.738  1.00  0.00    -0.167 C  
HETATM   14  O   UNL     1      -8.480   8.487  64.686  1.00  0.00    -0.166 OA 
BRANCH  13  15
HETATM   15  N   UNL     1      -9.731   7.393  66.259  1.00  0.00    -0.420 N  
HETATM   16  H   UNL     1      -9.331   6.465  66.120  1.00  0.00     0.000 HD 
BRANCH  15  17
HETATM   17  C   UNL     1     -10.948   7.547  66.999  1.00  0.00    -0.035 C  
BRANCH  17  18
HETATM   18  N   UNL     1     -10.730   7.501  68.420  1.00  0.00    -0.383 N  
HETATM   19  H   UNL     1     -11.237   8.134  69.040  1.00  0.00     0.000 HD 
BRANCH  18  20
HETATM   20  C   UNL     1      -9.836   6.600  68.936  1.00  0.00    -0.139 C  
HETATM   21  O   UNL     1     -10.098   5.423  69.145  1.00  0.00    -0.184 OA 
BRANCH  20  22
HETATM   22  N   UNL     1      -8.604   7.161  69.180  1.00  0.00    -0.133 N  
HETATM   23  H   UNL     1      -7.969   7.417  68.424  1.00  0.00     0.000 HD 
BRANCH  22  24
HETATM   24  C   UNL     1      -8.263   7.366  70.561  1.00  0.00    -0.127 C  
HETATM   25  N   UNL     1      -9.255   8.024  71.375  1.00  0.00    -0.139 N  
HETATM   26  O   UNL     1      -7.711   4.982  71.032  1.00  0.00    -0.082 OA 
HETATM   27  C   UNL     1      -9.277   7.503  72.654  1.00  0.00    -0.152 C  
HETATM   28  N   UNL     1      -8.561   6.351  72.660  1.00  0.00    -0.123 NA 
HETATM   29  O   UNL     1      -9.873   7.959  73.614  1.00  0.00    -0.260 OA 
HETATM   30  C   UNL     1      -8.130   6.070  71.397  1.00  0.00    -0.115 C  
BRANCH  25  31
HETATM   31  C   UNL     1      -9.907   9.239  71.002  1.00  0.00    -0.285 C  
HETATM   32  H   UNL     1      -9.688  10.579  69.626  1.00  0.00     0.000 HD 
HETATM   33  O   UNL     1      -9.254   9.771  69.875  1.00  0.00    -0.212 OA 
ENDBRANCH  25  31
ENDBRANCH  22  24
ENDBRANCH  20  22
ENDBRANCH  18  20
ENDBRANCH  17  18
ENDBRANCH  15  17
ENDBRANCH  13  15
ENDBRANCH  11  13
ENDBRANCH   5  11
ENDBRANCH   2   4
TORSDOF 10
ENDMDL
MODEL      468
REMARK 921   NORMALIZED FREE ENERGY PREDICTED BY IDOCK:   -2.58 KCAL/MOL
REMARK 922        TOTAL FREE ENERGY PREDICTED BY IDOCK:   -6.08 KCAL/MOL
REMARK 923 INTER-LIGAND FREE ENERGY PREDICTED BY IDOCK:   -4.78 KCAL/MOL
REMARK 924 INTRA-LIGAND FREE ENERGY PREDICTED BY IDOCK:   -1.31 KCAL/MOL
REMARK 927      BINDING AFFINITY PREDICTED BY RF-SCORE:    0.00 PKD
ROOT
HETATM    1  O   UNL     1     -10.366  15.117  65.278  1.00  0.00    -0.360 OA 
HETATM    2  C   UNL     1     -10.323  14.446  66.514  1.00  0.00    -0.281 C  
HETATM    3  H   UNL     1     -10.156  16.033  65.417  1.00  0.00     0.000 HD 
ENDROOT
BRANCH   2   4
HETATM    4  N   UNL     1     -10.639  13.064  66.304  1.00  0.00    -0.268 N  
HETATM    5  C   UNL     1      -9.673  12.174  65.696  1.00  0.00    -0.207 C  
HETATM    6  O   UNL     1     -12.933  13.404  66.134  1.00  0.00    -0.176 OA 
HETATM    7  C   UNL     1     -10.620  11.346  64.798  1.00  0.00    -0.316 C  
HETATM    8  N   UNL     1     -11.901  11.625  65.163  1.00  0.00    -0.112 NA 
HETATM    9  O   UNL     1     -10.317  10.519  63.951  1.00  0.00    -0.262 OA 
HETATM   10  C   UNL     1     -11.930  12.741  65.923  1.00  0.00    -0.449 C  
BRANCH   5  11
HETATM   11  N   UNL     1      -9.062  11.316  66.680  1.00  0.00    -0.174 N  
HETATM   12  H   UNL     1      -9.548  10.473  66.984  1.00  0.00     0.000 HD 
BRANCH  11  13
HETATM   13  C   UNL     1      -7.841  11.617  67.212  1.00  0.00    -0.157 C  
HETATM   14  O   UNL     1      -7.498  12.748  67.528  1.00  0.00    -0.133 OA 
BRANCH  13  15
HETATM   15  N   UNL     1      -7.075  10.501  67.425  1.00  0.00    -0.088 N  
HETATM   16  H   UNL     1      -6.732  10.289  68.361  1.00  0.00     0.000 HD 
BRANCH  15  17
HETATM   17  C   UNL     1      -6.756   9.632  66.331  1.00  0.00    -0.076 C  
BRANCH  17  18
HETATM   18  N   UNL     1      -6.534   8.277  66.759  1.00  0.00    -0.055 N  
HETATM   19  H   UNL     1      -6.186   7.579  66.101  1.00  0.00     0.000 HD 
BRANCH  18  20
HETATM   20  C   UNL     1      -6.793   7.930  68.060  1.00  0.00    -0.072 C  
HETATM   21  O   UNL     1      -6.535   8.645  69.019  1.00  0.00    -0.046 OA 
BRANCH  20  22
HETATM   22  N   UNL     1      -7.388   6.695  68.167  1.00  0.00    -0.088 N  
HETATM   23  H   UNL     1      -6.887   5.835  67.947  1.00  0.00     0.000 HD 
BRANCH  22  24
HETATM   24  C   UNL     1      -8.757   6.686  68.607  1.00  0.00    -0.124 C  
HETATM   25  N   UNL     1      -8.994   7.091  69.971  1.00  0.00    -0.142 N  
HETATM   26  O   UNL     1      -9.615   8.123  66.760  1.00  0.00    -0.182 OA 
HETATM   27  C   UNL     1     -10.170   7.806  70.082  1.00  0.00    -0.205 C  
HETATM   28  N   UNL     1     -10.585   8.145  68.835  1.00  0.00    -0.184 NA 
HETATM   29  O   UNL     1     -10.729   8.129  71.115  1.00  0.00    -0.216 OA 
HETATM   30  C   UNL     1      -9.668   7.729  67.915  1.00  0.00    -0.153 C  
BRANCH  25  31
HETATM   31  C   UNL     1      -8.274   6.569  71.088  1.00  0.00    -0.121 C  
HETATM   32  H   UNL     1      -8.238   4.908  72.078  1.00  0.00     0.000 HD 
HETATM   33  O   UNL     1      -8.717   5.256  71.334  1.00  0.00    -0.127 OA 
ENDBRANCH  25  31
ENDBRANCH  22  24
ENDBRANCH  20  22
ENDBRANCH  18  20
ENDBRANCH  17  18
ENDBRANCH  15  17
ENDBRANCH  13  15
ENDBRANCH  11  13
ENDBRANCH   5  11
ENDBRANCH   2   4
TORSDOF 10
ENDMDL
MODEL      469
REMARK 921   NORMALIZED FREE ENERGY PREDICTED BY IDOCK:   -2.55 KCAL/MOL
REMARK 922        TOTAL FREE ENERGY PREDICTED BY IDOCK:   -6.03 KCAL/MOL
REMARK 923 INTER-LIGAND FREE ENERGY PREDICTED BY IDOCK:   -5.14 KCAL/MOL
REMARK 924 INTRA-LIGAND FREE ENERGY PREDICTED BY IDOCK:   -0.89 KCAL/MOL
REMARK 927      BINDING AFFINITY PREDICTED BY RF-SCORE:    0.00 PKD
ROOT
HETATM    1  O   UNL     1      -8.129  15.150  69.197  1.00  0.00    -0.185 OA 
HETATM    2  C   UNL     1      -9.425  15.688  69.089  1.00  0.00    -0.256 C  
HETATM    3  H   UNL     1      -7.507  15.861  69.295  1.00  0.00     0.000 HD 
ENDROOT
BRANCH   2   4
HETATM    4  N   UNL     1     -10.363  14.616  68.940  1.00  0.00    -0.241 N  
HETATM    5  C   UNL     1     -10.089  13.520  68.032  1.00  0.00    -0.244 C  
HETATM    6  O   UNL     1     -12.223  15.893  69.498  1.00  0.00    -0.294 OA 
HETATM    7  C   UNL     1     -11.503  13.319  67.443  1.00  0.00    -0.332 C  
HETATM    8  N   UNL     1     -12.382  14.036  68.195  1.00  0.00    -0.138 NA 
HETATM    9  O   UNL     1     -11.831  12.594  66.516  1.00  0.00    -0.396 OA 
HETATM   10  C   UNL     1     -11.712  14.921  68.965  1.00  0.00    -0.319 C  
BRANCH   5  11
HETATM   11  N   UNL     1      -9.686  12.337  68.750  1.00  0.00    -0.411 N  
HETATM   12  H   UNL     1     -10.377  11.818  69.292  1.00  0.00     0.000 HD 
BRANCH  11  13
HETATM   13  C   UNL     1      -8.394  11.900  68.714  1.00  0.00     0.020 C  
HETATM   14  O   UNL     1      -7.536  12.377  67.984  1.00  0.00    -0.094 OA 
BRANCH  13  15
HETATM   15  N   UNL     1      -8.146  10.924  69.643  1.00  0.00    -0.362 N  
HETATM   16  H   UNL     1      -8.918  10.509  70.164  1.00  0.00     0.000 HD 
BRANCH  15  17
HETATM   17  C   UNL     1      -6.803  10.487  69.881  1.00  0.00    -0.149 C  
BRANCH  17  18
HETATM   18  N   UNL     1      -6.756   9.232  70.584  1.00  0.00    -0.074 N  
HETATM   19  H   UNL     1      -6.182   9.132  71.422  1.00  0.00     0.000 HD 
BRANCH  18  20
HETATM   20  C   UNL     1      -7.489   8.172  70.119  1.00  0.00    -0.061 C  
HETATM   21  O   UNL     1      -7.359   7.693  69.000  1.00  0.00    -0.082 OA 
BRANCH  20  22
HETATM   22  N   UNL     1      -8.378   7.696  71.053  1.00  0.00    -0.110 N  
HETATM   23  H   UNL     1      -8.338   7.984  72.031  1.00  0.00     0.000 HD 
BRANCH  22  24
HETATM   24  C   UNL     1      -9.368   6.771  70.574  1.00  0.00    -0.162 C  
HETATM   25  N   UNL     1     -10.233   7.246  69.522  1.00  0.00    -0.192 N  
HETATM   26  O   UNL     1      -7.760   4.934  70.070  1.00  0.00    -0.058 OA 
HETATM   27  C   UNL     1     -10.525   6.239  68.623  1.00  0.00    -0.231 C  
HETATM   28  N   UNL     1      -9.683   5.201  68.853  1.00  0.00    -0.144 NA 
HETATM   29  O   UNL     1     -11.359   6.277  67.735  1.00  0.00    -0.250 OA 
HETATM   30  C   UNL     1      -8.798   5.535  69.836  1.00  0.00    -0.127 C  
BRANCH  25  31
HETATM   31  C   UNL     1     -10.928   8.493  69.570  1.00  0.00    -0.046 C  
HETATM   32  H   UNL     1     -10.878  10.162  68.596  1.00  0.00     0.000 HD 
HETATM   33  O   UNL     1     -10.416   9.332  68.564  1.00  0.00    -0.205 OA 
ENDBRANCH  25  31
ENDBRANCH  22  24
ENDBRANCH  20  22
ENDBRANCH  18  20
ENDBRANCH  17  18
ENDBRANCH  15  17
ENDBRANCH  13  15
ENDBRANCH  11  13
ENDBRANCH   5  11
ENDBRANCH   2   4
TORSDOF 10
ENDMDL
MODEL      470
REMARK 921   NORMALIZED FREE ENERGY PREDICTED BY IDOCK:   -2.55 KCAL/MOL
REMARK 922        TOTAL FREE ENERGY PREDICTED BY IDOCK:   -6.03 KCAL/MOL
REMARK 923 INTER-LIGAND FREE ENERGY PREDICTED BY IDOCK:   -6.81 KCAL/MOL
REMARK 924 INTRA-LIGAND FREE ENERGY PREDICTED BY IDOCK:    0.79 KCAL/MOL
REMARK 927      BINDING AFFINITY PREDICTED BY RF-SCORE:    0.00 PKD
ROOT
HETATM    1  O   UNL     1      -7.465  11.512  66.190  1.00  0.00    -0.368 OA 
HETATM    2  C   UNL     1      -8.223  12.613  66.628  1.00  0.00     0.140 C  
HETATM    3  H   UNL     1      -6.610  11.817  65.911  1.00  0.00     0.000 HD 
ENDROOT
BRANCH   2   4
HETATM    4  N   UNL     1      -9.513  12.153  67.048  1.00  0.00    -0.196 N  
HETATM    5  C   UNL     1      -9.632  11.027  67.952  1.00  0.00    -0.172 C  
HETATM    6  O   UNL     1     -10.622  12.886  65.141  1.00  0.00    -0.287 OA 
HETATM    7  C   UNL     1     -10.851  10.321  67.317  1.00  0.00    -0.250 C  
HETATM    8  N   UNL     1     -11.406  11.167  66.408  1.00  0.00    -0.222 NA 
HETATM    9  O   UNL     1     -11.316   9.228  67.605  1.00  0.00     0.196 OA 
HETATM   10  C   UNL     1     -10.543  12.168  66.125  1.00  0.00    -0.255 C  
BRANCH   5  11
HETATM   11  N   UNL     1      -9.962  11.463  69.287  1.00  0.00    -0.424 N  
HETATM   12  H   UNL     1      -9.231  11.843  69.886  1.00  0.00     0.000 HD 
BRANCH  11  13
HETATM   13  C   UNL     1     -11.240  11.372  69.758  1.00  0.00    -0.192 C  
HETATM   14  O   UNL     1     -11.807  10.312  69.984  1.00  0.00    -0.256 OA 
BRANCH  13  15
HETATM   15  N   UNL     1     -11.785  12.601  70.026  1.00  0.00    -0.516 N  
HETATM   16  H   UNL     1     -12.219  12.780  70.931  1.00  0.00     0.000 HD 
BRANCH  15  17
HETATM   17  C   UNL     1     -11.745  13.632  69.032  1.00  0.00    -0.333 C  
BRANCH  17  18
HETATM   18  N   UNL     1     -11.368  14.906  69.586  1.00  0.00    -0.268 N  
HETATM   19  H   UNL     1     -11.282  15.023  70.596  1.00  0.00     0.000 HD 
BRANCH  18  20
HETATM   20  C   UNL     1     -11.124  15.960  68.746  1.00  0.00    -0.328 C  
HETATM   21  O   UNL     1     -11.416  15.966  67.557  1.00  0.00    -0.173 OA 
BRANCH  20  22
HETATM   22  N   UNL     1     -10.526  17.018  69.389  1.00  0.00    -0.304 N  
HETATM   23  H   UNL     1     -10.753  17.261  70.353  1.00  0.00     0.000 HD 
BRANCH  22  24
HETATM   24  C   UNL     1      -9.563  17.763  68.624  1.00  0.00    -0.322 C  
HETATM   25  N   UNL     1      -8.664  16.992  67.801  1.00  0.00    -0.219 N  
HETATM   26  O   UNL     1     -11.228  19.251  67.518  1.00  0.00    -0.326 OA 
HETATM   27  C   UNL     1      -8.394  17.641  66.613  1.00  0.00    -0.260 C  
HETATM   28  N   UNL     1      -9.278  18.661  66.471  1.00  0.00    -0.317 NA 
HETATM   29  O   UNL     1      -7.545  17.336  65.794  1.00  0.00    -0.440 OA 
HETATM   30  C   UNL     1     -10.165  18.649  67.507  1.00  0.00    -0.386 C  
BRANCH  25  31
HETATM   31  C   UNL     1      -7.925  15.866  68.275  1.00  0.00    -0.139 C  
HETATM   32  H   UNL     1      -6.540  15.553  69.588  1.00  0.00     0.000 HD 
HETATM   33  O   UNL     1      -7.032  16.302  69.272  1.00  0.00    -0.199 OA 
ENDBRANCH  25  31
ENDBRANCH  22  24
ENDBRANCH  20  22
ENDBRANCH  18  20
ENDBRANCH  17  18
ENDBRANCH  15  17
ENDBRANCH  13  15
ENDBRANCH  11  13
ENDBRANCH   5  11
ENDBRANCH   2   4
TORSDOF 10
ENDMDL
MODEL      471
REMARK 921   NORMALIZED FREE ENERGY PREDICTED BY IDOCK:   -2.54 KCAL/MOL
REMARK 922        TOTAL FREE ENERGY PREDICTED BY IDOCK:   -6.01 KCAL/MOL
REMARK 923 INTER-LIGAND FREE ENERGY PREDICTED BY IDOCK:   -4.96 KCAL/MOL
REMARK 924 INTRA-LIGAND FREE ENERGY PREDICTED BY IDOCK:   -1.05 KCAL/MOL
REMARK 927      BINDING AFFINITY PREDICTED BY RF-SCORE:    0.00 PKD
ROOT
HETATM    1  O   UNL     1      -9.636   8.850  65.342  1.00  0.00    -0.454 OA 
HETATM    2  C   UNL     1      -9.976   9.613  66.475  1.00  0.00    -0.246 C  
HETATM    3  H   UNL     1      -9.706   9.397  64.569  1.00  0.00     0.000 HD 
ENDROOT
BRANCH   2   4
HETATM    4  N   UNL     1      -9.871   8.787  67.641  1.00  0.00    -0.169 N  
HETATM    5  C   UNL     1     -10.075   7.356  67.548  1.00  0.00    -0.192 C  
HETATM    6  O   UNL     1     -10.474  10.464  69.133  1.00  0.00    -0.199 OA 
HETATM    7  C   UNL     1     -10.866   7.126  68.856  1.00  0.00    -0.129 C  
HETATM    8  N   UNL     1     -10.787   8.260  69.603  1.00  0.00    -0.197 NA 
HETATM    9  O   UNL     1     -11.416   6.100  69.228  1.00  0.00    -0.404 OA 
HETATM   10  C   UNL     1     -10.351   9.286  68.839  1.00  0.00    -0.214 C  
BRANCH   5  11
HETATM   11  N   UNL     1      -8.822   6.646  67.605  1.00  0.00    -0.118 N  
HETATM   12  H   UNL     1      -7.962   7.121  67.334  1.00  0.00     0.000 HD 
BRANCH  11  13
HETATM   13  C   UNL     1      -8.770   5.346  68.019  1.00  0.00    -0.106 C  
HETATM   14  O   UNL     1      -9.236   4.411  67.381  1.00  0.00    -0.125 OA 
BRANCH  13  15
HETATM   15  N   UNL     1      -8.069   5.197  69.187  1.00  0.00    -0.084 N  
HETATM   16  H   UNL     1      -8.064   5.947  69.878  1.00  0.00     0.000 HD 
BRANCH  15  17
HETATM   17  C   UNL     1      -7.343   3.987  69.436  1.00  0.00    -0.053 C  
BRANCH  17  18
HETATM   18  N   UNL     1      -6.527   4.077  70.618  1.00  0.00    -0.030 N  
HETATM   19  H   UNL     1      -5.511   4.011  70.549  1.00  0.00     0.000 HD 
BRANCH  18  20
HETATM   20  C   UNL     1      -7.127   4.251  71.838  1.00  0.00    -0.047 C  
HETATM   21  O   UNL     1      -7.186   3.382  72.698  1.00  0.00    -0.045 OA 
BRANCH  20  22
HETATM   22  N   UNL     1      -7.643   5.515  71.995  1.00  0.00    -0.098 N  
HETATM   23  H   UNL     1      -7.202   6.334  71.576  1.00  0.00     0.000 HD 
BRANCH  22  24
HETATM   24  C   UNL     1      -8.841   5.618  72.783  1.00  0.00    -0.122 C  
HETATM   25  N   UNL     1      -9.365   6.947  72.983  1.00  0.00    -0.138 N  
HETATM   26  O   UNL     1     -10.163   3.998  71.427  1.00  0.00    -0.125 OA 
HETATM   27  C   UNL     1     -10.745   6.945  72.981  1.00  0.00    -0.297 C  
HETATM   28  N   UNL     1     -11.172   5.747  72.508  1.00  0.00    -0.283 NA 
HETATM   29  O   UNL     1     -11.474   7.869  73.297  1.00  0.00    -0.290 OA 
HETATM   30  C   UNL     1     -10.100   4.991  72.135  1.00  0.00    -0.196 C  
BRANCH  25  31
HETATM   31  C   UNL     1      -8.573   8.052  73.423  1.00  0.00    -0.246 C  
HETATM   32  H   UNL     1      -7.554   9.464  72.584  1.00  0.00     0.000 HD 
HETATM   33  O   UNL     1      -8.081   8.729  72.292  1.00  0.00    -0.356 OA 
ENDBRANCH  25  31
ENDBRANCH  22  24
ENDBRANCH  20  22
ENDBRANCH  18  20
ENDBRANCH  17  18
ENDBRANCH  15  17
ENDBRANCH  13  15
ENDBRANCH  11  13
ENDBRANCH   5  11
ENDBRANCH   2   4
TORSDOF 10
ENDMDL
MODEL      472
REMARK 921   NORMALIZED FREE ENERGY PREDICTED BY IDOCK:   -2.53 KCAL/MOL
REMARK 922        TOTAL FREE ENERGY PREDICTED BY IDOCK:   -6.00 KCAL/MOL
REMARK 923 INTER-LIGAND FREE ENERGY PREDICTED BY IDOCK:   -4.78 KCAL/MOL
REMARK 924 INTRA-LIGAND FREE ENERGY PREDICTED BY IDOCK:   -1.22 KCAL/MOL
REMARK 927      BINDING AFFINITY PREDICTED BY RF-SCORE:    0.00 PKD
ROOT
HETATM    1  O   UNL     1     -10.327   6.857  66.430  1.00  0.00    -0.462 OA 
HETATM    2  C   UNL     1     -10.229   8.244  66.647  1.00  0.00    -0.263 C  
HETATM    3  H   UNL     1     -11.060   6.687  65.850  1.00  0.00     0.000 HD 
ENDROOT
BRANCH   2   4
HETATM    4  N   UNL     1      -9.125   8.501  67.523  1.00  0.00    -0.134 N  
HETATM    5  C   UNL     1      -7.813   8.798  66.983  1.00  0.00    -0.095 C  
HETATM    6  O   UNL     1      -9.956   7.224  69.279  1.00  0.00    -0.165 OA 
HETATM    7  C   UNL     1      -6.942   8.001  67.981  1.00  0.00    -0.074 C  
HETATM    8  N   UNL     1      -7.731   7.621  69.023  1.00  0.00    -0.114 NA 
HETATM    9  O   UNL     1      -5.740   7.792  67.923  1.00  0.00    -0.034 OA 
HETATM   10  C   UNL     1      -9.032   7.763  68.690  1.00  0.00    -0.133 C  
BRANCH   5  11
HETATM   11  N   UNL     1      -7.512  10.204  67.088  1.00  0.00    -0.091 N  
HETATM   12  H   UNL     1      -8.139  10.815  67.611  1.00  0.00     0.000 HD 
BRANCH  11  13
HETATM   13  C   UNL     1      -6.400  10.729  66.497  1.00  0.00    -0.115 C  
HETATM   14  O   UNL     1      -6.004  10.404  65.386  1.00  0.00    -0.108 OA 
BRANCH  13  15
HETATM   15  N   UNL     1      -5.825  11.717  67.252  1.00  0.00    -0.103 N  
HETATM   16  H   UNL     1      -5.334  12.487  66.797  1.00  0.00     0.000 HD 
BRANCH  15  17
HETATM   17  C   UNL     1      -5.914  11.668  68.681  1.00  0.00    -0.050 C  
BRANCH  17  18
HETATM   18  N   UNL     1      -6.989  12.480  69.188  1.00  0.00    -0.249 N  
HETATM   19  H   UNL     1      -7.703  12.072  69.791  1.00  0.00     0.000 HD 
BRANCH  18  20
HETATM   20  C   UNL     1      -7.046  13.807  68.852  1.00  0.00    -0.107 C  
HETATM   21  O   UNL     1      -6.719  14.715  69.605  1.00  0.00    -0.143 OA 
BRANCH  20  22
HETATM   22  N   UNL     1      -7.499  14.007  67.569  1.00  0.00    -0.183 N  
HETATM   23  H   UNL     1      -6.900  13.860  66.757  1.00  0.00     0.000 HD 
BRANCH  22  24
HETATM   24  C   UNL     1      -8.865  14.435  67.438  1.00  0.00    -0.203 C  
HETATM   25  N   UNL     1      -9.072  15.798  67.014  1.00  0.00    -0.209 N  
HETATM   26  O   UNL     1      -9.554  12.584  65.917  1.00  0.00    -0.240 OA 
HETATM   27  C   UNL     1     -10.169  15.900  66.182  1.00  0.00    -0.324 C  
HETATM   28  N   UNL     1     -10.535  14.651  65.799  1.00  0.00    -0.306 NA 
HETATM   29  O   UNL     1     -10.702  16.930  65.804  1.00  0.00    -0.286 OA 
HETATM   30  C   UNL     1      -9.658  13.738  66.306  1.00  0.00    -0.249 C  
BRANCH  25  31
HETATM   31  C   UNL     1      -8.420  16.920  67.609  1.00  0.00    -0.200 C  
HETATM   32  H   UNL     1      -6.624  17.637  67.648  1.00  0.00     0.000 HD 
HETATM   33  O   UNL     1      -7.059  16.890  67.252  1.00  0.00    -0.142 OA 
ENDBRANCH  25  31
ENDBRANCH  22  24
ENDBRANCH  20  22
ENDBRANCH  18  20
ENDBRANCH  17  18
ENDBRANCH  15  17
ENDBRANCH  13  15
ENDBRANCH  11  13
ENDBRANCH   5  11
ENDBRANCH   2   4
TORSDOF 10
ENDMDL
MODEL      473
REMARK 921   NORMALIZED FREE ENERGY PREDICTED BY IDOCK:   -2.47 KCAL/MOL
REMARK 922        TOTAL FREE ENERGY PREDICTED BY IDOCK:   -5.92 KCAL/MOL
REMARK 923 INTER-LIGAND FREE ENERGY PREDICTED BY IDOCK:   -4.95 KCAL/MOL
REMARK 924 INTRA-LIGAND FREE ENERGY PREDICTED BY IDOCK:   -0.97 KCAL/MOL
REMARK 927      BINDING AFFINITY PREDICTED BY RF-SCORE:    0.00 PKD
ROOT
HETATM    1  O   UNL     1     -10.170   9.544  70.979  1.00  0.00    -0.297 OA 
HETATM    2  C   UNL     1     -10.497   9.341  69.626  1.00  0.00    -0.224 C  
HETATM    3  H   UNL     1      -9.720   8.774  71.307  1.00  0.00     0.000 HD 
ENDROOT
BRANCH   2   4
HETATM    4  N   UNL     1     -11.176  10.502  69.132  1.00  0.00    -0.242 N  
HETATM    5  C   UNL     1     -10.429  11.594  68.542  1.00  0.00    -0.217 C  
HETATM    6  O   UNL     1     -12.986  10.310  70.578  1.00  0.00    -0.320 OA 
HETATM    7  C   UNL     1     -11.217  12.787  69.128  1.00  0.00    -0.237 C  
HETATM    8  N   UNL     1     -12.361  12.307  69.685  1.00  0.00    -0.072 NA 
HETATM    9  O   UNL     1     -10.937  13.975  69.059  1.00  0.00    -0.252 OA 
HETATM   10  C   UNL     1     -12.271  10.967  69.839  1.00  0.00    -0.336 C  
BRANCH   5  11
HETATM   11  N   UNL     1     -10.548  11.590  67.105  1.00  0.00    -0.226 N  
HETATM   12  H   UNL     1     -11.283  11.040  66.663  1.00  0.00     0.000 HD 
BRANCH  11  13
HETATM   13  C   UNL     1      -9.688  12.312  66.328  1.00  0.00    -0.244 C  
HETATM   14  O   UNL     1      -8.865  13.098  66.776  1.00  0.00    -0.207 OA 
BRANCH  13  15
HETATM   15  N   UNL     1      -9.797  11.997  64.999  1.00  0.00    -0.366 N  
HETATM   16  H   UNL     1     -10.050  12.718  64.323  1.00  0.00     0.000 HD 
BRANCH  15  17
HETATM   17  C   UNL     1      -9.556  10.655  64.559  1.00  0.00    -0.286 C  
BRANCH  17  18
HETATM   18  N   UNL     1      -8.239  10.494  64.002  1.00  0.00    -0.310 N  
HETATM   19  H   UNL     1      -7.699  11.310  63.714  1.00  0.00     0.000 HD 
BRANCH  18  20
HETATM   20  C   UNL     1      -7.717   9.235  63.861  1.00  0.00    -0.117 C  
HETATM   21  O   UNL     1      -6.534   9.008  63.648  1.00  0.00    -0.088 OA 
BRANCH  20  22
HETATM   22  N   UNL     1      -8.670   8.252  63.999  1.00  0.00    -0.379 N  
HETATM   23  H   UNL     1      -9.557   8.288  63.498  1.00  0.00     0.000 HD 
BRANCH  22  24
HETATM   24  C   UNL     1      -8.342   7.171  64.888  1.00  0.00    -0.013 C  
HETATM   25  N   UNL     1      -7.187   6.381  64.539  1.00  0.00    -0.057 N  
HETATM   26  O   UNL     1      -8.262   8.569  66.950  1.00  0.00    -0.104 OA 
HETATM   27  C   UNL     1      -6.490   5.991  65.664  1.00  0.00    -0.043 C  
HETATM   28  N   UNL     1      -6.947   6.708  66.722  1.00  0.00    -0.065 NA 
HETATM   29  O   UNL     1      -5.581   5.180  65.712  1.00  0.00    -0.013 OA 
HETATM   30  C   UNL     1      -7.879   7.609  66.299  1.00  0.00    -0.091 C  
BRANCH  25  31
HETATM   31  C   UNL     1      -6.968   5.830  63.239  1.00  0.00    -0.041 C  
HETATM   32  H   UNL     1      -8.070   5.128  61.813  1.00  0.00     0.000 HD 
HETATM   33  O   UNL     1      -8.214   5.495  62.678  1.00  0.00    -0.098 OA 
ENDBRANCH  25  31
ENDBRANCH  22  24
ENDBRANCH  20  22
ENDBRANCH  18  20
ENDBRANCH  17  18
ENDBRANCH  15  17
ENDBRANCH  13  15
ENDBRANCH  11  13
ENDBRANCH   5  11
ENDBRANCH   2   4
TORSDOF 10
ENDMDL
MODEL      474
REMARK 921   NORMALIZED FREE ENERGY PREDICTED BY IDOCK:   -2.47 KCAL/MOL
REMARK 922        TOTAL FREE ENERGY PREDICTED BY IDOCK:   -5.91 KCAL/MOL
REMARK 923 INTER-LIGAND FREE ENERGY PREDICTED BY IDOCK:   -6.66 KCAL/MOL
REMARK 924 INTRA-LIGAND FREE ENERGY PREDICTED BY IDOCK:    0.75 KCAL/MOL
REMARK 927      BINDING AFFINITY PREDICTED BY RF-SCORE:    0.00 PKD
ROOT
HETATM    1  O   UNL     1      -6.728  11.008  65.634  1.00  0.00    -0.352 OA 
HETATM    2  C   UNL     1      -7.893  11.333  66.355  1.00  0.00    -0.109 C  
HETATM    3  H   UNL     1      -6.329  11.808  65.316  1.00  0.00     0.000 HD 
ENDROOT
BRANCH   2   4
HETATM    4  N   UNL     1      -8.495  10.126  66.835  1.00  0.00    -0.125 N  
HETATM    5  C   UNL     1      -7.744   9.212  67.671  1.00  0.00    -0.089 C  
HETATM    6  O   UNL     1      -9.986   9.923  65.063  1.00  0.00    -0.316 OA 
HETATM    7  C   UNL     1      -8.230   7.869  67.080  1.00  0.00    -0.118 C  
HETATM    8  N   UNL     1      -9.293   8.123  66.269  1.00  0.00    -0.203 NA 
HETATM    9  O   UNL     1      -7.815   6.747  67.329  1.00  0.00    -0.106 OA 
HETATM   10  C   UNL     1      -9.353   9.444  65.990  1.00  0.00    -0.220 C  
BRANCH   5  11
HETATM   11  N   UNL     1      -8.149   9.313  69.051  1.00  0.00    -0.104 N  
HETATM   12  H   UNL     1      -7.577   9.845  69.705  1.00  0.00     0.000 HD 
BRANCH  11  13
HETATM   13  C   UNL     1      -9.290   8.706  69.493  1.00  0.00    -0.153 C  
HETATM   14  O   UNL     1      -9.493   7.502  69.414  1.00  0.00    -0.156 OA 
BRANCH  13  15
HETATM   15  N   UNL     1     -10.144   9.584  70.106  1.00  0.00    -0.231 N  
HETATM   16  H   UNL     1     -10.069   9.752  71.110  1.00  0.00     0.000 HD 
BRANCH  15  17
HETATM   17  C   UNL     1     -11.142  10.267  69.337  1.00  0.00    -0.252 C  
BRANCH  17  18
HETATM   18  N   UNL     1     -10.781  11.634  69.069  1.00  0.00    -0.295 N  
HETATM   19  H   UNL     1     -10.048  12.090  69.615  1.00  0.00     0.000 HD 
BRANCH  18  20
HETATM   20  C   UNL     1     -11.428  12.319  68.075  1.00  0.00    -0.321 C  
HETATM   21  O   UNL     1     -11.580  11.889  66.939  1.00  0.00    -0.465 OA 
BRANCH  20  22
HETATM   22  N   UNL     1     -11.901  13.539  68.498  1.00  0.00    -0.348 N  
HETATM   23  H   UNL     1     -12.420  13.643  69.370  1.00  0.00     0.000 HD 
BRANCH  22  24
HETATM   24  C   UNL     1     -11.621  14.659  67.642  1.00  0.00    -0.361 C  
HETATM   25  N   UNL     1     -10.234  14.886  67.316  1.00  0.00    -0.240 N  
HETATM   26  O   UNL     1     -13.185  13.975  65.827  1.00  0.00    -0.528 OA 
HETATM   27  C   UNL     1     -10.093  15.332  66.017  1.00  0.00    -0.318 C  
HETATM   28  N   UNL     1     -11.271  15.146  65.370  1.00  0.00    -0.350 NA 
HETATM   29  O   UNL     1      -9.079  15.775  65.506  1.00  0.00    -0.235 OA 
HETATM   30  C   UNL     1     -12.158  14.522  66.196  1.00  0.00    -0.286 C  
BRANCH  25  31
HETATM   31  C   UNL     1      -9.189  14.932  68.289  1.00  0.00    -0.187 C  
HETATM   32  H   UNL     1      -8.061  16.296  69.067  1.00  0.00     0.000 HD 
HETATM   33  O   UNL     1      -8.756  16.265  68.420  1.00  0.00    -0.190 OA 
ENDBRANCH  25  31
ENDBRANCH  22  24
ENDBRANCH  20  22
ENDBRANCH  18  20
ENDBRANCH  17  18
ENDBRANCH  15  17
ENDBRANCH  13  15
ENDBRANCH  11  13
ENDBRANCH   5  11
ENDBRANCH   2   4
TORSDOF 10
ENDMDL
MODEL      475
REMARK 921   NORMALIZED FREE ENERGY PREDICTED BY IDOCK:   -2.43 KCAL/MOL
REMARK 922        TOTAL FREE ENERGY PREDICTED BY IDOCK:   -5.85 KCAL/MOL
REMARK 923 INTER-LIGAND FREE ENERGY PREDICTED BY IDOCK:   -5.55 KCAL/MOL
REMARK 924 INTRA-LIGAND FREE ENERGY PREDICTED BY IDOCK:   -0.31 KCAL/MOL
REMARK 927      BINDING AFFINITY PREDICTED BY RF-SCORE:    0.00 PKD
ROOT
HETATM    1  O   UNL     1     -10.118  13.364  68.671  1.00  0.00    -0.304 OA 
HETATM    2  C   UNL     1     -10.647  13.592  67.387  1.00  0.00    -0.251 C  
HETATM    3  H   UNL     1     -10.120  14.182  69.155  1.00  0.00     0.000 HD 
ENDROOT
BRANCH   2   4
HETATM    4  N   UNL     1     -10.644  12.359  66.657  1.00  0.00    -0.228 N  
HETATM    5  C   UNL     1      -9.395  11.699  66.336  1.00  0.00    -0.213 C  
HETATM    6  O   UNL     1     -12.645  12.773  65.549  1.00  0.00    -0.611 OA 
HETATM    7  C   UNL     1      -9.721  11.225  64.901  1.00  0.00    -0.256 C  
HETATM    8  N   UNL     1     -11.055  11.391  64.693  1.00  0.00    -0.256 NA 
HETATM    9  O   UNL     1      -8.961  10.714  64.092  1.00  0.00    -0.194 OA 
HETATM   10  C   UNL     1     -11.572  12.199  65.644  1.00  0.00    -0.351 C  
BRANCH   5  11
HETATM   11  N   UNL     1      -9.173  10.558  67.188  1.00  0.00    -0.143 N  
HETATM   12  H   UNL     1      -8.265  10.432  67.634  1.00  0.00     0.000 HD 
BRANCH  11  13
HETATM   13  C   UNL     1     -10.163   9.643  67.406  1.00  0.00    -0.227 C  
HETATM   14  O   UNL     1     -10.366   8.677  66.684  1.00  0.00    -0.289 OA 
BRANCH  13  15
HETATM   15  N   UNL     1     -10.849   9.883  68.568  1.00  0.00    -0.316 N  
HETATM   16  H   UNL     1     -11.471  10.689  68.635  1.00  0.00     0.000 HD 
BRANCH  15  17
HETATM   17  C   UNL     1     -10.691   9.003  69.687  1.00  0.00    -0.219 C  
BRANCH  17  18
HETATM   18  N   UNL     1      -9.318   8.898  70.106  1.00  0.00    -0.170 N  
HETATM   19  H   UNL     1      -8.572   9.292  69.532  1.00  0.00     0.000 HD 
BRANCH  18  20
HETATM   20  C   UNL     1      -9.020   8.263  71.284  1.00  0.00    -0.160 C  
HETATM   21  O   UNL     1      -8.864   8.844  72.350  1.00  0.00    -0.396 OA 
BRANCH  20  22
HETATM   22  N   UNL     1      -8.928   6.899  71.138  1.00  0.00    -0.143 N  
HETATM   23  H   UNL     1      -9.493   6.258  71.696  1.00  0.00     0.000 HD 
BRANCH  22  24
HETATM   24  C   UNL     1      -7.992   6.428  70.154  1.00  0.00    -0.112 C  
HETATM   25  N   UNL     1      -8.473   6.348  68.797  1.00  0.00    -0.120 N  
HETATM   26  O   UNL     1      -6.211   8.082  70.702  1.00  0.00    -0.036 OA 
HETATM   27  C   UNL     1      -7.485   6.689  67.896  1.00  0.00    -0.098 C  
HETATM   28  N   UNL     1      -6.462   7.263  68.578  1.00  0.00    -0.039 NA 
HETATM   29  O   UNL     1      -7.525   6.551  66.685  1.00  0.00    -0.077 OA 
HETATM   30  C   UNL     1      -6.791   7.370  69.897  1.00  0.00    -0.055 C  
BRANCH  25  31
HETATM   31  C   UNL     1      -9.700   5.717  68.428  1.00  0.00    -0.128 C  
HETATM   32  H   UNL     1     -10.460   3.944  68.569  1.00  0.00     0.000 HD 
HETATM   33  O   UNL     1      -9.644   4.365  68.814  1.00  0.00    -0.152 OA 
ENDBRANCH  25  31
ENDBRANCH  22  24
ENDBRANCH  20  22
ENDBRANCH  18  20
ENDBRANCH  17  18
ENDBRANCH  15  17
ENDBRANCH  13  15
ENDBRANCH  11  13
ENDBRANCH   5  11
ENDBRANCH   2   4
TORSDOF 10
ENDMDL
MODEL      476
REMARK 921   NORMALIZED FREE ENERGY PREDICTED BY IDOCK:   -2.42 KCAL/MOL
REMARK 922        TOTAL FREE ENERGY PREDICTED BY IDOCK:   -5.83 KCAL/MOL
REMARK 923 INTER-LIGAND FREE ENERGY PREDICTED BY IDOCK:   -4.53 KCAL/MOL
REMARK 924 INTRA-LIGAND FREE ENERGY PREDICTED BY IDOCK:   -1.30 KCAL/MOL
REMARK 927      BINDING AFFINITY PREDICTED BY RF-SCORE:    0.00 PKD
ROOT
HETATM    1  O   UNL     1     -11.368   5.521  73.296  1.00  0.00    -0.444 OA 
HETATM    2  C   UNL     1     -10.047   5.233  72.907  1.00  0.00    -0.173 C  
HETATM    3  H   UNL     1     -11.701   4.799  73.815  1.00  0.00     0.000 HD 
ENDROOT
BRANCH   2   4
HETATM    4  N   UNL     1      -9.544   6.322  72.124  1.00  0.00    -0.151 N  
HETATM    5  C   UNL     1      -8.969   6.083  70.816  1.00  0.00    -0.149 C  
HETATM    6  O   UNL     1      -9.031   7.666  73.951  1.00  0.00    -0.236 OA 
HETATM    7  C   UNL     1      -7.785   7.074  70.874  1.00  0.00    -0.095 C  
HETATM    8  N   UNL     1      -7.960   7.881  71.956  1.00  0.00    -0.104 NA 
HETATM    9  O   UNL     1      -6.873   7.199  70.070  1.00  0.00    -0.053 OA 
HETATM   10  C   UNL     1      -8.888   7.349  72.781  1.00  0.00    -0.131 C  
BRANCH   5  11
HETATM   11  N   UNL     1      -9.879   6.471  69.768  1.00  0.00    -0.164 N  
HETATM   12  H   UNL     1     -10.385   7.353  69.841  1.00  0.00     0.000 HD 
BRANCH  11  13
HETATM   13  C   UNL     1     -10.074   5.673  68.677  1.00  0.00    -0.183 C  
HETATM   14  O   UNL     1      -9.737   4.498  68.626  1.00  0.00    -0.157 OA 
BRANCH  13  15
HETATM   15  N   UNL     1     -10.762   6.312  67.679  1.00  0.00    -0.277 N  
HETATM   16  H   UNL     1     -11.778   6.380  67.723  1.00  0.00     0.000 HD 
BRANCH  15  17
HETATM   17  C   UNL     1     -10.051   6.884  66.574  1.00  0.00    -0.070 C  
BRANCH  17  18
HETATM   18  N   UNL     1     -10.321   8.289  66.423  1.00  0.00    -0.419 N  
HETATM   19  H   UNL     1     -11.059   8.734  66.970  1.00  0.00     0.000 HD 
BRANCH  18  20
HETATM   20  C   UNL     1      -9.578   9.026  65.539  1.00  0.00    -0.096 C  
HETATM   21  O   UNL     1      -8.945   8.541  64.611  1.00  0.00     0.009 OA 
BRANCH  20  22
HETATM   22  N   UNL     1      -9.632  10.375  65.802  1.00  0.00    -0.201 N  
HETATM   23  H   UNL     1      -9.900  11.053  65.088  1.00  0.00     0.000 HD 
BRANCH  22  24
HETATM   24  C   UNL     1      -9.291  10.775  67.139  1.00  0.00    -0.155 C  
HETATM   25  N   UNL     1      -8.176  11.681  67.272  1.00  0.00    -0.152 N  
HETATM   26  O   UNL     1     -11.572  11.578  67.743  1.00  0.00    -0.421 OA 
HETATM   27  C   UNL     1      -8.390  12.589  68.290  1.00  0.00    -0.167 C  
HETATM   28  N   UNL     1      -9.695  12.525  68.655  1.00  0.00    -0.114 NA 
HETATM   29  O   UNL     1      -7.572  13.361  68.760  1.00  0.00    -0.113 OA 
HETATM   30  C   UNL     1     -10.356  11.645  67.849  1.00  0.00    -0.188 C  
BRANCH  25  31
HETATM   31  C   UNL     1      -6.910  11.476  66.645  1.00  0.00    -0.075 C  
HETATM   32  H   UNL     1      -5.255  10.583  67.092  1.00  0.00     0.000 HD 
HETATM   33  O   UNL     1      -6.097  10.719  67.509  1.00  0.00    -0.051 OA 
ENDBRANCH  25  31
ENDBRANCH  22  24
ENDBRANCH  20  22
ENDBRANCH  18  20
ENDBRANCH  17  18
ENDBRANCH  15  17
ENDBRANCH  13  15
ENDBRANCH  11  13
ENDBRANCH   5  11
ENDBRANCH   2   4
TORSDOF 10
ENDMDL
MODEL      477
REMARK 921   NORMALIZED FREE ENERGY PREDICTED BY IDOCK:   -2.31 KCAL/MOL
REMARK 922        TOTAL FREE ENERGY PREDICTED BY IDOCK:   -5.66 KCAL/MOL
REMARK 923 INTER-LIGAND FREE ENERGY PREDICTED BY IDOCK:   -4.85 KCAL/MOL
REMARK 924 INTRA-LIGAND FREE ENERGY PREDICTED BY IDOCK:   -0.82 KCAL/MOL
REMARK 927      BINDING AFFINITY PREDICTED BY RF-SCORE:    0.00 PKD
ROOT
HETATM    1  O   UNL     1      -7.940   4.179  69.476  1.00  0.00    -0.056 OA 
HETATM    2  C   UNL     1      -9.326   3.972  69.611  1.00  0.00    -0.173 C  
HETATM    3  H   UNL     1      -7.530   3.363  69.215  1.00  0.00     0.000 HD 
ENDROOT
BRANCH   2   4
HETATM    4  N   UNL     1      -9.945   5.202  70.006  1.00  0.00    -0.233 N  
HETATM    5  C   UNL     1     -10.260   5.452  71.397  1.00  0.00    -0.216 C  
HETATM    6  O   UNL     1     -10.999   5.563  67.966  1.00  0.00    -0.099 OA 
HETATM    7  C   UNL     1     -11.632   6.142  71.227  1.00  0.00    -0.205 C  
HETATM    8  N   UNL     1     -11.798   6.436  69.908  1.00  0.00    -0.271 NA 
HETATM    9  O   UNL     1     -12.425   6.457  72.101  1.00  0.00    -0.291 OA 
HETATM   10  C   UNL     1     -10.900   5.749  69.168  1.00  0.00    -0.285 C  
BRANCH   5  11
HETATM   11  N   UNL     1      -9.321   6.374  71.987  1.00  0.00    -0.151 N  
HETATM   12  H   UNL     1      -8.442   6.022  72.367  1.00  0.00     0.000 HD 
BRANCH  11  13
HETATM   13  C   UNL     1      -9.592   7.710  72.044  1.00  0.00    -0.157 C  
HETATM   14  O   UNL     1      -9.901   8.298  73.072  1.00  0.00    -0.266 OA 
BRANCH  13  15
HETATM   15  N   UNL     1      -9.400   8.333  70.839  1.00  0.00    -0.154 N  
HETATM   16  H   UNL     1      -9.881   7.994  70.007  1.00  0.00     0.000 HD 
BRANCH  15  17
HETATM   17  C   UNL     1      -8.521   9.461  70.749  1.00  0.00    -0.135 C  
BRANCH  17  18
HETATM   18  N   UNL     1      -7.380   9.196  69.913  1.00  0.00    -0.058 N  
HETATM   19  H   UNL     1      -6.447   9.487  70.207  1.00  0.00     0.000 HD 
BRANCH  18  20
HETATM   20  C   UNL     1      -7.556   8.549  68.719  1.00  0.00    -0.097 C  
HETATM   21  O   UNL     1      -7.970   7.402  68.620  1.00  0.00    -0.119 OA 
BRANCH  20  22
HETATM   22  N   UNL     1      -7.227   9.336  67.640  1.00  0.00    -0.083 N  
HETATM   23  H   UNL     1      -6.339   9.233  67.148  1.00  0.00     0.000 HD 
BRANCH  22  24
HETATM   24  C   UNL     1      -8.206  10.312  67.245  1.00  0.00    -0.121 C  
HETATM   25  N   UNL     1      -9.587   9.906  67.333  1.00  0.00    -0.152 N  
HETATM   26  O   UNL     1      -7.383  12.109  68.762  1.00  0.00    -0.109 OA 
HETATM   27  C   UNL     1     -10.391  10.955  67.734  1.00  0.00    -0.187 C  
HETATM   28  N   UNL     1      -9.596  11.954  68.191  1.00  0.00    -0.190 NA 
HETATM   29  O   UNL     1     -11.610  10.979  67.732  1.00  0.00    -0.510 OA 
HETATM   30  C   UNL     1      -8.292  11.554  68.165  1.00  0.00    -0.152 C  
BRANCH  25  31
HETATM   31  C   UNL     1     -10.089   8.683  66.792  1.00  0.00    -0.296 C  
HETATM   32  H   UNL     1      -9.839   7.664  65.168  1.00  0.00     0.000 HD 
HETATM   33  O   UNL     1      -9.505   8.478  65.528  1.00  0.00    -0.081 OA 
ENDBRANCH  25  31
ENDBRANCH  22  24
ENDBRANCH  20  22
ENDBRANCH  18  20
ENDBRANCH  17  18
ENDBRANCH  15  17
ENDBRANCH  13  15
ENDBRANCH  11  13
ENDBRANCH   5  11
ENDBRANCH   2   4
TORSDOF 10
ENDMDL
MODEL      478
REMARK 921   NORMALIZED FREE ENERGY PREDICTED BY IDOCK:   -2.28 KCAL/MOL
REMARK 922        TOTAL FREE ENERGY PREDICTED BY IDOCK:   -5.62 KCAL/MOL
REMARK 923 INTER-LIGAND FREE ENERGY PREDICTED BY IDOCK:   -5.20 KCAL/MOL
REMARK 924 INTRA-LIGAND FREE ENERGY PREDICTED BY IDOCK:   -0.42 KCAL/MOL
REMARK 927      BINDING AFFINITY PREDICTED BY RF-SCORE:    0.00 PKD
ROOT
HETATM    1  O   UNL     1     -10.096   5.056  69.578  1.00  0.00    -0.212 OA 
HETATM    2  C   UNL     1      -9.482   6.319  69.670  1.00  0.00    -0.146 C  
HETATM    3  H   UNL     1     -10.309   4.751  70.452  1.00  0.00     0.000 HD 
ENDROOT
BRANCH   2   4
HETATM    4  N   UNL     1      -9.161   6.779  68.352  1.00  0.00    -0.125 N  
HETATM    5  C   UNL     1      -9.891   6.282  67.203  1.00  0.00    -0.142 C  
HETATM    6  O   UNL     1      -6.939   7.254  68.838  1.00  0.00    -0.073 OA 
HETATM    7  C   UNL     1      -8.722   6.141  66.202  1.00  0.00    -0.148 C  
HETATM    8  N   UNL     1      -7.636   6.769  66.728  1.00  0.00    -0.089 NA 
HETATM    9  O   UNL     1      -8.746   5.633  65.091  1.00  0.00    -0.150 OA 
HETATM   10  C   UNL     1      -7.831   7.000  68.045  1.00  0.00    -0.114 C  
BRANCH   5  11
HETATM   11  N   UNL     1     -10.832   7.261  66.720  1.00  0.00    -0.528 N  
HETATM   12  H   UNL     1     -11.588   6.970  66.102  1.00  0.00     0.000 HD 
BRANCH  11  13
HETATM   13  C   UNL     1     -10.725   8.574  67.079  1.00  0.00    -0.120 C  
HETATM   14  O   UNL     1     -10.886   8.981  68.221  1.00  0.00    -0.142 OA 
BRANCH  13  15
HETATM   15  N   UNL     1     -10.338   9.370  66.034  1.00  0.00    -0.200 N  
HETATM   16  H   UNL     1     -10.938   9.464  65.214  1.00  0.00     0.000 HD 
BRANCH  15  17
HETATM   17  C   UNL     1      -9.090  10.071  66.093  1.00  0.00    -0.156 C  
BRANCH  17  18
HETATM   18  N   UNL     1      -8.913  10.762  67.343  1.00  0.00    -0.139 N  
HETATM   19  H   UNL     1      -8.406  10.319  68.109  1.00  0.00     0.000 HD 
BRANCH  18  20
HETATM   20  C   UNL     1      -9.430  12.022  67.495  1.00  0.00    -0.178 C  
HETATM   21  O   UNL     1     -10.338  12.297  68.269  1.00  0.00    -0.209 OA 
BRANCH  20  22
HETATM   22  N   UNL     1      -8.808  12.947  66.690  1.00  0.00    -0.401 N  
HETATM   23  H   UNL     1      -8.502  12.719  65.744  1.00  0.00     0.000 HD 
BRANCH  22  24
HETATM   24  C   UNL     1      -8.614  14.253  67.258  1.00  0.00    -0.215 C  
HETATM   25  N   UNL     1      -9.799  15.055  67.442  1.00  0.00    -0.224 N  
HETATM   26  O   UNL     1      -7.375  13.462  69.270  1.00  0.00     0.022 OA 
HETATM   27  C   UNL     1      -9.720  15.805  68.598  1.00  0.00    -0.205 C  
HETATM   28  N   UNL     1      -8.684  15.341  69.340  1.00  0.00    -0.235 NA 
HETATM   29  O   UNL     1     -10.473  16.702  68.936  1.00  0.00    -0.279 OA 
HETATM   30  C   UNL     1      -8.127  14.257  68.727  1.00  0.00    -0.109 C  
BRANCH  25  31
HETATM   31  C   UNL     1     -10.776  15.269  66.422  1.00  0.00    -0.318 C  
HETATM   32  H   UNL     1     -12.407  14.407  65.843  1.00  0.00     0.000 HD 
HETATM   33  O   UNL     1     -11.757  14.265  66.521  1.00  0.00    -0.363 OA 
ENDBRANCH  25  31
ENDBRANCH  22  24
ENDBRANCH  20  22
ENDBRANCH  18  20
ENDBRANCH  17  18
ENDBRANCH  15  17
ENDBRANCH  13  15
ENDBRANCH  11  13
ENDBRANCH   5  11
ENDBRANCH   2   4
TORSDOF 10
ENDMDL
MODEL      479
REMARK 921   NORMALIZED FREE ENERGY PREDICTED BY IDOCK:   -2.18 KCAL/MOL
REMARK 922        TOTAL FREE ENERGY PREDICTED BY IDOCK:   -5.45 KCAL/MOL
REMARK 923 INTER-LIGAND FREE ENERGY PREDICTED BY IDOCK:   -4.64 KCAL/MOL
REMARK 924 INTRA-LIGAND FREE ENERGY PREDICTED BY IDOCK:   -0.81 KCAL/MOL
REMARK 927      BINDING AFFINITY PREDICTED BY RF-SCORE:    0.00 PKD
ROOT
HETATM    1  O   UNL     1     -10.646   6.225  70.829  1.00  0.00    -0.221 OA 
HETATM    2  C   UNL     1     -11.408   5.872  71.959  1.00  0.00    -0.267 C  
HETATM    3  H   UNL     1     -11.233   6.501  70.135  1.00  0.00     0.000 HD 
ENDROOT
BRANCH   2   4
HETATM    4  N   UNL     1     -10.522   5.455  73.005  1.00  0.00    -0.196 N  
HETATM    5  C   UNL     1      -9.114   5.790  72.952  1.00  0.00    -0.122 C  
HETATM    6  O   UNL     1     -11.770   3.584  73.594  1.00  0.00    -0.097 OA 
HETATM    7  C   UNL     1      -8.517   4.465  73.478  1.00  0.00    -0.097 C  
HETATM    8  N   UNL     1      -9.533   3.714  73.984  1.00  0.00    -0.092 NA 
HETATM    9  O   UNL     1      -7.341   4.139  73.522  1.00  0.00    -0.071 OA 
HETATM   10  C   UNL     1     -10.721   4.206  73.568  1.00  0.00    -0.227 C  
BRANCH   5  11
HETATM   11  N   UNL     1      -8.799   6.862  73.864  1.00  0.00    -0.153 N  
HETATM   12  H   UNL     1      -8.862   6.702  74.869  1.00  0.00     0.000 HD 
BRANCH  11  13
HETATM   13  C   UNL     1      -8.418   8.088  73.401  1.00  0.00    -0.235 C  
HETATM   14  O   UNL     1      -7.896   8.946  74.099  1.00  0.00    -0.381 OA 
BRANCH  13  15
HETATM   15  N   UNL     1      -8.613   8.219  72.051  1.00  0.00    -0.161 N  
HETATM   16  H   UNL     1      -8.085   7.637  71.401  1.00  0.00     0.000 HD 
BRANCH  15  17
HETATM   17  C   UNL     1      -9.558   9.175  71.554  1.00  0.00    -0.208 C  
BRANCH  17  18
HETATM   18  N   UNL     1      -9.104   9.809  70.344  1.00  0.00    -0.351 N  
HETATM   19  H   UNL     1      -8.168  10.211  70.293  1.00  0.00     0.000 HD 
BRANCH  18  20
HETATM   20  C   UNL     1      -9.940   9.868  69.260  1.00  0.00    -0.207 C  
HETATM   21  O   UNL     1     -10.311  10.913  68.742  1.00  0.00    -0.181 OA 
BRANCH  20  22
HETATM   22  N   UNL     1     -10.307   8.621  68.810  1.00  0.00    -0.211 N  
HETATM   23  H   UNL     1     -11.130   8.139  69.172  1.00  0.00     0.000 HD 
BRANCH  22  24
HETATM   24  C   UNL     1      -9.466   8.038  67.802  1.00  0.00    -0.145 C  
HETATM   25  N   UNL     1      -9.195   8.852  66.643  1.00  0.00    -0.159 N  
HETATM   26  O   UNL     1      -7.589   7.482  69.345  1.00  0.00    -0.088 OA 
HETATM   27  C   UNL     1      -7.904   8.665  66.191  1.00  0.00    -0.098 C  
HETATM   28  N   UNL     1      -7.210   7.992  67.144  1.00  0.00    -0.085 NA 
HETATM   29  O   UNL     1      -7.435   9.069  65.142  1.00  0.00    -0.094 OA 
HETATM   30  C   UNL     1      -8.000   7.798  68.239  1.00  0.00    -0.122 C  
BRANCH  25  31
HETATM   31  C   UNL     1     -10.208   9.524  65.893  1.00  0.00    -0.115 C  
HETATM   32  H   UNL     1     -10.262  10.765  64.411  1.00  0.00     0.000 HD 
HETATM   33  O   UNL     1      -9.588  10.317  64.910  1.00  0.00    -0.253 OA 
ENDBRANCH  25  31
ENDBRANCH  22  24
ENDBRANCH  20  22
ENDBRANCH  18  20
ENDBRANCH  17  18
ENDBRANCH  15  17
ENDBRANCH  13  15
ENDBRANCH  11  13
ENDBRANCH   5  11
ENDBRANCH   2   4
TORSDOF 10
ENDMDL
MODEL      480
REMARK 921   NORMALIZED FREE ENERGY PREDICTED BY IDOCK:   -2.17 KCAL/MOL
REMARK 922        TOTAL FREE ENERGY PREDICTED BY IDOCK:   -5.44 KCAL/MOL
REMARK 923 INTER-LIGAND FREE ENERGY PREDICTED BY IDOCK:   -4.00 KCAL/MOL
REMARK 924 INTRA-LIGAND FREE ENERGY PREDICTED BY IDOCK:   -1.44 KCAL/MOL
REMARK 927      BINDING AFFINITY PREDICTED BY RF-SCORE:    0.00 PKD
ROOT
HETATM    1  O   UNL     1      -5.739   7.833  65.005  1.00  0.00    -0.037 OA 
HETATM    2  C   UNL     1      -7.048   7.541  64.579  1.00  0.00    -0.065 C  
HETATM    3  H   UNL     1      -5.581   8.764  64.904  1.00  0.00     0.000 HD 
ENDROOT
BRANCH   2   4
HETATM    4  N   UNL     1      -7.285   6.136  64.731  1.00  0.00    -0.060 N  
HETATM    5  C   UNL     1      -7.032   5.482  65.999  1.00  0.00    -0.066 C  
HETATM    6  O   UNL     1      -6.931   5.626  62.491  1.00  0.00    -0.038 OA 
HETATM    7  C   UNL     1      -6.415   4.161  65.484  1.00  0.00    -0.036 C  
HETATM    8  N   UNL     1      -6.624   4.091  64.142  1.00  0.00    -0.041 NA 
HETATM    9  O   UNL     1      -5.893   3.273  66.141  1.00  0.00    -0.021 OA 
HETATM   10  C   UNL     1      -6.982   5.305  63.668  1.00  0.00    -0.047 C  
BRANCH   5  11
HETATM   11  N   UNL     1      -8.262   5.206  66.698  1.00  0.00    -0.108 N  
HETATM   12  H   UNL     1      -8.248   5.081  67.710  1.00  0.00     0.000 HD 
BRANCH  11  13
HETATM   13  C   UNL     1      -9.445   5.109  66.024  1.00  0.00    -0.160 C  
HETATM   14  O   UNL     1      -9.810   4.101  65.434  1.00  0.00    -0.184 OA 
BRANCH  13  15
HETATM   15  N   UNL     1     -10.212   6.238  66.151  1.00  0.00    -0.410 N  
HETATM   16  H   UNL     1     -10.766   6.569  65.362  1.00  0.00     0.000 HD 
BRANCH  15  17
HETATM   17  C   UNL     1     -10.232   6.952  67.393  1.00  0.00    -0.203 C  
BRANCH  17  18
HETATM   18  N   UNL     1     -11.136   8.072  67.361  1.00  0.00    -0.413 N  
HETATM   19  H   UNL     1     -12.142   7.919  67.288  1.00  0.00     0.000 HD 
BRANCH  18  20
HETATM   20  C   UNL     1     -10.634   9.345  67.429  1.00  0.00    -0.258 C  
HETATM   21  O   UNL     1     -11.330  10.351  67.468  1.00  0.00    -0.374 OA 
BRANCH  20  22
HETATM   22  N   UNL     1      -9.259   9.367  67.460  1.00  0.00    -0.123 N  
HETATM   23  H   UNL     1      -8.698   8.636  67.023  1.00  0.00     0.000 HD 
BRANCH  22  24
HETATM   24  C   UNL     1      -8.659  10.479  68.145  1.00  0.00    -0.123 C  
HETATM   25  N   UNL     1      -8.047  10.193  69.420  1.00  0.00    -0.147 N  
HETATM   26  O   UNL     1      -7.206  11.178  66.245  1.00  0.00    -0.122 OA 
HETATM   27  C   UNL     1      -6.905  10.946  69.606  1.00  0.00    -0.137 C  
HETATM   28  N   UNL     1      -6.563  11.507  68.419  1.00  0.00    -0.058 NA 
HETATM   29  O   UNL     1      -6.271  11.061  70.641  1.00  0.00    -0.308 OA 
HETATM   30  C   UNL     1      -7.415  11.079  67.444  1.00  0.00    -0.106 C  
BRANCH  25  31
HETATM   31  C   UNL     1      -8.694   9.461  70.462  1.00  0.00    -0.231 C  
HETATM   32  H   UNL     1      -8.918   7.599  70.933  1.00  0.00     0.000 HD 
HETATM   33  O   UNL     1      -8.488   8.086  70.240  1.00  0.00    -0.123 OA 
ENDBRANCH  25  31
ENDBRANCH  22  24
ENDBRANCH  20  22
ENDBRANCH  18  20
ENDBRANCH  17  18
ENDBRANCH  15  17
ENDBRANCH  13  15
ENDBRANCH  11  13
ENDBRANCH   5  11
ENDBRANCH   2   4
TORSDOF 10
ENDMDL
MODEL      481
REMARK 921   NORMALIZED FREE ENERGY PREDICTED BY IDOCK:   -2.15 KCAL/MOL
REMARK 922        TOTAL FREE ENERGY PREDICTED BY IDOCK:   -5.41 KCAL/MOL
REMARK 923 INTER-LIGAND FREE ENERGY PREDICTED BY IDOCK:   -5.85 KCAL/MOL
REMARK 924 INTRA-LIGAND FREE ENERGY PREDICTED BY IDOCK:    0.44 KCAL/MOL
REMARK 927      BINDING AFFINITY PREDICTED BY RF-SCORE:    0.00 PKD
ROOT
HETATM    1  O   UNL     1     -11.771   6.691  69.021  1.00  0.00    -0.608 OA 
HETATM    2  C   UNL     1     -11.796   6.607  70.426  1.00  0.00    -0.346 C  
HETATM    3  H   UNL     1     -12.663   6.694  68.696  1.00  0.00     0.000 HD 
ENDROOT
BRANCH   2   4
HETATM    4  N   UNL     1     -10.450   6.602  70.916  1.00  0.00    -0.212 N  
HETATM    5  C   UNL     1      -9.332   6.645  69.995  1.00  0.00    -0.158 C  
HETATM    6  O   UNL     1     -10.952   5.458  72.877  1.00  0.00    -0.246 OA 
HETATM    7  C   UNL     1      -8.382   5.651  70.702  1.00  0.00    -0.118 C  
HETATM    8  N   UNL     1      -8.878   5.402  71.944  1.00  0.00    -0.135 NA 
HETATM    9  O   UNL     1      -7.324   5.203  70.286  1.00  0.00    -0.059 OA 
HETATM   10  C   UNL     1     -10.161   5.819  72.020  1.00  0.00    -0.185 C  
BRANCH   5  11
HETATM   11  N   UNL     1      -8.732   7.955  69.964  1.00  0.00    -0.139 N  
HETATM   12  H   UNL     1      -8.587   8.462  70.836  1.00  0.00     0.000 HD 
BRANCH  11  13
HETATM   13  C   UNL     1      -8.356   8.526  68.783  1.00  0.00    -0.122 C  
HETATM   14  O   UNL     1      -7.204   8.537  68.370  1.00  0.00    -0.082 OA 
BRANCH  13  15
HETATM   15  N   UNL     1      -9.423   9.014  68.075  1.00  0.00    -0.141 N  
HETATM   16  H   UNL     1      -9.881   8.429  67.376  1.00  0.00     0.000 HD 
BRANCH  15  17
HETATM   17  C   UNL     1      -9.894  10.345  68.318  1.00  0.00    -0.154 C  
BRANCH  17  18
HETATM   18  N   UNL     1      -9.771  11.185  67.156  1.00  0.00    -0.176 N  
HETATM   19  H   UNL     1     -10.539  11.257  66.489  1.00  0.00     0.000 HD 
BRANCH  18  20
HETATM   20  C   UNL     1      -8.613  11.889  66.955  1.00  0.00    -0.185 C  
HETATM   21  O   UNL     1      -7.538  11.592  67.460  1.00  0.00    -0.112 OA 
BRANCH  20  22
HETATM   22  N   UNL     1      -8.788  12.960  66.110  1.00  0.00    -0.409 N  
HETATM   23  H   UNL     1      -8.823  12.848  65.097  1.00  0.00     0.000 HD 
BRANCH  22  24
HETATM   24  C   UNL     1      -8.920  14.247  66.737  1.00  0.00    -0.227 C  
HETATM   25  N   UNL     1     -10.253  14.795  66.802  1.00  0.00    -0.262 N  
HETATM   26  O   UNL     1      -7.783  13.601  68.859  1.00  0.00    -0.096 OA 
HETATM   27  C   UNL     1     -10.453  15.483  67.982  1.00  0.00    -0.259 C  
HETATM   28  N   UNL     1      -9.436  15.187  68.829  1.00  0.00    -0.201 NA 
HETATM   29  O   UNL     1     -11.402  16.199  68.254  1.00  0.00    -0.361 OA 
HETATM   30  C   UNL     1      -8.611  14.265  68.254  1.00  0.00    -0.176 C  
BRANCH  25  31
HETATM   31  C   UNL     1     -11.132  14.872  65.679  1.00  0.00    -0.348 C  
HETATM   32  H   UNL     1     -11.698  16.241  64.436  1.00  0.00     0.000 HD 
HETATM   33  O   UNL     1     -11.113  16.189  65.183  1.00  0.00    -0.330 OA 
ENDBRANCH  25  31
ENDBRANCH  22  24
ENDBRANCH  20  22
ENDBRANCH  18  20
ENDBRANCH  17  18
ENDBRANCH  15  17
ENDBRANCH  13  15
ENDBRANCH  11  13
ENDBRANCH   5  11
ENDBRANCH   2   4
TORSDOF 10
ENDMDL
MODEL      482
REMARK 921   NORMALIZED FREE ENERGY PREDICTED BY IDOCK:   -2.15 KCAL/MOL
REMARK 922        TOTAL FREE ENERGY PREDICTED BY IDOCK:   -5.41 KCAL/MOL
REMARK 923 INTER-LIGAND FREE ENERGY PREDICTED BY IDOCK:   -4.78 KCAL/MOL
REMARK 924 INTRA-LIGAND FREE ENERGY PREDICTED BY IDOCK:   -0.62 KCAL/MOL
REMARK 927      BINDING AFFINITY PREDICTED BY RF-SCORE:    0.00 PKD
ROOT
HETATM    1  O   UNL     1     -11.152  12.586  67.575  1.00  0.00    -0.243 OA 
HETATM    2  C   UNL     1     -11.920  13.215  68.572  1.00  0.00    -0.289 C  
HETATM    3  H   UNL     1     -11.096  13.159  66.820  1.00  0.00     0.000 HD 
ENDROOT
BRANCH   2   4
HETATM    4  N   UNL     1     -12.005  12.351  69.711  1.00  0.00    -0.310 N  
HETATM    5  C   UNL     1     -12.278  10.938  69.541  1.00  0.00    -0.261 C  
HETATM    6  O   UNL     1     -12.687  14.016  71.181  1.00  0.00    -0.326 OA 
HETATM    7  C   UNL     1     -13.234  10.719  70.736  1.00  0.00    -0.027 C  
HETATM    8  N   UNL     1     -13.180  11.823  71.529  1.00  0.00    -0.296 NA 
HETATM    9  O   UNL     1     -13.882   9.718  71.002  1.00  0.00    -0.213 OA 
HETATM   10  C   UNL     1     -12.597  12.842  70.860  1.00  0.00    -0.270 C  
BRANCH   5  11
HETATM   11  N   UNL     1     -11.083  10.151  69.722  1.00  0.00    -0.262 N  
HETATM   12  H   UNL     1     -10.379  10.453  70.394  1.00  0.00     0.000 HD 
BRANCH  11  13
HETATM   13  C   UNL     1     -10.882   9.007  69.005  1.00  0.00    -0.067 C  
HETATM   14  O   UNL     1     -10.244   8.962  67.962  1.00  0.00    -0.193 OA 
BRANCH  13  15
HETATM   15  N   UNL     1     -11.406   7.903  69.626  1.00  0.00    -0.444 N  
HETATM   16  H   UNL     1     -12.062   7.301  69.129  1.00  0.00     0.000 HD 
BRANCH  15  17
HETATM   17  C   UNL     1     -11.030   7.596  70.974  1.00  0.00    -0.248 C  
BRANCH  17  18
HETATM   18  N   UNL     1     -10.176   6.441  71.050  1.00  0.00    -0.189 N  
HETATM   19  H   UNL     1     -10.132   5.888  71.907  1.00  0.00     0.000 HD 
BRANCH  18  20
HETATM   20  C   UNL     1      -9.421   6.088  69.962  1.00  0.00    -0.156 C  
HETATM   21  O   UNL     1      -8.404   6.676  69.619  1.00  0.00    -0.128 OA 
BRANCH  20  22
HETATM   22  N   UNL     1      -9.925   4.990  69.305  1.00  0.00    -0.200 N  
HETATM   23  H   UNL     1     -10.923   4.780  69.295  1.00  0.00     0.000 HD 
BRANCH  22  24
HETATM   24  C   UNL     1      -8.966   4.157  68.634  1.00  0.00    -0.114 C  
HETATM   25  N   UNL     1      -8.208   4.776  67.574  1.00  0.00    -0.105 N  
HETATM   26  O   UNL     1      -7.775   3.442  70.704  1.00  0.00    -0.040 OA 
HETATM   27  C   UNL     1      -6.909   4.310  67.551  1.00  0.00    -0.052 C  
HETATM   28  N   UNL     1      -6.676   3.631  68.702  1.00  0.00    -0.045 NA 
HETATM   29  O   UNL     1      -6.082   4.505  66.677  1.00  0.00    -0.029 OA 
HETATM   30  C   UNL     1      -7.772   3.705  69.510  1.00  0.00    -0.051 C  
BRANCH  25  31
HETATM   31  C   UNL     1      -8.799   5.534  66.517  1.00  0.00    -0.121 C  
HETATM   32  H   UNL     1      -8.543   7.285  65.738  1.00  0.00     0.000 HD 
HETATM   33  O   UNL     1      -8.150   6.780  66.441  1.00  0.00    -0.103 OA 
ENDBRANCH  25  31
ENDBRANCH  22  24
ENDBRANCH  20  22
ENDBRANCH  18  20
ENDBRANCH  17  18
ENDBRANCH  15  17
ENDBRANCH  13  15
ENDBRANCH  11  13
ENDBRANCH   5  11
ENDBRANCH   2   4
TORSDOF 10
ENDMDL
MODEL      483
REMARK 921   NORMALIZED FREE ENERGY PREDICTED BY IDOCK:   -2.12 KCAL/MOL
REMARK 922        TOTAL FREE ENERGY PREDICTED BY IDOCK:   -5.36 KCAL/MOL
REMARK 923 INTER-LIGAND FREE ENERGY PREDICTED BY IDOCK:   -4.28 KCAL/MOL
REMARK 924 INTRA-LIGAND FREE ENERGY PREDICTED BY IDOCK:   -1.07 KCAL/MOL
REMARK 927      BINDING AFFINITY PREDICTED BY RF-SCORE:    0.00 PKD
ROOT
HETATM    1  O   UNL     1      -6.513  13.033  66.882  1.00  0.00    -0.450 OA 
HETATM    2  C   UNL     1      -6.230  11.671  66.663  1.00  0.00    -0.079 C  
HETATM    3  H   UNL     1      -6.035  13.553  66.246  1.00  0.00     0.000 HD 
ENDROOT
BRANCH   2   4
HETATM    4  N   UNL     1      -6.950  10.887  67.622  1.00  0.00    -0.080 N  
HETATM    5  C   UNL     1      -8.359  10.608  67.433  1.00  0.00    -0.119 C  
HETATM    6  O   UNL     1      -5.589  11.461  69.417  1.00  0.00    -0.047 OA 
HETATM    7  C   UNL     1      -8.845  10.758  68.892  1.00  0.00    -0.150 C  
HETATM    8  N   UNL     1      -7.752  10.814  69.700  1.00  0.00    -0.076 NA 
HETATM    9  O   UNL     1      -9.997  10.755  69.301  1.00  0.00    -0.214 OA 
HETATM   10  C   UNL     1      -6.646  11.054  68.962  1.00  0.00    -0.065 C  
BRANCH   5  11
HETATM   11  N   UNL     1      -8.566   9.252  66.987  1.00  0.00    -0.123 N  
HETATM   12  H   UNL     1      -7.819   8.567  67.096  1.00  0.00     0.000 HD 
BRANCH  11  13
HETATM   13  C   UNL     1      -9.749   8.874  66.421  1.00  0.00    -0.262 C  
HETATM   14  O   UNL     1     -10.353   9.545  65.595  1.00  0.00    -0.130 OA 
BRANCH  13  15
HETATM   15  N   UNL     1     -10.143   7.624  66.821  1.00  0.00    -0.333 N  
HETATM   16  H   UNL     1     -10.133   6.849  66.157  1.00  0.00     0.000 HD 
BRANCH  15  17
HETATM   17  C   UNL     1     -10.567   7.406  68.172  1.00  0.00    -0.162 C  
BRANCH  17  18
HETATM   18  N   UNL     1     -10.304   6.061  68.614  1.00  0.00    -0.191 N  
HETATM   19  H   UNL     1     -11.062   5.481  68.975  1.00  0.00     0.000 HD 
BRANCH  18  20
HETATM   20  C   UNL     1      -9.028   5.568  68.545  1.00  0.00    -0.110 C  
HETATM   21  O   UNL     1      -8.591   4.940  67.590  1.00  0.00    -0.104 OA 
BRANCH  20  22
HETATM   22  N   UNL     1      -8.287   5.867  69.665  1.00  0.00    -0.116 N  
HETATM   23  H   UNL     1      -7.517   6.535  69.639  1.00  0.00     0.000 HD 
BRANCH  22  24
HETATM   24  C   UNL     1      -8.661   5.184  70.874  1.00  0.00    -0.123 C  
HETATM   25  N   UNL     1      -9.535   5.900  71.770  1.00  0.00    -0.152 N  
HETATM   26  O   UNL     1      -9.517   3.136  69.741  1.00  0.00    -0.162 OA 
HETATM   27  C   UNL     1     -10.435   5.047  72.377  1.00  0.00    -0.217 C  
HETATM   28  N   UNL     1     -10.401   3.856  71.728  1.00  0.00    -0.037 NA 
HETATM   29  O   UNL     1     -11.178   5.315  73.305  1.00  0.00    -0.305 OA 
HETATM   30  C   UNL     1      -9.550   3.934  70.665  1.00  0.00    -0.189 C  
BRANCH  25  31
HETATM   31  C   UNL     1      -9.305   7.244  72.196  1.00  0.00    -0.135 C  
HETATM   32  H   UNL     1      -9.417   9.003  71.400  1.00  0.00     0.000 HD 
HETATM   33  O   UNL     1      -9.570   8.108  71.117  1.00  0.00    -0.153 OA 
ENDBRANCH  25  31
ENDBRANCH  22  24
ENDBRANCH  20  22
ENDBRANCH  18  20
ENDBRANCH  17  18
ENDBRANCH  15  17
ENDBRANCH  13  15
ENDBRANCH  11  13
ENDBRANCH   5  11
ENDBRANCH   2   4
TORSDOF 10
ENDMDL
MODEL      484
REMARK 921   NORMALIZED FREE ENERGY PREDICTED BY IDOCK:   -2.09 KCAL/MOL
REMARK 922        TOTAL FREE ENERGY PREDICTED BY IDOCK:   -5.31 KCAL/MOL
REMARK 923 INTER-LIGAND FREE ENERGY PREDICTED BY IDOCK:   -2.96 KCAL/MOL
REMARK 924 INTRA-LIGAND FREE ENERGY PREDICTED BY IDOCK:   -2.35 KCAL/MOL
REMARK 927      BINDING AFFINITY PREDICTED BY RF-SCORE:    0.00 PKD
ROOT
HETATM    1  O   UNL     1     -12.694  14.894  72.231  1.00  0.00    -0.307 OA 
HETATM    2  C   UNL     1     -12.937  15.110  70.861  1.00  0.00    -0.429 C  
HETATM    3  H   UNL     1     -13.407  15.270  72.734  1.00  0.00     0.000 HD 
ENDROOT
BRANCH   2   4
HETATM    4  N   UNL     1     -11.861  14.544  70.103  1.00  0.00    -0.290 N  
HETATM    5  C   UNL     1     -11.214  15.313  69.059  1.00  0.00    -0.280 C  
HETATM    6  O   UNL     1     -12.567  12.344  70.359  1.00  0.00    -0.157 OA 
HETATM    7  C   UNL     1     -11.029  14.201  68.002  1.00  0.00    -0.255 C  
HETATM    8  N   UNL     1     -11.293  13.005  68.595  1.00  0.00    -0.270 NA 
HETATM    9  O   UNL     1     -10.641  14.321  66.850  1.00  0.00    -0.271 OA 
HETATM   10  C   UNL     1     -11.935  13.204  69.767  1.00  0.00    -0.314 C  
BRANCH   5  11
HETATM   11  N   UNL     1      -9.926  15.796  69.490  1.00  0.00    -0.270 N  
HETATM   12  H   UNL     1      -9.379  15.247  70.153  1.00  0.00     0.000 HD 
BRANCH  11  13
HETATM   13  C   UNL     1      -9.428  16.978  69.023  1.00  0.00    -0.177 C  
HETATM   14  O   UNL     1     -10.012  18.049  69.126  1.00  0.00    -0.308 OA 
BRANCH  13  15
HETATM   15  N   UNL     1      -8.169  16.844  68.501  1.00  0.00    -0.239 N  
HETATM   16  H   UNL     1      -7.363  16.778  69.123  1.00  0.00     0.000 HD 
BRANCH  15  17
HETATM   17  C   UNL     1      -7.984  16.797  67.081  1.00  0.00    -0.181 C  
BRANCH  17  18
HETATM   18  N   UNL     1      -7.516  15.512  66.636  1.00  0.00    -0.158 N  
HETATM   19  H   UNL     1      -8.056  14.972  65.959  1.00  0.00     0.000 HD 
BRANCH  18  20
HETATM   20  C   UNL     1      -6.336  15.018  67.128  1.00  0.00     0.465 C  
HETATM   21  O   UNL     1      -5.452  15.715  67.606  1.00  0.00    -0.185 OA 
BRANCH  20  22
HETATM   22  N   UNL     1      -6.260  13.648  67.037  1.00  0.00     0.311 N  
HETATM   23  H   UNL     1      -5.477  13.180  66.580  1.00  0.00     0.000 HD 
BRANCH  22  24
HETATM   24  C   UNL     1      -7.348  12.912  67.622  1.00  0.00    -0.145 C  
HETATM   25  N   UNL     1      -7.241  11.474  67.588  1.00  0.00    -0.097 N  
HETATM   26  O   UNL     1      -7.267  14.071  69.827  1.00  0.00     0.070 OA 
HETATM   27  C   UNL     1      -7.759  10.908  68.735  1.00  0.00    -0.129 C  
HETATM   28  N   UNL     1      -7.945  11.890  69.652  1.00  0.00     0.824 NA 
HETATM   29  O   UNL     1      -7.974   9.723  68.929  1.00  0.00    -0.086 OA 
HETATM   30  C   UNL     1      -7.493  13.077  69.154  1.00  0.00     0.196 C  
BRANCH  25  31
HETATM   31  C   UNL     1      -6.923  10.731  66.410  1.00  0.00    -0.134 C  
HETATM   32  H   UNL     1      -7.908   9.938  64.947  1.00  0.00     0.000 HD 
HETATM   33  O   UNL     1      -8.119  10.432  65.731  1.00  0.00    -0.144 OA 
ENDBRANCH  25  31
ENDBRANCH  22  24
ENDBRANCH  20  22
ENDBRANCH  18  20
ENDBRANCH  17  18
ENDBRANCH  15  17
ENDBRANCH  13  15
ENDBRANCH  11  13
ENDBRANCH   5  11
ENDBRANCH   2   4
TORSDOF 10
ENDMDL
MODEL      485
REMARK 921   NORMALIZED FREE ENERGY PREDICTED BY IDOCK:   -2.07 KCAL/MOL
REMARK 922        TOTAL FREE ENERGY PREDICTED BY IDOCK:   -5.28 KCAL/MOL
REMARK 923 INTER-LIGAND FREE ENERGY PREDICTED BY IDOCK:   -5.50 KCAL/MOL
REMARK 924 INTRA-LIGAND FREE ENERGY PREDICTED BY IDOCK:    0.22 KCAL/MOL
REMARK 927      BINDING AFFINITY PREDICTED BY RF-SCORE:    0.00 PKD
ROOT
HETATM    1  O   UNL     1     -10.180  13.304  68.791  1.00  0.00    -0.362 OA 
HETATM    2  C   UNL     1     -10.785  13.531  67.541  1.00  0.00    -0.259 C  
HETATM    3  H   UNL     1     -10.171  14.117  69.282  1.00  0.00     0.000 HD 
ENDROOT
BRANCH   2   4
HETATM    4  N   UNL     1     -10.798  12.305  66.800  1.00  0.00    -0.244 N  
HETATM    5  C   UNL     1      -9.561  11.607  66.514  1.00  0.00    -0.209 C  
HETATM    6  O   UNL     1     -12.746  12.795  65.630  1.00  0.00    -0.549 OA 
HETATM    7  C   UNL     1      -9.855  11.155  65.065  1.00  0.00    -0.266 C  
HETATM    8  N   UNL     1     -11.175  11.367  64.814  1.00  0.00    -0.189 NA 
HETATM    9  O   UNL     1      -9.086  10.625  64.276  1.00  0.00    -0.200 OA 
HETATM   10  C   UNL     1     -11.697  12.184  65.755  1.00  0.00    -0.327 C  
BRANCH   5  11
HETATM   11  N   UNL     1      -9.407  10.452  67.363  1.00  0.00    -0.145 N  
HETATM   12  H   UNL     1      -8.524  10.300  67.849  1.00  0.00     0.000 HD 
BRANCH  11  13
HETATM   13  C   UNL     1     -10.426   9.558  67.523  1.00  0.00    -0.275 C  
HETATM   14  O   UNL     1     -10.658   8.645  66.743  1.00  0.00    -0.269 OA 
BRANCH  13  15
HETATM   15  N   UNL     1     -11.107   9.749  68.697  1.00  0.00    -0.454 N  
HETATM   16  H   UNL     1     -11.491  10.667  68.919  1.00  0.00     0.000 HD 
BRANCH  15  17
HETATM   17  C   UNL     1     -11.278   8.658  69.610  1.00  0.00     0.079 C  
BRANCH  17  18
HETATM   18  N   UNL     1     -10.442   8.789  70.775  1.00  0.00    -0.208 N  
HETATM   19  H   UNL     1      -9.810   9.585  70.868  1.00  0.00     0.000 HD 
BRANCH  18  20
HETATM   20  C   UNL     1     -10.501   7.835  71.757  1.00  0.00    -0.216 C  
HETATM   21  O   UNL     1     -10.691   8.086  72.939  1.00  0.00    -0.355 OA 
BRANCH  20  22
HETATM   22  N   UNL     1     -10.337   6.562  71.264  1.00  0.00    -0.202 N  
HETATM   23  H   UNL     1     -11.058   5.848  71.366  1.00  0.00     0.000 HD 
BRANCH  22  24
HETATM   24  C   UNL     1      -9.091   6.295  70.598  1.00  0.00    -0.151 C  
HETATM   25  N   UNL     1      -8.064   5.664  71.389  1.00  0.00    -0.116 N  
HETATM   26  O   UNL     1     -10.097   5.028  68.702  1.00  0.00    -0.165 OA 
HETATM   27  C   UNL     1      -7.333   4.767  70.635  1.00  0.00    -0.056 C  
HETATM   28  N   UNL     1      -7.990   4.553  69.468  1.00  0.00    -0.061 NA 
HETATM   29  O   UNL     1      -6.298   4.214  70.965  1.00  0.00    -0.017 OA 
HETATM   30  C   UNL     1      -9.171   5.236  69.472  1.00  0.00    -0.118 C  
BRANCH  25  31
HETATM   31  C   UNL     1      -7.666   6.122  72.682  1.00  0.00    -0.102 C  
HETATM   32  H   UNL     1      -6.268   5.698  73.949  1.00  0.00     0.000 HD 
HETATM   33  O   UNL     1      -6.532   5.394  73.088  1.00  0.00    -0.061 OA 
ENDBRANCH  25  31
ENDBRANCH  22  24
ENDBRANCH  20  22
ENDBRANCH  18  20
ENDBRANCH  17  18
ENDBRANCH  15  17
ENDBRANCH  13  15
ENDBRANCH  11  13
ENDBRANCH   5  11
ENDBRANCH   2   4
TORSDOF 10
ENDMDL
MODEL      486
REMARK 921   NORMALIZED FREE ENERGY PREDICTED BY IDOCK:   -2.03 KCAL/MOL
REMARK 922        TOTAL FREE ENERGY PREDICTED BY IDOCK:   -5.22 KCAL/MOL
REMARK 923 INTER-LIGAND FREE ENERGY PREDICTED BY IDOCK:   -4.14 KCAL/MOL
REMARK 924 INTRA-LIGAND FREE ENERGY PREDICTED BY IDOCK:   -1.08 KCAL/MOL
REMARK 927      BINDING AFFINITY PREDICTED BY RF-SCORE:    0.00 PKD
ROOT
HETATM    1  O   UNL     1     -11.103  12.542  67.593  1.00  0.00    -0.235 OA 
HETATM    2  C   UNL     1     -11.791  12.976  68.742  1.00  0.00    -0.317 C  
HETATM    3  H   UNL     1     -11.203  13.193  66.909  1.00  0.00     0.000 HD 
ENDROOT
BRANCH   2   4
HETATM    4  N   UNL     1     -11.640  11.995  69.774  1.00  0.00    -0.297 N  
HETATM    5  C   UNL     1     -11.868  10.592  69.492  1.00  0.00    -0.215 C  
HETATM    6  O   UNL     1     -12.145  13.450  71.515  1.00  0.00    -0.035 OA 
HETATM    7  C   UNL     1     -12.597  10.187  70.793  1.00  0.00    -0.317 C  
HETATM    8  N   UNL     1     -12.465  11.204  71.687  1.00  0.00    -0.241 NA 
HETATM    9  O   UNL     1     -13.142   9.123  71.046  1.00  0.00    -0.207 OA 
HETATM   10  C   UNL     1     -12.053  12.324  71.053  1.00  0.00     0.068 C  
BRANCH   5  11
HETATM   11  N   UNL     1     -10.623   9.872  69.386  1.00  0.00    -0.215 N  
HETATM   12  H   UNL     1      -9.830  10.151  69.963  1.00  0.00     0.000 HD 
BRANCH  11  13
HETATM   13  C   UNL     1     -10.491   8.822  68.524  1.00  0.00    -0.175 C  
HETATM   14  O   UNL     1     -10.142   8.941  67.357  1.00  0.00    -0.191 OA 
BRANCH  13  15
HETATM   15  N   UNL     1     -10.714   7.616  69.133  1.00  0.00    -0.360 N  
HETATM   16  H   UNL     1     -11.394   6.964  68.740  1.00  0.00     0.000 HD 
BRANCH  15  17
HETATM   17  C   UNL     1      -9.993   7.270  70.322  1.00  0.00    -0.187 C  
BRANCH  17  18
HETATM   18  N   UNL     1      -8.894   6.381  70.052  1.00  0.00    -0.142 N  
HETATM   19  H   UNL     1      -8.543   5.761  70.782  1.00  0.00     0.000 HD 
BRANCH  18  20
HETATM   20  C   UNL     1      -8.324   6.373  68.806  1.00  0.00    -0.121 C  
HETATM   21  O   UNL     1      -7.593   7.260  68.386  1.00  0.00    -0.112 OA 
BRANCH  20  22
HETATM   22  N   UNL     1      -8.655   5.251  68.083  1.00  0.00    -0.100 N  
HETATM   23  H   UNL     1      -9.540   4.763  68.220  1.00  0.00     0.000 HD 
BRANCH  22  24
HETATM   24  C   UNL     1      -7.682   4.806  67.123  1.00  0.00    -0.091 C  
HETATM   25  N   UNL     1      -7.644   3.388  66.858  1.00  0.00    -0.075 N  
HETATM   26  O   UNL     1      -8.410   6.348  65.305  1.00  0.00    -0.145 OA 
HETATM   27  C   UNL     1      -7.375   3.136  65.528  1.00  0.00    -0.072 C  
HETATM   28  N   UNL     1      -7.512   4.294  64.835  1.00  0.00    -0.072 NA 
HETATM   29  O   UNL     1      -7.107   2.054  65.033  1.00  0.00    -0.049 OA 
HETATM   30  C   UNL     1      -7.935   5.284  65.672  1.00  0.00    -0.106 C  
BRANCH  25  31
HETATM   31  C   UNL     1      -7.592   2.393  67.882  1.00  0.00    -0.056 C  
HETATM   32  H   UNL     1      -8.604   0.813  68.350  1.00  0.00     0.000 HD 
HETATM   33  O   UNL     1      -8.638   1.475  67.669  1.00  0.00    -0.072 OA 
ENDBRANCH  25  31
ENDBRANCH  22  24
ENDBRANCH  20  22
ENDBRANCH  18  20
ENDBRANCH  17  18
ENDBRANCH  15  17
ENDBRANCH  13  15
ENDBRANCH  11  13
ENDBRANCH   5  11
ENDBRANCH   2   4
TORSDOF 10
ENDMDL
MODEL      487
REMARK 921   NORMALIZED FREE ENERGY PREDICTED BY IDOCK:   -2.01 KCAL/MOL
REMARK 922        TOTAL FREE ENERGY PREDICTED BY IDOCK:   -5.18 KCAL/MOL
REMARK 923 INTER-LIGAND FREE ENERGY PREDICTED BY IDOCK:   -3.26 KCAL/MOL
REMARK 924 INTRA-LIGAND FREE ENERGY PREDICTED BY IDOCK:   -1.91 KCAL/MOL
REMARK 927      BINDING AFFINITY PREDICTED BY RF-SCORE:    0.00 PKD
ROOT
HETATM    1  O   UNL     1      -6.701  13.103  67.051  1.00  0.00    -0.443 OA 
HETATM    2  C   UNL     1      -6.223  11.802  66.805  1.00  0.00    -0.094 C  
HETATM    3  H   UNL     1      -6.371  13.685  66.377  1.00  0.00     0.000 HD 
ENDROOT
BRANCH   2   4
HETATM    4  N   UNL     1      -6.719  10.924  67.822  1.00  0.00    -0.064 N  
HETATM    5  C   UNL     1      -8.060  10.381  67.733  1.00  0.00    -0.103 C  
HETATM    6  O   UNL     1      -5.380  11.792  69.512  1.00  0.00    -0.059 OA 
HETATM    7  C   UNL     1      -8.472  10.478  69.219  1.00  0.00    -0.129 C  
HETATM    8  N   UNL     1      -7.360  10.760  69.950  1.00  0.00    -0.080 NA 
HETATM    9  O   UNL     1      -9.574  10.271  69.705  1.00  0.00    -0.215 OA 
HETATM   10  C   UNL     1      -6.368  11.182  69.135  1.00  0.00    -0.064 C  
BRANCH   5  11
HETATM   11  N   UNL     1      -8.036   8.999  67.323  1.00  0.00    -0.103 N  
HETATM   12  H   UNL     1      -7.282   8.393  67.642  1.00  0.00     0.000 HD 
BRANCH  11  13
HETATM   13  C   UNL     1      -9.010   8.492  66.512  1.00  0.00    -0.161 C  
HETATM   14  O   UNL     1      -9.377   9.026  65.474  1.00  0.00    -0.230 OA 
BRANCH  13  15
HETATM   15  N   UNL     1      -9.471   7.277  66.948  1.00  0.00    -0.156 N  
HETATM   16  H   UNL     1      -9.474   6.476  66.317  1.00  0.00     0.000 HD 
BRANCH  15  17
HETATM   17  C   UNL     1      -9.951   7.135  68.290  1.00  0.00    -0.156 C  
BRANCH  17  18
HETATM   18  N   UNL     1      -9.716   5.814  68.814  1.00  0.00    -0.126 N  
HETATM   19  H   UNL     1     -10.497   5.243  69.138  1.00  0.00     0.000 HD 
BRANCH  18  20
HETATM   20  C   UNL     1      -8.436   5.331  68.872  1.00  0.00    -0.091 C  
HETATM   21  O   UNL     1      -7.853   4.828  67.921  1.00  0.00    -0.082 OA 
BRANCH  20  22
HETATM   22  N   UNL     1      -7.872   5.485  70.117  1.00  0.00    -0.087 N  
HETATM   23  H   UNL     1      -6.954   5.912  70.244  1.00  0.00     0.000 HD 
BRANCH  22  24
HETATM   24  C   UNL     1      -8.649   5.011  71.229  1.00  0.00    -0.125 C  
HETATM   25  N   UNL     1      -8.035   4.003  72.057  1.00  0.00    -0.082 N  
HETATM   26  O   UNL     1      -9.082   7.265  72.201  1.00  0.00    -0.132 OA 
HETATM   27  C   UNL     1      -8.366   4.179  73.386  1.00  0.00    -0.090 C  
HETATM   28  N   UNL     1      -8.929   5.405  73.529  1.00  0.00    -0.125 NA 
HETATM   29  O   UNL     1      -8.151   3.399  74.298  1.00  0.00    -0.069 OA 
HETATM   30  C   UNL     1      -8.909   6.063  72.335  1.00  0.00    -0.133 C  
BRANCH  25  31
HETATM   31  C   UNL     1      -7.423   2.820  71.542  1.00  0.00    -0.040 C  
HETATM   32  H   UNL     1      -5.903   2.405  70.420  1.00  0.00     0.000 HD 
HETATM   33  O   UNL     1      -6.311   3.192  70.764  1.00  0.00    -0.022 OA 
ENDBRANCH  25  31
ENDBRANCH  22  24
ENDBRANCH  20  22
ENDBRANCH  18  20
ENDBRANCH  17  18
ENDBRANCH  15  17
ENDBRANCH  13  15
ENDBRANCH  11  13
ENDBRANCH   5  11
ENDBRANCH   2   4
TORSDOF 10
ENDMDL
MODEL      488
REMARK 921   NORMALIZED FREE ENERGY PREDICTED BY IDOCK:   -1.91 KCAL/MOL
REMARK 922        TOTAL FREE ENERGY PREDICTED BY IDOCK:   -5.02 KCAL/MOL
REMARK 923 INTER-LIGAND FREE ENERGY PREDICTED BY IDOCK:   -4.57 KCAL/MOL
REMARK 924 INTRA-LIGAND FREE ENERGY PREDICTED BY IDOCK:   -0.44 KCAL/MOL
REMARK 927      BINDING AFFINITY PREDICTED BY RF-SCORE:    0.00 PKD
ROOT
HETATM    1  O   UNL     1      -9.904  14.120  66.572  1.00  0.00    -0.270 OA 
HETATM    2  C   UNL     1     -10.603  13.261  65.703  1.00  0.00    -0.283 C  
HETATM    3  H   UNL     1     -10.261  14.997  66.492  1.00  0.00     0.000 HD 
ENDROOT
BRANCH   2   4
HETATM    4  N   UNL     1     -10.065  11.939  65.823  1.00  0.00    -0.233 N  
HETATM    5  C   UNL     1      -8.743  11.732  66.379  1.00  0.00    -0.147 C  
HETATM    6  O   UNL     1     -11.284  11.061  64.049  1.00  0.00    -0.154 OA 
HETATM    7  C   UNL     1      -8.242  10.617  65.434  1.00  0.00    -0.125 C  
HETATM    8  N   UNL     1      -9.303  10.162  64.714  1.00  0.00    -0.244 NA 
HETATM    9  O   UNL     1      -7.118  10.143  65.366  1.00  0.00    -0.131 OA 
HETATM   10  C   UNL     1     -10.332  11.032  64.813  1.00  0.00    -0.324 C  
BRANCH   5  11
HETATM   11  N   UNL     1      -8.819  11.230  67.729  1.00  0.00    -0.138 N  
HETATM   12  H   UNL     1      -8.001  10.790  68.148  1.00  0.00     0.000 HD 
BRANCH  11  13
HETATM   13  C   UNL     1      -9.972  11.335  68.453  1.00  0.00    -0.197 C  
HETATM   14  O   UNL     1     -10.898  12.074  68.151  1.00  0.00    -0.202 OA 
BRANCH  13  15
HETATM   15  N   UNL     1     -10.007  10.460  69.507  1.00  0.00    -0.318 N  
HETATM   16  H   UNL     1      -9.392  10.602  70.308  1.00  0.00     0.000 HD 
BRANCH  15  17
HETATM   17  C   UNL     1     -10.909   9.347  69.483  1.00  0.00    -0.213 C  
BRANCH  17  18
HETATM   18  N   UNL     1     -10.243   8.102  69.765  1.00  0.00    -0.199 N  
HETATM   19  H   UNL     1     -10.530   7.535  70.563  1.00  0.00     0.000 HD 
BRANCH  18  20
HETATM   20  C   UNL     1      -9.222   7.686  68.952  1.00  0.00    -0.139 C  
HETATM   21  O   UNL     1      -8.980   8.175  67.857  1.00  0.00    -0.133 OA 
BRANCH  20  22
HETATM   22  N   UNL     1      -8.489   6.664  69.509  1.00  0.00    -0.131 N  
HETATM   23  H   UNL     1      -8.138   5.886  68.951  1.00  0.00     0.000 HD 
BRANCH  22  24
HETATM   24  C   UNL     1      -8.246   6.756  70.923  1.00  0.00    -0.123 C  
HETATM   25  N   UNL     1      -8.403   5.539  71.681  1.00  0.00    -0.122 N  
HETATM   26  O   UNL     1      -5.973   7.757  70.715  1.00  0.00    -0.034 OA 
HETATM   27  C   UNL     1      -7.469   5.457  72.694  1.00  0.00    -0.097 C  
HETATM   28  N   UNL     1      -6.522   6.405  72.481  1.00  0.00    -0.058 NA 
HETATM   29  O   UNL     1      -7.452   4.647  73.604  1.00  0.00    -0.080 OA 
HETATM   30  C   UNL     1      -6.779   7.058  71.312  1.00  0.00    -0.059 C  
BRANCH  25  31
HETATM   31  C   UNL     1      -9.548   4.690  71.587  1.00  0.00    -0.161 C  
HETATM   32  H   UNL     1     -11.225   4.704  70.625  1.00  0.00     0.000 HD 
HETATM   33  O   UNL     1     -10.463   5.268  70.688  1.00  0.00    -0.260 OA 
ENDBRANCH  25  31
ENDBRANCH  22  24
ENDBRANCH  20  22
ENDBRANCH  18  20
ENDBRANCH  17  18
ENDBRANCH  15  17
ENDBRANCH  13  15
ENDBRANCH  11  13
ENDBRANCH   5  11
ENDBRANCH   2   4
TORSDOF 10
ENDMDL
MODEL      489
REMARK 921   NORMALIZED FREE ENERGY PREDICTED BY IDOCK:   -1.83 KCAL/MOL
REMARK 922        TOTAL FREE ENERGY PREDICTED BY IDOCK:   -4.89 KCAL/MOL
REMARK 923 INTER-LIGAND FREE ENERGY PREDICTED BY IDOCK:   -5.47 KCAL/MOL
REMARK 924 INTRA-LIGAND FREE ENERGY PREDICTED BY IDOCK:    0.58 KCAL/MOL
REMARK 927      BINDING AFFINITY PREDICTED BY RF-SCORE:    0.00 PKD
ROOT
HETATM    1  O   UNL     1     -11.653   6.225  70.640  1.00  0.00    -0.353 OA 
HETATM    2  C   UNL     1     -11.486   6.122  72.034  1.00  0.00    -0.313 C  
HETATM    3  H   UNL     1     -12.527   6.548  70.457  1.00  0.00     0.000 HD 
ENDROOT
BRANCH   2   4
HETATM    4  N   UNL     1     -10.168   5.633  72.310  1.00  0.00    -0.194 N  
HETATM    5  C   UNL     1      -9.068   5.944  71.419  1.00  0.00    -0.140 C  
HETATM    6  O   UNL     1     -10.886   3.759  73.482  1.00  0.00    -0.195 OA 
HETATM    7  C   UNL     1      -8.338   4.582  71.432  1.00  0.00    -0.101 C  
HETATM    8  N   UNL     1      -8.870   3.825  72.430  1.00  0.00    -0.099 NA 
HETATM    9  O   UNL     1      -7.395   4.231  70.739  1.00  0.00    -0.043 OA 
HETATM   10  C   UNL     1     -10.041   4.361  72.839  1.00  0.00    -0.163 C  
BRANCH   5  11
HETATM   11  N   UNL     1      -8.213   6.960  71.981  1.00  0.00    -0.100 N  
HETATM   12  H   UNL     1      -7.798   6.816  72.901  1.00  0.00     0.000 HD 
BRANCH  11  13
HETATM   13  C   UNL     1      -7.952   8.113  71.298  1.00  0.00    -0.099 C  
HETATM   14  O   UNL     1      -6.925   8.764  71.432  1.00  0.00    -0.078 OA 
BRANCH  13  15
HETATM   15  N   UNL     1      -8.931   8.413  70.388  1.00  0.00    -0.144 N  
HETATM   16  H   UNL     1      -9.081   7.807  69.582  1.00  0.00     0.000 HD 
BRANCH  15  17
HETATM   17  C   UNL     1      -9.742   9.580  70.569  1.00  0.00    -0.263 C  
BRANCH  17  18
HETATM   18  N   UNL     1      -9.558  10.540  69.512  1.00  0.00    -0.396 N  
HETATM   19  H   UNL     1      -8.660  10.613  69.033  1.00  0.00     0.000 HD 
BRANCH  18  20
HETATM   20  C   UNL     1     -10.600  11.353  69.152  1.00  0.00    -0.160 C  
HETATM   21  O   UNL     1     -11.146  12.140  69.915  1.00  0.00    -0.001 OA 
BRANCH  20  22
HETATM   22  N   UNL     1     -10.958  11.199  67.834  1.00  0.00    -0.233 N  
HETATM   23  H   UNL     1     -11.667  10.525  67.543  1.00  0.00     0.000 HD 
BRANCH  22  24
HETATM   24  C   UNL     1     -10.277  12.040  66.888  1.00  0.00    -0.208 C  
HETATM   25  N   UNL     1     -10.904  13.302  66.584  1.00  0.00    -0.279 N  
HETATM   26  O   UNL     1      -8.096  12.043  68.095  1.00  0.00    -0.143 OA 
HETATM   27  C   UNL     1      -9.964  14.296  66.399  1.00  0.00    -0.292 C  
HETATM   28  N   UNL     1      -8.765  13.839  66.841  1.00  0.00    -0.196 NA 
HETATM   29  O   UNL     1     -10.166  15.416  65.963  1.00  0.00    -0.284 OA 
HETATM   30  C   UNL     1      -8.915  12.593  67.375  1.00  0.00    -0.190 C  
BRANCH  25  31
HETATM   31  C   UNL     1     -12.281  13.436  66.227  1.00  0.00    -0.398 C  
HETATM   32  H   UNL     1     -13.300  14.457  64.939  1.00  0.00     0.000 HD 
HETATM   33  O   UNL     1     -12.384  14.367  65.177  1.00  0.00    -0.407 OA 
ENDBRANCH  25  31
ENDBRANCH  22  24
ENDBRANCH  20  22
ENDBRANCH  18  20
ENDBRANCH  17  18
ENDBRANCH  15  17
ENDBRANCH  13  15
ENDBRANCH  11  13
ENDBRANCH   5  11
ENDBRANCH   2   4
TORSDOF 10
ENDMDL
MODEL      490
REMARK 921   NORMALIZED FREE ENERGY PREDICTED BY IDOCK:   -1.78 KCAL/MOL
REMARK 922        TOTAL FREE ENERGY PREDICTED BY IDOCK:   -4.82 KCAL/MOL
REMARK 923 INTER-LIGAND FREE ENERGY PREDICTED BY IDOCK:   -4.30 KCAL/MOL
REMARK 924 INTRA-LIGAND FREE ENERGY PREDICTED BY IDOCK:   -0.53 KCAL/MOL
REMARK 927      BINDING AFFINITY PREDICTED BY RF-SCORE:    0.00 PKD
ROOT
HETATM    1  O   UNL     1     -10.412   6.479  66.166  1.00  0.00    -0.425 OA 
HETATM    2  C   UNL     1     -10.210   7.844  66.446  1.00  0.00    -0.001 C  
HETATM    3  H   UNL     1     -11.273   6.367  65.781  1.00  0.00     0.000 HD 
ENDROOT
BRANCH   2   4
HETATM    4  N   UNL     1      -8.911   8.013  67.026  1.00  0.00    -0.134 N  
HETATM    5  C   UNL     1      -7.831   8.590  66.253  1.00  0.00    -0.098 C  
HETATM    6  O   UNL     1      -9.131   6.256  68.533  1.00  0.00    -0.126 OA 
HETATM    7  C   UNL     1      -6.669   7.688  66.727  1.00  0.00    -0.066 C  
HETATM    8  N   UNL     1      -7.100   6.972  67.801  1.00  0.00    -0.083 NA 
HETATM    9  O   UNL     1      -5.528   7.647  66.292  1.00  0.00    -0.027 OA 
HETATM   10  C   UNL     1      -8.447   7.031  67.883  1.00  0.00    -0.124 C  
BRANCH   5  11
HETATM   11  N   UNL     1      -7.580   9.955  66.645  1.00  0.00    -0.102 N  
HETATM   12  H   UNL     1      -8.160  10.387  67.363  1.00  0.00     0.000 HD 
BRANCH  11  13
HETATM   13  C   UNL     1      -6.575  10.676  66.069  1.00  0.00    -0.128 C  
HETATM   14  O   UNL     1      -6.254  10.575  64.892  1.00  0.00    -0.121 OA 
BRANCH  13  15
HETATM   15  N   UNL     1      -6.021  11.584  66.934  1.00  0.00    -0.123 N  
HETATM   16  H   UNL     1      -5.671  12.475  66.583  1.00  0.00     0.000 HD 
BRANCH  15  17
HETATM   17  C   UNL     1      -5.936  11.279  68.331  1.00  0.00    -0.045 C  
BRANCH  17  18
HETATM   18  N   UNL     1      -6.951  11.952  69.097  1.00  0.00    -0.189 N  
HETATM   19  H   UNL     1      -6.706  12.444  69.957  1.00  0.00     0.000 HD 
BRANCH  18  20
HETATM   20  C   UNL     1      -8.251  11.925  68.663  1.00  0.00    -0.072 C  
HETATM   21  O   UNL     1      -8.815  12.879  68.145  1.00  0.00    -0.186 OA 
BRANCH  20  22
HETATM   22  N   UNL     1      -8.847  10.702  68.862  1.00  0.00    -0.155 N  
HETATM   23  H   UNL     1      -8.757   9.943  68.188  1.00  0.00     0.000 HD 
BRANCH  22  24
HETATM   24  C   UNL     1      -9.605  10.556  70.075  1.00  0.00     0.343 C  
HETATM   25  N   UNL     1     -11.036  10.452  69.928  1.00  0.00    -0.286 N  
HETATM   26  O   UNL     1      -8.336   8.583  70.917  1.00  0.00    -0.120 OA 
HETATM   27  C   UNL     1     -11.570   9.574  70.850  1.00  0.00    -0.326 C  
HETATM   28  N   UNL     1     -10.554   8.874  71.414  1.00  0.00    -0.275 NA 
HETATM   29  O   UNL     1     -12.752   9.407  71.095  1.00  0.00    -0.315 OA 
HETATM   30  C   UNL     1      -9.372   9.224  70.829  1.00  0.00    -0.258 C  
BRANCH  25  31
HETATM   31  C   UNL     1     -11.819  11.353  69.145  1.00  0.00    -0.345 C  
HETATM   32  H   UNL     1     -12.172  11.630  67.264  1.00  0.00     0.000 HD 
HETATM   33  O   UNL     1     -11.651  11.030  67.786  1.00  0.00    -0.510 OA 
ENDBRANCH  25  31
ENDBRANCH  22  24
ENDBRANCH  20  22
ENDBRANCH  18  20
ENDBRANCH  17  18
ENDBRANCH  15  17
ENDBRANCH  13  15
ENDBRANCH  11  13
ENDBRANCH   5  11
ENDBRANCH   2   4
TORSDOF 10
ENDMDL
MODEL      491
REMARK 921   NORMALIZED FREE ENERGY PREDICTED BY IDOCK:   -1.73 KCAL/MOL
REMARK 922        TOTAL FREE ENERGY PREDICTED BY IDOCK:   -4.73 KCAL/MOL
REMARK 923 INTER-LIGAND FREE ENERGY PREDICTED BY IDOCK:   -4.13 KCAL/MOL
REMARK 924 INTRA-LIGAND FREE ENERGY PREDICTED BY IDOCK:   -0.60 KCAL/MOL
REMARK 927      BINDING AFFINITY PREDICTED BY RF-SCORE:    0.00 PKD
ROOT
HETATM    1  O   UNL     1      -6.580   9.114  68.031  1.00  0.00    -0.059 OA 
HETATM    2  C   UNL     1      -7.768   8.692  68.657  1.00  0.00    -0.099 C  
HETATM    3  H   UNL     1      -6.788   9.443  67.165  1.00  0.00     0.000 HD 
ENDROOT
BRANCH   2   4
HETATM    4  N   UNL     1      -7.454   8.195  69.963  1.00  0.00    -0.065 N  
HETATM    5  C   UNL     1      -7.738   8.992  71.140  1.00  0.00    -0.110 C  
HETATM    6  O   UNL     1      -5.709   6.835  69.251  1.00  0.00    -0.017 OA 
HETATM    7  C   UNL     1      -6.469   8.683  71.967  1.00  0.00    -0.072 C  
HETATM    8  N   UNL     1      -5.817   7.647  71.373  1.00  0.00    -0.035 NA 
HETATM    9  O   UNL     1      -6.115   9.201  73.015  1.00  0.00    -0.286 OA 
HETATM   10  C   UNL     1      -6.291   7.463  70.121  1.00  0.00    -0.034 C  
BRANCH   5  11
HETATM   11  N   UNL     1      -8.903   8.501  71.834  1.00  0.00    -0.201 N  
HETATM   12  H   UNL     1      -8.790   8.000  72.714  1.00  0.00     0.000 HD 
BRANCH  11  13
HETATM   13  C   UNL     1     -10.155   8.699  71.328  1.00  0.00    -0.242 C  
HETATM   14  O   UNL     1     -10.973   9.464  71.820  1.00  0.00    -0.363 OA 
BRANCH  13  15
HETATM   15  N   UNL     1     -10.363   8.006  70.164  1.00  0.00    -0.211 N  
HETATM   16  H   UNL     1      -9.647   8.002  69.438  1.00  0.00     0.000 HD 
BRANCH  15  17
HETATM   17  C   UNL     1     -11.587   7.288  69.969  1.00  0.00    -0.053 C  
BRANCH  17  18
HETATM   18  N   UNL     1     -11.418   6.152  69.101  1.00  0.00    -0.434 N  
HETATM   19  H   UNL     1     -12.173   5.862  68.479  1.00  0.00     0.000 HD 
BRANCH  18  20
HETATM   20  C   UNL     1     -10.234   5.462  69.117  1.00  0.00    -0.232 C  
HETATM   21  O   UNL     1      -9.386   5.545  68.239  1.00  0.00    -0.108 OA 
BRANCH  20  22
HETATM   22  N   UNL     1     -10.098   4.676  70.237  1.00  0.00    -0.235 N  
HETATM   23  H   UNL     1     -10.664   3.839  70.381  1.00  0.00     0.000 HD 
BRANCH  22  24
HETATM   24  C   UNL     1      -9.113   5.101  71.195  1.00  0.00    -0.143 C  
HETATM   25  N   UNL     1      -9.461   4.942  72.585  1.00  0.00    -0.136 N  
HETATM   26  O   UNL     1      -7.256   3.729  70.256  1.00  0.00    -0.041 OA 
HETATM   27  C   UNL     1      -8.360   4.583  73.337  1.00  0.00    -0.102 C  
HETATM   28  N   UNL     1      -7.364   4.217  72.492  1.00  0.00    -0.066 NA 
HETATM   29  O   UNL     1      -8.291   4.547  74.554  1.00  0.00    -0.096 OA 
HETATM   30  C   UNL     1      -7.813   4.260  71.205  1.00  0.00    -0.071 C  
BRANCH  25  31
HETATM   31  C   UNL     1     -10.696   5.387  73.149  1.00  0.00    -0.266 C  
HETATM   32  H   UNL     1     -11.586   5.244  74.859  1.00  0.00     0.000 HD 
HETATM   33  O   UNL     1     -10.765   4.948  74.484  1.00  0.00    -0.360 OA 
ENDBRANCH  25  31
ENDBRANCH  22  24
ENDBRANCH  20  22
ENDBRANCH  18  20
ENDBRANCH  17  18
ENDBRANCH  15  17
ENDBRANCH  13  15
ENDBRANCH  11  13
ENDBRANCH   5  11
ENDBRANCH   2   4
TORSDOF 10
ENDMDL
MODEL      492
REMARK 921   NORMALIZED FREE ENERGY PREDICTED BY IDOCK:   -1.71 KCAL/MOL
REMARK 922        TOTAL FREE ENERGY PREDICTED BY IDOCK:   -4.70 KCAL/MOL
REMARK 923 INTER-LIGAND FREE ENERGY PREDICTED BY IDOCK:   -3.19 KCAL/MOL
REMARK 924 INTRA-LIGAND FREE ENERGY PREDICTED BY IDOCK:   -1.52 KCAL/MOL
REMARK 927      BINDING AFFINITY PREDICTED BY RF-SCORE:    0.00 PKD
ROOT
HETATM    1  O   UNL     1      -6.671   7.942  69.111  1.00  0.00    -0.046 OA 
HETATM    2  C   UNL     1      -7.830   7.144  69.119  1.00  0.00    -0.118 C  
HETATM    3  H   UNL     1      -6.571   8.334  68.252  1.00  0.00     0.000 HD 
ENDROOT
BRANCH   2   4
HETATM    4  N   UNL     1      -7.981   6.553  70.415  1.00  0.00    -0.113 N  
HETATM    5  C   UNL     1      -8.455   7.344  71.532  1.00  0.00    -0.112 C  
HETATM    6  O   UNL     1      -6.342   4.937  70.093  1.00  0.00    -0.024 OA 
HETATM    7  C   UNL     1      -7.536   6.790  72.644  1.00  0.00    -0.091 C  
HETATM    8  N   UNL     1      -6.915   5.678  72.165  1.00  0.00    -0.079 NA 
HETATM    9  O   UNL     1      -7.415   7.200  73.789  1.00  0.00    -0.097 OA 
HETATM   10  C   UNL     1      -7.039   5.624  70.821  1.00  0.00    -0.069 C  
BRANCH   5  11
HETATM   11  N   UNL     1      -9.831   7.040  71.839  1.00  0.00    -0.164 N  
HETATM   12  H   UNL     1     -10.107   6.072  72.002  1.00  0.00     0.000 HD 
BRANCH  11  13
HETATM   13  C   UNL     1     -10.768   8.029  71.916  1.00  0.00    -0.251 C  
HETATM   14  O   UNL     1     -11.187   8.487  72.970  1.00  0.00    -0.012 OA 
BRANCH  13  15
HETATM   15  N   UNL     1     -11.125   8.506  70.682  1.00  0.00    -0.251 N  
HETATM   16  H   UNL     1     -10.782   8.046  69.839  1.00  0.00     0.000 HD 
BRANCH  15  17
HETATM   17  C   UNL     1     -11.979   9.652  70.578  1.00  0.00    -0.172 C  
BRANCH  17  18
HETATM   18  N   UNL     1     -11.299  10.787  70.012  1.00  0.00    -0.303 N  
HETATM   19  H   UNL     1     -11.674  11.728  70.138  1.00  0.00     0.000 HD 
BRANCH  18  20
HETATM   20  C   UNL     1     -10.142  10.595  69.303  1.00  0.00    -0.206 C  
HETATM   21  O   UNL     1      -9.093  10.209  69.802  1.00  0.00    -0.203 OA 
BRANCH  20  22
HETATM   22  N   UNL     1     -10.294  10.871  67.965  1.00  0.00    -0.178 N  
HETATM   23  H   UNL     1     -11.204  11.084  67.558  1.00  0.00     0.000 HD 
BRANCH  22  24
HETATM   24  C   UNL     1      -9.095  10.843  67.171  1.00  0.00    -0.145 C  
HETATM   25  N   UNL     1      -9.016   9.813  66.165  1.00  0.00    -0.147 N  
HETATM   26  O   UNL     1      -9.228  13.224  66.446  1.00  0.00    -0.218 OA 
HETATM   27  C   UNL     1      -8.379  10.272  65.030  1.00  0.00    -0.168 C  
HETATM   28  N   UNL     1      -8.281  11.623  65.109  1.00  0.00     0.691 NA 
HETATM   29  O   UNL     1      -8.005   9.600  64.084  1.00  0.00    -0.127 OA 
HETATM   30  C   UNL     1      -8.905  12.064  66.239  1.00  0.00    -0.075 C  
BRANCH  25  31
HETATM   31  C   UNL     1      -9.287   8.434  66.421  1.00  0.00    -0.214 C  
HETATM   32  H   UNL     1     -10.688   7.420  67.285  1.00  0.00     0.000 HD 
HETATM   33  O   UNL     1     -10.507   8.337  67.115  1.00  0.00    -0.293 OA 
ENDBRANCH  25  31
ENDBRANCH  22  24
ENDBRANCH  20  22
ENDBRANCH  18  20
ENDBRANCH  17  18
ENDBRANCH  15  17
ENDBRANCH  13  15
ENDBRANCH  11  13
ENDBRANCH   5  11
ENDBRANCH   2   4
TORSDOF 10
ENDMDL
MODEL      493
REMARK 921   NORMALIZED FREE ENERGY PREDICTED BY IDOCK:   -1.56 KCAL/MOL
REMARK 922        TOTAL FREE ENERGY PREDICTED BY IDOCK:   -4.47 KCAL/MOL
REMARK 923 INTER-LIGAND FREE ENERGY PREDICTED BY IDOCK:   -3.28 KCAL/MOL
REMARK 924 INTRA-LIGAND FREE ENERGY PREDICTED BY IDOCK:   -1.19 KCAL/MOL
REMARK 927      BINDING AFFINITY PREDICTED BY RF-SCORE:    0.00 PKD
ROOT
HETATM    1  O   UNL     1      -6.650  13.047  66.995  1.00  0.00    -0.458 OA 
HETATM    2  C   UNL     1      -5.942  11.843  66.822  1.00  0.00    -0.053 C  
HETATM    3  H   UNL     1      -6.385  13.661  66.321  1.00  0.00     0.000 HD 
ENDROOT
BRANCH   2   4
HETATM    4  N   UNL     1      -6.342  10.916  67.838  1.00  0.00    -0.057 N  
HETATM    5  C   UNL     1      -7.422   9.982  67.596  1.00  0.00    -0.090 C  
HETATM    6  O   UNL     1      -5.661  12.255  69.613  1.00  0.00    -0.082 OA 
HETATM    7  C   UNL     1      -8.118  10.035  68.975  1.00  0.00    -0.118 C  
HETATM    8  N   UNL     1      -7.296  10.690  69.840  1.00  0.00    -0.121 NA 
HETATM    9  O   UNL     1      -9.182   9.527  69.297  1.00  0.00    -0.153 OA 
HETATM   10  C   UNL     1      -6.337  11.349  69.153  1.00  0.00    -0.074 C  
BRANCH   5  11
HETATM   11  N   UNL     1      -6.918   8.653  67.357  1.00  0.00    -0.077 N  
HETATM   12  H   UNL     1      -6.080   8.337  67.845  1.00  0.00     0.000 HD 
BRANCH  11  13
HETATM   13  C   UNL     1      -7.546   7.810  66.485  1.00  0.00    -0.096 C  
HETATM   14  O   UNL     1      -7.728   8.068  65.303  1.00  0.00    -0.087 OA 
BRANCH  13  15
HETATM   15  N   UNL     1      -7.876   6.613  67.063  1.00  0.00    -0.106 N  
HETATM   16  H   UNL     1      -7.393   5.760  66.782  1.00  0.00     0.000 HD 
BRANCH  15  17
HETATM   17  C   UNL     1      -8.900   6.560  68.063  1.00  0.00    -0.114 C  
BRANCH  17  18
HETATM   18  N   UNL     1      -8.450   5.916  69.269  1.00  0.00    -0.112 N  
HETATM   19  H   UNL     1      -8.867   5.034  69.569  1.00  0.00     0.000 HD 
BRANCH  18  20
HETATM   20  C   UNL     1      -7.457   6.498  70.013  1.00  0.00    -0.094 C  
HETATM   21  O   UNL     1      -6.263   6.302  69.827  1.00  0.00    -0.025 OA 
BRANCH  20  22
HETATM   22  N   UNL     1      -7.949   7.338  70.984  1.00  0.00    -0.097 N  
HETATM   23  H   UNL     1      -8.077   8.336  70.818  1.00  0.00     0.000 HD 
BRANCH  22  24
HETATM   24  C   UNL     1      -8.273   6.729  72.245  1.00  0.00    -0.106 C  
HETATM   25  N   UNL     1      -9.613   6.213  72.382  1.00  0.00    -0.152 N  
HETATM   26  O   UNL     1      -6.364   5.127  72.238  1.00  0.00    -0.029 OA 
HETATM   27  C   UNL     1      -9.627   5.050  73.126  1.00  0.00    -0.140 C  
HETATM   28  N   UNL     1      -8.351   4.607  73.253  1.00  0.00    -0.103 NA 
HETATM   29  O   UNL     1     -10.610   4.478  73.562  1.00  0.00    -0.186 OA 
HETATM   30  C   UNL     1      -7.510   5.416  72.547  1.00  0.00    -0.096 C  
BRANCH  25  31
HETATM   31  C   UNL     1     -10.786   6.959  72.054  1.00  0.00    -0.216 C  
HETATM   32  H   UNL     1     -11.591   7.664  70.443  1.00  0.00     0.000 HD 
HETATM   33  O   UNL     1     -10.810   7.168  70.662  1.00  0.00    -0.233 OA 
ENDBRANCH  25  31
ENDBRANCH  22  24
ENDBRANCH  20  22
ENDBRANCH  18  20
ENDBRANCH  17  18
ENDBRANCH  15  17
ENDBRANCH  13  15
ENDBRANCH  11  13
ENDBRANCH   5  11
ENDBRANCH   2   4
TORSDOF 10
ENDMDL
MODEL      494
REMARK 921   NORMALIZED FREE ENERGY PREDICTED BY IDOCK:   -1.52 KCAL/MOL
REMARK 922        TOTAL FREE ENERGY PREDICTED BY IDOCK:   -4.41 KCAL/MOL
REMARK 923 INTER-LIGAND FREE ENERGY PREDICTED BY IDOCK:   -5.32 KCAL/MOL
REMARK 924 INTRA-LIGAND FREE ENERGY PREDICTED BY IDOCK:    0.91 KCAL/MOL
REMARK 927      BINDING AFFINITY PREDICTED BY RF-SCORE:    0.00 PKD
ROOT
HETATM    1  O   UNL     1      -6.637  13.006  66.967  1.00  0.00    -0.458 OA 
HETATM    2  C   UNL     1      -6.236  11.664  66.829  1.00  0.00    -0.123 C  
HETATM    3  H   UNL     1      -6.148  13.539  66.353  1.00  0.00     0.000 HD 
ENDROOT
BRANCH   2   4
HETATM    4  N   UNL     1      -6.974  10.859  67.756  1.00  0.00    -0.076 N  
HETATM    5  C   UNL     1      -8.279  10.340  67.400  1.00  0.00    -0.114 C  
HETATM    6  O   UNL     1      -6.014  11.799  69.652  1.00  0.00    -0.086 OA 
HETATM    7  C   UNL     1      -9.007  10.535  68.750  1.00  0.00    -0.166 C  
HETATM    8  N   UNL     1      -8.074  10.837  69.694  1.00  0.00     0.015 NA 
HETATM    9  O   UNL     1     -10.195  10.381  68.989  1.00  0.00    -0.193 OA 
HETATM   10  C   UNL     1      -6.914  11.189  69.098  1.00  0.00    -0.108 C  
BRANCH   5  11
HETATM   11  N   UNL     1      -8.212   8.935  67.081  1.00  0.00    -0.103 N  
HETATM   12  H   UNL     1      -7.608   8.324  67.629  1.00  0.00     0.000 HD 
BRANCH  11  13
HETATM   13  C   UNL     1      -8.947   8.413  66.057  1.00  0.00    -0.184 C  
HETATM   14  O   UNL     1      -8.854   8.786  64.895  1.00  0.00    -0.167 OA 
BRANCH  13  15
HETATM   15  N   UNL     1      -9.740   7.371  66.461  1.00  0.00    -0.342 N  
HETATM   16  H   UNL     1      -9.531   6.422  66.153  1.00  0.00     0.000 HD 
BRANCH  15  17
HETATM   17  C   UNL     1     -10.863   7.617  67.316  1.00  0.00    -0.193 C  
BRANCH  17  18
HETATM   18  N   UNL     1     -10.816   6.825  68.517  1.00  0.00    -0.364 N  
HETATM   19  H   UNL     1     -11.612   6.245  68.783  1.00  0.00     0.000 HD 
BRANCH  18  20
HETATM   20  C   UNL     1      -9.692   6.855  69.300  1.00  0.00    -0.156 C  
HETATM   21  O   UNL     1      -8.813   6.004  69.265  1.00  0.00    -0.122 OA 
BRANCH  20  22
HETATM   22  N   UNL     1      -9.653   7.957  70.122  1.00  0.00    -0.175 N  
HETATM   23  H   UNL     1      -8.970   8.703  69.991  1.00  0.00     0.000 HD 
BRANCH  22  24
HETATM   24  C   UNL     1     -10.630   7.997  71.176  1.00  0.00    -0.203 C  
HETATM   25  N   UNL     1     -11.914   8.561  70.839  1.00  0.00    -0.234 N  
HETATM   26  O   UNL     1     -10.490   5.570  71.728  1.00  0.00    -0.215 OA 
HETATM   27  C   UNL     1     -12.936   7.894  71.483  1.00  0.00    -0.311 C  
HETATM   28  N   UNL     1     -12.438   6.745  72.004  1.00  0.00    -0.290 NA 
HETATM   29  O   UNL     1     -14.104   8.238  71.543  1.00  0.00    -0.388 OA 
HETATM   30  C   UNL     1     -11.127   6.611  71.653  1.00  0.00    -0.250 C  
BRANCH  25  31
HETATM   31  C   UNL     1     -12.078   9.815  70.176  1.00  0.00     0.046 C  
HETATM   32  H   UNL     1     -12.647  11.596  70.670  1.00  0.00     0.000 HD 
HETATM   33  O   UNL     1     -12.537  10.761  71.111  1.00  0.00    -0.359 OA 
ENDBRANCH  25  31
ENDBRANCH  22  24
ENDBRANCH  20  22
ENDBRANCH  18  20
ENDBRANCH  17  18
ENDBRANCH  15  17
ENDBRANCH  13  15
ENDBRANCH  11  13
ENDBRANCH   5  11
ENDBRANCH   2   4
TORSDOF 10
ENDMDL
MODEL      495
REMARK 921   NORMALIZED FREE ENERGY PREDICTED BY IDOCK:   -0.43 KCAL/MOL
REMARK 922        TOTAL FREE ENERGY PREDICTED BY IDOCK:   -2.68 KCAL/MOL
REMARK 923 INTER-LIGAND FREE ENERGY PREDICTED BY IDOCK:   -1.61 KCAL/MOL
REMARK 924 INTRA-LIGAND FREE ENERGY PREDICTED BY IDOCK:   -1.07 KCAL/MOL
REMARK 927      BINDING AFFINITY PREDICTED BY RF-SCORE:    0.00 PKD
ROOT
HETATM    1  O   UNL     1     -10.854   6.731  65.758  1.00  0.00     0.904 OA 
HETATM    2  C   UNL     1     -10.777   7.430  66.977  1.00  0.00    -0.319 C  
HETATM    3  H   UNL     1     -11.704   6.887  65.366  1.00  0.00     0.000 HD 
ENDROOT
BRANCH   2   4
HETATM    4  N   UNL     1      -9.494   7.194  67.569  1.00  0.00    -0.123 N  
HETATM    5  C   UNL     1      -8.420   8.152  67.401  1.00  0.00    -0.126 C  
HETATM    6  O   UNL     1      -9.681   4.877  67.545  1.00  0.00    -0.147 OA 
HETATM    7  C   UNL     1      -7.238   7.176  67.204  1.00  0.00    -0.085 C  
HETATM    8  N   UNL     1      -7.662   5.925  67.530  1.00  0.00    -0.096 NA 
HETATM    9  O   UNL     1      -6.089   7.446  66.888  1.00  0.00    -0.043 OA 
HETATM   10  C   UNL     1      -9.012   5.897  67.586  1.00  0.00    -0.107 C  
BRANCH   5  11
HETATM   11  N   UNL     1      -8.219   8.926  68.600  1.00  0.00    -0.115 N  
HETATM   12  H   UNL     1      -9.017   9.373  69.050  1.00  0.00     0.000 HD 
BRANCH  11  13
HETATM   13  C   UNL     1      -6.974   9.069  69.142  1.00  0.00    -0.058 C  
HETATM   14  O   UNL     1      -6.127   9.836  68.704  1.00  0.00    -0.042 OA 
BRANCH  13  15
HETATM   15  N   UNL     1      -6.810   8.319  70.277  1.00  0.00    -0.036 N  
HETATM   16  H   UNL     1      -7.612   7.855  70.702  1.00  0.00     0.000 HD 
BRANCH  15  17
HETATM   17  C   UNL     1      -5.510   8.189  70.865  1.00  0.00    -0.029 C  
BRANCH  17  18
HETATM   18  N   UNL     1      -5.417   7.042  71.730  1.00  0.00    -0.035 N  
HETATM   19  H   UNL     1      -4.529   6.555  71.846  1.00  0.00     0.000 HD 
BRANCH  18  20
HETATM   20  C   UNL     1      -6.534   6.610  72.397  1.00  0.00    -0.058 C  
HETATM   21  O   UNL     1      -7.332   7.358  72.945  1.00  0.00    -0.071 OA 
BRANCH  20  22
HETATM   22  N   UNL     1      -6.665   5.242  72.372  1.00  0.00    -0.066 N  
HETATM   23  H   UNL     1      -5.984   4.644  71.905  1.00  0.00     0.000 HD 
BRANCH  22  24
HETATM   24  C   UNL     1      -7.818   4.703  73.041  1.00  0.00    -0.096 C  
HETATM   25  N   UNL     1      -8.879   4.213  72.196  1.00  0.00    -0.106 N  
HETATM   26  O   UNL     1      -6.548   3.076  74.439  1.00  0.00    -0.024 OA 
HETATM   27  C   UNL     1      -9.472   3.091  72.738  1.00  0.00    -0.103 C  
HETATM   28  N   UNL     1      -8.687   2.637  73.748  1.00  0.00    -0.071 NA 
HETATM   29  O   UNL     1     -10.498   2.555  72.358  1.00  0.00    -0.146 OA 
HETATM   30  C   UNL     1      -7.558   3.397  73.831  1.00  0.00    -0.061 C  
BRANCH  25  31
HETATM   31  C   UNL     1      -9.433   4.957  71.110  1.00  0.00    -0.157 C  
HETATM   32  H   UNL     1     -10.562   6.515  70.913  1.00  0.00     0.000 HD 
HETATM   33  O   UNL     1     -10.193   6.019  71.635  1.00  0.00    -0.193 OA 
ENDBRANCH  25  31
ENDBRANCH  22  24
ENDBRANCH  20  22
ENDBRANCH  18  20
ENDBRANCH  17  18
ENDBRANCH  15  17
ENDBRANCH  13  15
ENDBRANCH  11  13
ENDBRANCH   5  11
ENDBRANCH   2   4
TORSDOF 10
ENDMDL
MODEL      496
REMARK 921   NORMALIZED FREE ENERGY PREDICTED BY IDOCK:    0.20 KCAL/MOL
REMARK 922        TOTAL FREE ENERGY PREDICTED BY IDOCK:   -1.68 KCAL/MOL
REMARK 923 INTER-LIGAND FREE ENERGY PREDICTED BY IDOCK:   -2.63 KCAL/MOL
REMARK 924 INTRA-LIGAND FREE ENERGY PREDICTED BY IDOCK:    0.95 KCAL/MOL
REMARK 927      BINDING AFFINITY PREDICTED BY RF-SCORE:    0.00 PKD
ROOT
HETATM    1  O   UNL     1      -6.326  12.596  72.573  1.00  0.00     1.701 OA 
HETATM    2  C   UNL     1      -5.197  12.536  71.736  1.00  0.00     0.025 C  
HETATM    3  H   UNL     1      -6.085  13.020  73.388  1.00  0.00     0.000 HD 
ENDROOT
BRANCH   2   4
HETATM    4  N   UNL     1      -5.561  11.896  70.507  1.00  0.00    -0.154 N  
HETATM    5  C   UNL     1      -6.518  12.515  69.613  1.00  0.00    -0.057 C  
HETATM    6  O   UNL     1      -5.142   9.740  71.268  1.00  0.00    -0.041 OA 
HETATM    7  C   UNL     1      -7.304  11.259  69.173  1.00  0.00    -0.104 C  
HETATM    8  N   UNL     1      -6.613  10.161  69.586  1.00  0.00    -0.058 NA 
HETATM    9  O   UNL     1      -8.326  11.211  68.505  1.00  0.00    -0.141 OA 
HETATM   10  C   UNL     1      -5.687  10.518  70.502  1.00  0.00    -0.097 C  
BRANCH   5  11
HETATM   11  N   UNL     1      -5.861  13.103  68.472  1.00  0.00    -0.076 N  
HETATM   12  H   UNL     1      -4.998  13.630  68.605  1.00  0.00     0.000 HD 
BRANCH  11  13
HETATM   13  C   UNL     1      -6.378  12.965  67.217  1.00  0.00    -0.008 C  
HETATM   14  O   UNL     1      -5.951  12.172  66.389  1.00  0.00    -0.070 OA 
BRANCH  13  15
HETATM   15  N   UNL     1      -7.479  13.757  67.016  1.00  0.00    -0.297 N  
HETATM   16  H   UNL     1      -8.412  13.348  67.039  1.00  0.00     0.000 HD 
BRANCH  15  17
HETATM   17  C   UNL     1      -7.316  15.159  66.773  1.00  0.00     0.451 C  
BRANCH  17  18
HETATM   18  N   UNL     1      -8.567  15.810  66.483  1.00  0.00    -0.286 N  
HETATM   19  H   UNL     1      -8.675  16.363  65.633  1.00  0.00     0.000 HD 
BRANCH  18  20
HETATM   20  C   UNL     1      -9.612  15.680  67.360  1.00  0.00    -0.217 C  
HETATM   21  O   UNL     1     -10.466  14.807  67.278  1.00  0.00    -0.260 OA 
BRANCH  20  22
HETATM   22  N   UNL     1      -9.588  16.632  68.352  1.00  0.00    -0.226 N  
HETATM   23  H   UNL     1      -9.803  16.404  69.323  1.00  0.00     0.000 HD 
BRANCH  22  24
HETATM   24  C   UNL     1      -9.243  17.966  67.943  1.00  0.00    -0.263 C  
HETATM   25  N   UNL     1      -7.837  18.289  67.927  1.00  0.00    -0.244 N  
HETATM   26  O   UNL     1     -10.482  17.884  65.781  1.00  0.00    -0.564 OA 
HETATM   27  C   UNL     1      -7.528  19.122  66.871  1.00  0.00    -0.218 C  
HETATM   28  N   UNL     1      -8.585  19.146  66.020  1.00  0.00    -0.461 NA 
HETATM   29  O   UNL     1      -6.474  19.707  66.690  1.00  0.00    -0.187 OA 
HETATM   30  C   UNL     1      -9.551  18.290  66.460  1.00  0.00    -0.320 C  
BRANCH  25  31
HETATM   31  C   UNL     1      -6.953  18.028  69.018  1.00  0.00    -0.248 C  
HETATM   32  H   UNL     1      -5.389  18.870  69.783  1.00  0.00     0.000 HD 
HETATM   33  O   UNL     1      -5.978  19.043  69.058  1.00  0.00    -0.211 OA 
ENDBRANCH  25  31
ENDBRANCH  22  24
ENDBRANCH  20  22
ENDBRANCH  18  20
ENDBRANCH  17  18
ENDBRANCH  15  17
ENDBRANCH  13  15
ENDBRANCH  11  13
ENDBRANCH   5  11
ENDBRANCH   2   4
TORSDOF 10
ENDMDL
MODEL      497
REMARK 921   NORMALIZED FREE ENERGY PREDICTED BY IDOCK:    1.25 KCAL/MOL
REMARK 922        TOTAL FREE ENERGY PREDICTED BY IDOCK:   -0.02 KCAL/MOL
REMARK 923 INTER-LIGAND FREE ENERGY PREDICTED BY IDOCK:    1.22 KCAL/MOL
REMARK 924 INTRA-LIGAND FREE ENERGY PREDICTED BY IDOCK:   -1.24 KCAL/MOL
REMARK 927      BINDING AFFINITY PREDICTED BY RF-SCORE:    0.00 PKD
ROOT
HETATM    1  O   UNL     1      -9.769  21.054  67.730  1.00  0.00    -0.231 OA 
HETATM    2  C   UNL     1      -9.784  20.822  66.342  1.00  0.00     0.207 C  
HETATM    3  H   UNL     1     -10.508  21.606  67.959  1.00  0.00     0.000 HD 
ENDROOT
BRANCH   2   4
HETATM    4  N   UNL     1      -8.670  19.990  65.998  1.00  0.00    -0.289 N  
HETATM    5  C   UNL     1      -7.576  19.804  66.930  1.00  0.00    -0.260 C  
HETATM    6  O   UNL     1      -8.870  20.320  63.706  1.00  0.00     4.232 OA 
HETATM    7  C   UNL     1      -6.390  19.842  65.939  1.00  0.00    -0.201 C  
HETATM    8  N   UNL     1      -6.890  19.764  64.676  1.00  0.00    -0.269 NA 
HETATM    9  O   UNL     1      -5.197  19.861  66.202  1.00  0.00    -0.164 OA 
HETATM   10  C   UNL     1      -8.217  20.014  64.690  1.00  0.00     2.210 C  
BRANCH   5  11
HETATM   11  N   UNL     1      -7.643  18.510  67.561  1.00  0.00    -0.227 N  
HETATM   12  H   UNL     1      -7.018  17.767  67.251  1.00  0.00     0.000 HD 
BRANCH  11  13
HETATM   13  C   UNL     1      -8.533  18.265  68.567  1.00  0.00    -0.307 C  
HETATM   14  O   UNL     1      -8.716  19.022  69.510  1.00  0.00     0.136 OA 
BRANCH  13  15
HETATM   15  N   UNL     1      -9.254  17.119  68.358  1.00  0.00    -0.258 N  
HETATM   16  H   UNL     1      -9.665  16.624  69.149  1.00  0.00     0.000 HD 
BRANCH  15  17
HETATM   17  C   UNL     1      -9.427  16.615  67.028  1.00  0.00    -0.230 C  
BRANCH  17  18
HETATM   18  N   UNL     1      -9.220  15.193  66.954  1.00  0.00    -0.224 N  
HETATM   19  H   UNL     1      -8.492  14.809  66.351  1.00  0.00     0.000 HD 
BRANCH  18  20
HETATM   20  C   UNL     1     -10.008  14.357  67.701  1.00  0.00    -0.224 C  
HETATM   21  O   UNL     1     -10.039  14.362  68.924  1.00  0.00    -0.230 OA 
BRANCH  20  22
HETATM   22  N   UNL     1     -10.772  13.520  66.923  1.00  0.00    -0.273 N  
HETATM   23  H   UNL     1     -11.777  13.416  67.068  1.00  0.00     0.000 HD 
BRANCH  22  24
HETATM   24  C   UNL     1     -10.075  12.798  65.893  1.00  0.00    -0.276 C  
HETATM   25  N   UNL     1      -9.367  11.613  66.309  1.00  0.00    -0.212 N  
HETATM   26  O   UNL     1     -12.048  12.555  64.389  1.00  0.00    -0.377 OA 
HETATM   27  C   UNL     1      -9.440  10.625  65.347  1.00  0.00    -0.215 C  
HETATM   28  N   UNL     1     -10.389  10.976  64.443  1.00  0.00    -0.339 NA 
HETATM   29  O   UNL     1      -8.805   9.585  65.324  1.00  0.00    -0.159 OA 
HETATM   30  C   UNL     1     -10.988  12.138  64.832  1.00  0.00    -0.309 C  
BRANCH  25  31
HETATM   31  C   UNL     1      -8.468  11.575  67.418  1.00  0.00    -0.147 C  
HETATM   32  H   UNL     1      -6.617  12.034  67.736  1.00  0.00     0.000 HD 
HETATM   33  O   UNL     1      -7.215  12.059  66.998  1.00  0.00    -0.143 OA 
ENDBRANCH  25  31
ENDBRANCH  22  24
ENDBRANCH  20  22
ENDBRANCH  18  20
ENDBRANCH  17  18
ENDBRANCH  15  17
ENDBRANCH  13  15
ENDBRANCH  11  13
ENDBRANCH   5  11
ENDBRANCH   2   4
TORSDOF 10
ENDMDL
MODEL      498
REMARK 921   NORMALIZED FREE ENERGY PREDICTED BY IDOCK:    1.39 KCAL/MOL
REMARK 922        TOTAL FREE ENERGY PREDICTED BY IDOCK:    0.21 KCAL/MOL
REMARK 923 INTER-LIGAND FREE ENERGY PREDICTED BY IDOCK:   -4.10 KCAL/MOL
REMARK 924 INTRA-LIGAND FREE ENERGY PREDICTED BY IDOCK:    4.31 KCAL/MOL
REMARK 927      BINDING AFFINITY PREDICTED BY RF-SCORE:    0.00 PKD
ROOT
HETATM    1  O   UNL     1      -5.605  10.052  68.773  1.00  0.00    -0.036 OA 
HETATM    2  C   UNL     1      -6.932   9.641  69.001  1.00  0.00    -0.058 C  
HETATM    3  H   UNL     1      -5.603  10.736  68.114  1.00  0.00     0.000 HD 
ENDROOT
BRANCH   2   4
HETATM    4  N   UNL     1      -6.935   8.609  69.995  1.00  0.00    -0.042 N  
HETATM    5  C   UNL     1      -7.421   8.880  71.333  1.00  0.00    -0.079 C  
HETATM    6  O   UNL     1      -5.155   7.433  69.073  1.00  0.00    -0.014 OA 
HETATM    7  C   UNL     1      -6.379   8.080  72.147  1.00  0.00    -0.051 C  
HETATM    8  N   UNL     1      -5.673   7.301  71.284  1.00  0.00    -0.035 NA 
HETATM    9  O   UNL     1      -6.231   8.062  73.360  1.00  0.00    -0.071 OA 
HETATM   10  C   UNL     1      -5.875   7.720  70.015  1.00  0.00    -0.023 C  
BRANCH   5  11
HETATM   11  N   UNL     1      -8.733   8.318  71.535  1.00  0.00    -0.148 N  
HETATM   12  H   UNL     1      -8.826   7.407  71.982  1.00  0.00     0.000 HD 
BRANCH  11  13
HETATM   13  C   UNL     1      -9.852   8.989  71.135  1.00  0.00    -0.300 C  
HETATM   14  O   UNL     1     -10.752   9.323  71.894  1.00  0.00    -0.339 OA 
BRANCH  13  15
HETATM   15  N   UNL     1      -9.817   9.317  69.805  1.00  0.00    -0.178 N  
HETATM   16  H   UNL     1      -8.923   9.380  69.319  1.00  0.00     0.000 HD 
BRANCH  15  17
HETATM   17  C   UNL     1     -11.037   9.572  69.099  1.00  0.00    -0.053 C  
BRANCH  17  18
HETATM   18  N   UNL     1     -10.898   9.363  67.681  1.00  0.00    -0.459 N  
HETATM   19  H   UNL     1     -11.299  10.029  67.021  1.00  0.00     0.000 HD 
BRANCH  18  20
HETATM   20  C   UNL     1     -10.222   8.261  67.226  1.00  0.00    -0.274 C  
HETATM   21  O   UNL     1      -9.328   8.307  66.392  1.00  0.00    -0.186 OA 
BRANCH  20  22
HETATM   22  N   UNL     1     -10.652   7.098  67.821  1.00  0.00    -0.272 N  
HETATM   23  H   UNL     1     -11.602   6.748  67.697  1.00  0.00     0.000 HD 
BRANCH  22  24
HETATM   24  C   UNL     1      -9.685   6.403  68.626  1.00  0.00    -0.123 C  
HETATM   25  N   UNL     1     -10.133   5.955  69.922  1.00  0.00    -0.183 N  
HETATM   26  O   UNL     1      -9.110   4.700  66.899  1.00  0.00    -0.114 OA 
HETATM   27  C   UNL     1      -9.575   4.736  70.249  1.00  0.00    -0.199 C  
HETATM   28  N   UNL     1      -9.007   4.211  69.135  1.00  0.00    -0.100 NA 
HETATM   29  O   UNL     1      -9.617   4.185  71.336  1.00  0.00    -0.146 OA 
HETATM   30  C   UNL     1      -9.244   5.027  68.068  1.00  0.00    -0.119 C  
BRANCH  25  31
HETATM   31  C   UNL     1     -10.815   6.793  70.857  1.00  0.00    -0.249 C  
HETATM   32  H   UNL     1     -11.611   6.579  72.606  1.00  0.00     0.000 HD 
HETATM   33  O   UNL     1     -11.157   6.022  71.984  1.00  0.00    -0.250 OA 
ENDBRANCH  25  31
ENDBRANCH  22  24
ENDBRANCH  20  22
ENDBRANCH  18  20
ENDBRANCH  17  18
ENDBRANCH  15  17
ENDBRANCH  13  15
ENDBRANCH  11  13
ENDBRANCH   5  11
ENDBRANCH   2   4
TORSDOF 10
ENDMDL
MODEL      499
REMARK 921   NORMALIZED FREE ENERGY PREDICTED BY IDOCK:    1.73 KCAL/MOL
REMARK 922        TOTAL FREE ENERGY PREDICTED BY IDOCK:    0.75 KCAL/MOL
REMARK 923 INTER-LIGAND FREE ENERGY PREDICTED BY IDOCK:   -3.56 KCAL/MOL
REMARK 924 INTRA-LIGAND FREE ENERGY PREDICTED BY IDOCK:    4.31 KCAL/MOL
REMARK 927      BINDING AFFINITY PREDICTED BY RF-SCORE:    0.00 PKD
ROOT
HETATM    1  O   UNL     1      -5.560  10.091  68.750  1.00  0.00    -0.036 OA 
HETATM    2  C   UNL     1      -6.907   9.715  68.902  1.00  0.00    -0.054 C  
HETATM    3  H   UNL     1      -5.514  10.858  68.192  1.00  0.00     0.000 HD 
ENDROOT
BRANCH   2   4
HETATM    4  N   UNL     1      -6.976   8.559  69.744  1.00  0.00    -0.046 N  
HETATM    5  C   UNL     1      -7.519   8.657  71.084  1.00  0.00    -0.095 C  
HETATM    6  O   UNL     1      -5.177   7.474  68.750  1.00  0.00    -0.020 OA 
HETATM    7  C   UNL     1      -6.531   7.729  71.827  1.00  0.00    -0.043 C  
HETATM    8  N   UNL     1      -5.800   7.057  70.897  1.00  0.00    -0.027 NA 
HETATM    9  O   UNL     1      -6.441   7.543  73.031  1.00  0.00    -0.059 OA 
HETATM   10  C   UNL     1      -5.935   7.649  69.690  1.00  0.00    -0.027 C  
BRANCH   5  11
HETATM   11  N   UNL     1      -8.850   8.105  71.150  1.00  0.00    -0.138 N  
HETATM   12  H   UNL     1      -8.982   7.149  71.477  1.00  0.00     0.000 HD 
BRANCH  11  13
HETATM   13  C   UNL     1      -9.935   8.845  70.779  1.00  0.00    -0.226 C  
HETATM   14  O   UNL     1     -10.943   8.963  71.462  1.00  0.00    -0.275 OA 
BRANCH  13  15
HETATM   15  N   UNL     1      -9.736   9.505  69.594  1.00  0.00    -0.187 N  
HETATM   16  H   UNL     1      -8.806   9.536  69.177  1.00  0.00     0.000 HD 
BRANCH  15  17
HETATM   17  C   UNL     1     -10.837  10.152  68.943  1.00  0.00    -0.223 C  
BRANCH  17  18
HETATM   18  N   UNL     1     -10.635  10.267  67.522  1.00  0.00    -0.248 N  
HETATM   19  H   UNL     1     -10.949  11.100  67.024  1.00  0.00     0.000 HD 
BRANCH  18  20
HETATM   20  C   UNL     1     -10.019   9.248  66.844  1.00  0.00    -0.233 C  
HETATM   21  O   UNL     1      -9.320   9.414  65.854  1.00  0.00    -0.192 OA 
BRANCH  20  22
HETATM   22  N   UNL     1     -10.263   8.018  67.409  1.00  0.00    -0.235 N  
HETATM   23  H   UNL     1     -11.094   7.838  67.972  1.00  0.00     0.000 HD 
BRANCH  22  24
HETATM   24  C   UNL     1      -9.279   7.000  67.159  1.00  0.00    -0.137 C  
HETATM   25  N   UNL     1      -9.652   5.963  66.228  1.00  0.00    -0.147 N  
HETATM   26  O   UNL     1      -7.452   8.575  66.534  1.00  0.00    -0.086 OA 
HETATM   27  C   UNL     1      -8.574   5.570  65.460  1.00  0.00    -0.150 C  
HETATM   28  N   UNL     1      -7.578   6.476  65.624  1.00  0.00    -0.082 NA 
HETATM   29  O   UNL     1      -8.524   4.606  64.717  1.00  0.00    -0.124 OA 
HETATM   30  C   UNL     1      -8.006   7.492  66.428  1.00  0.00    -0.107 C  
BRANCH  25  31
HETATM   31  C   UNL     1     -10.881   5.238  66.300  1.00  0.00    -0.112 C  
HETATM   32  H   UNL     1     -11.833   3.983  65.180  1.00  0.00     0.000 HD 
HETATM   33  O   UNL     1     -11.016   4.465  65.132  1.00  0.00    -0.251 OA 
ENDBRANCH  25  31
ENDBRANCH  22  24
ENDBRANCH  20  22
ENDBRANCH  18  20
ENDBRANCH  17  18
ENDBRANCH  15  17
ENDBRANCH  13  15
ENDBRANCH  11  13
ENDBRANCH   5  11
ENDBRANCH   2   4
TORSDOF 10
ENDMDL
