MODEL        1
REMARK 921   NORMALIZED FREE ENERGY PREDICTED BY IDOCK:   -6.58 KCAL/MOL
REMARK 922        TOTAL FREE ENERGY PREDICTED BY IDOCK:   -8.42 KCAL/MOL
REMARK 923 INTER-LIGAND FREE ENERGY PREDICTED BY IDOCK:   -8.12 KCAL/MOL
REMARK 924 INTRA-LIGAND FREE ENERGY PREDICTED BY IDOCK:   -0.30 KCAL/MOL
REMARK 927      BINDING AFFINITY PREDICTED BY RF-SCORE:    0.00 PKD
ROOT
HETATM    1  C   UNL     1     -14.076  15.186  72.052  1.00  0.00    -0.559 C  
HETATM    2  N   UNL     1     -12.879  15.970  72.370  1.00  0.00    -0.435 NA 
HETATM    3  C   UNL     1     -12.525  15.770  73.779  1.00  0.00    -0.608 C  
ENDROOT
BRANCH   2   4
HETATM    4  C   UNL     1     -11.734  15.617  71.513  1.00  0.00    -0.433 C  
BRANCH   4   5
HETATM    5  C   UNL     1     -12.112  15.108  70.119  1.00  0.00    -0.384 C  
BRANCH   5   6
HETATM    6  C   UNL     1     -11.031  14.236  69.464  1.00  0.00    -0.169 C  
BRANCH   6   7
HETATM    7  N   UNL     1     -11.622  13.015  68.857  1.00  0.00    -0.290 NA 
HETATM    8  C   UNL     1     -11.735  11.923  69.742  1.00  0.00    -0.331 A  
HETATM    9  C   UNL     1     -12.749  11.926  70.713  1.00  0.00    -0.242 A  
HETATM   10  C   UNL     1     -12.937  10.837  71.567  1.00  0.00    -0.562 A  
HETATM   11  C   UNL     1     -12.093   9.736  71.479  1.00  0.00    -0.493 A  
HETATM   12  C   UNL     1     -11.079   9.718  70.524  1.00  0.00    -0.384 A  
HETATM   13  C   UNL     1     -10.901  10.803  69.647  1.00  0.00    -0.294 A  
HETATM   14  C   UNL     1      -9.861  10.732  68.567  1.00  0.00    -0.182 C  
HETATM   15  C   UNL     1     -10.512  10.650  67.191  1.00  0.00    -0.295 C  
HETATM   16  C   UNL     1     -11.263  11.860  66.673  1.00  0.00    -0.384 A  
HETATM   17  C   UNL     1     -11.527  11.848  65.285  1.00  0.00    -0.313 A  
HETATM   18  C   UNL     1     -12.206  12.888  64.657  1.00  0.00    -0.494 A  
HETATM   19  C   UNL     1     -12.634  13.969  65.407  1.00  0.00    -0.529 A  
HETATM   20  C   UNL     1     -12.389  13.997  66.781  1.00  0.00    -0.368 A  
HETATM   21  C   UNL     1     -11.712  12.951  67.450  1.00  0.00    -0.372 A  
ENDBRANCH   6   7
ENDBRANCH   5   6
ENDBRANCH   4   5
ENDBRANCH   2   4
TORSDOF 4
ENDMDL
MODEL        2
REMARK 921   NORMALIZED FREE ENERGY PREDICTED BY IDOCK:   -6.40 KCAL/MOL
REMARK 922        TOTAL FREE ENERGY PREDICTED BY IDOCK:   -8.20 KCAL/MOL
REMARK 923 INTER-LIGAND FREE ENERGY PREDICTED BY IDOCK:   -7.87 KCAL/MOL
REMARK 924 INTRA-LIGAND FREE ENERGY PREDICTED BY IDOCK:   -0.33 KCAL/MOL
REMARK 927      BINDING AFFINITY PREDICTED BY RF-SCORE:    0.00 PKD
ROOT
HETATM    1  C   UNL     1     -12.782  13.882  65.538  1.00  0.00    -0.499 C  
HETATM    2  N   UNL     1     -12.198  12.548  65.370  1.00  0.00    -0.578 NA 
HETATM    3  C   UNL     1     -12.174  12.202  63.946  1.00  0.00    -0.489 C  
ENDROOT
BRANCH   2   4
HETATM    4  C   UNL     1     -10.839  12.456  65.930  1.00  0.00    -0.270 C  
BRANCH   4   5
HETATM    5  C   UNL     1     -10.677  11.424  67.050  1.00  0.00    -0.304 C  
BRANCH   5   6
HETATM    6  C   UNL     1     -11.908  11.298  67.959  1.00  0.00    -0.170 C  
BRANCH   6   7
HETATM    7  N   UNL     1     -11.572  11.637  69.367  1.00  0.00    -0.299 NA 
HETATM    8  C   UNL     1     -11.041  10.565  70.112  1.00  0.00    -0.298 A  
HETATM    9  C   UNL     1      -9.712  10.169  69.894  1.00  0.00    -0.195 A  
HETATM   10  C   UNL     1      -9.125   9.154  70.655  1.00  0.00    -0.307 A  
HETATM   11  C   UNL     1      -9.872   8.501  71.629  1.00  0.00    -0.317 A  
HETATM   12  C   UNL     1     -11.194   8.879  71.854  1.00  0.00    -0.447 A  
HETATM   13  C   UNL     1     -11.781   9.915  71.107  1.00  0.00    -0.478 A  
HETATM   14  C   UNL     1     -13.176  10.369  71.420  1.00  0.00    -0.459 C  
HETATM   15  C   UNL     1     -13.170  11.771  72.019  1.00  0.00    -0.460 C  
HETATM   16  C   UNL     1     -12.771  12.933  71.132  1.00  0.00    -0.366 A  
HETATM   17  C   UNL     1     -13.122  14.209  71.629  1.00  0.00    -0.425 A  
HETATM   18  C   UNL     1     -12.827  15.376  70.931  1.00  0.00    -0.536 A  
HETATM   19  C   UNL     1     -12.174  15.292  69.714  1.00  0.00    -0.326 A  
HETATM   20  C   UNL     1     -11.811  14.042  69.210  1.00  0.00    -0.389 A  
HETATM   21  C   UNL     1     -12.087  12.839  69.900  1.00  0.00    -0.259 A  
ENDBRANCH   6   7
ENDBRANCH   5   6
ENDBRANCH   4   5
ENDBRANCH   2   4
TORSDOF 4
ENDMDL
MODEL        3
REMARK 921   NORMALIZED FREE ENERGY PREDICTED BY IDOCK:   -6.39 KCAL/MOL
REMARK 922        TOTAL FREE ENERGY PREDICTED BY IDOCK:   -8.18 KCAL/MOL
REMARK 923 INTER-LIGAND FREE ENERGY PREDICTED BY IDOCK:   -7.96 KCAL/MOL
REMARK 924 INTRA-LIGAND FREE ENERGY PREDICTED BY IDOCK:   -0.23 KCAL/MOL
REMARK 927      BINDING AFFINITY PREDICTED BY RF-SCORE:    0.00 PKD
ROOT
HETATM    1  C   UNL     1     -10.144  20.210  68.145  1.00  0.00    -0.359 C  
HETATM    2  N   UNL     1     -10.623  18.946  67.578  1.00  0.00    -0.446 NA 
HETATM    3  C   UNL     1     -10.531  19.001  66.115  1.00  0.00    -0.467 C  
ENDROOT
BRANCH   2   4
HETATM    4  C   UNL     1      -9.872  17.784  68.082  1.00  0.00    -0.326 C  
BRANCH   4   5
HETATM    5  C   UNL     1     -10.550  17.035  69.234  1.00  0.00    -0.276 C  
BRANCH   5   6
HETATM    6  C   UNL     1     -10.226  15.535  69.272  1.00  0.00    -0.252 C  
BRANCH   6   7
HETATM    7  N   UNL     1     -11.436  14.718  68.989  1.00  0.00    -0.277 NA 
HETATM    8  C   UNL     1     -12.208  14.411  70.127  1.00  0.00    -0.341 A  
HETATM    9  C   UNL     1     -13.018  15.406  70.698  1.00  0.00    -0.450 A  
HETATM   10  C   UNL     1     -13.848  15.128  71.787  1.00  0.00    -0.605 A  
HETATM   11  C   UNL     1     -13.859  13.852  72.339  1.00  0.00    -0.668 A  
HETATM   12  C   UNL     1     -13.058  12.854  71.788  1.00  0.00    -0.458 A  
HETATM   13  C   UNL     1     -12.239  13.124  70.678  1.00  0.00    -0.402 A  
HETATM   14  C   UNL     1     -11.449  12.018  70.041  1.00  0.00    -0.183 C  
HETATM   15  C   UNL     1     -11.994  11.688  68.657  1.00  0.00    -0.311 C  
HETATM   16  C   UNL     1     -11.834  12.715  67.553  1.00  0.00    -0.396 A  
HETATM   17  C   UNL     1     -12.032  12.218  66.245  1.00  0.00    -0.307 A  
HETATM   18  C   UNL     1     -11.918  13.036  65.124  1.00  0.00    -0.440 A  
HETATM   19  C   UNL     1     -11.600  14.373  65.288  1.00  0.00    -0.353 A  
HETATM   20  C   UNL     1     -11.408  14.884  66.573  1.00  0.00    -0.319 A  
HETATM   21  C   UNL     1     -11.527  14.082  67.732  1.00  0.00    -0.322 A  
ENDBRANCH   6   7
ENDBRANCH   5   6
ENDBRANCH   4   5
ENDBRANCH   2   4
TORSDOF 4
ENDMDL
MODEL        4
REMARK 921   NORMALIZED FREE ENERGY PREDICTED BY IDOCK:   -6.39 KCAL/MOL
REMARK 922        TOTAL FREE ENERGY PREDICTED BY IDOCK:   -8.18 KCAL/MOL
REMARK 923 INTER-LIGAND FREE ENERGY PREDICTED BY IDOCK:   -7.55 KCAL/MOL
REMARK 924 INTRA-LIGAND FREE ENERGY PREDICTED BY IDOCK:   -0.64 KCAL/MOL
REMARK 927      BINDING AFFINITY PREDICTED BY RF-SCORE:    0.00 PKD
ROOT
HETATM    1  C   UNL     1     -10.306  12.186  64.900  1.00  0.00    -0.289 C  
HETATM    2  N   UNL     1     -11.290  12.987  64.166  1.00  0.00    -0.376 NA 
HETATM    3  C   UNL     1     -12.286  12.099  63.559  1.00  0.00    -0.574 C  
ENDROOT
BRANCH   2   4
HETATM    4  C   UNL     1     -11.961  13.976  65.027  1.00  0.00    -0.401 C  
BRANCH   4   5
HETATM    5  C   UNL     1     -12.266  13.487  66.446  1.00  0.00    -0.454 C  
BRANCH   5   6
HETATM    6  C   UNL     1     -12.028  14.548  67.530  1.00  0.00    -0.325 C  
BRANCH   6   7
HETATM    7  N   UNL     1     -11.463  13.937  68.762  1.00  0.00    -0.270 NA 
HETATM    8  C   UNL     1     -10.375  13.071  68.534  1.00  0.00    -0.239 A  
HETATM    9  C   UNL     1      -9.116  13.612  68.229  1.00  0.00    -0.193 A  
HETATM   10  C   UNL     1      -7.997  12.793  68.059  1.00  0.00    -0.160 A  
HETATM   11  C   UNL     1      -8.128  11.414  68.165  1.00  0.00    -0.137 A  
HETATM   12  C   UNL     1      -9.371  10.859  68.463  1.00  0.00    -0.181 A  
HETATM   13  C   UNL     1     -10.495  11.681  68.657  1.00  0.00    -0.234 A  
HETATM   14  C   UNL     1     -11.807  11.076  69.063  1.00  0.00    -0.399 C  
HETATM   15  C   UNL     1     -12.165  11.464  70.492  1.00  0.00    -0.478 C  
HETATM   16  C   UNL     1     -12.510  12.912  70.783  1.00  0.00    -0.370 A  
HETATM   17  C   UNL     1     -13.164  13.132  72.016  1.00  0.00    -0.543 A  
HETATM   18  C   UNL     1     -13.548  14.405  72.427  1.00  0.00    -0.578 A  
HETATM   19  C   UNL     1     -13.287  15.490  71.608  1.00  0.00    -0.585 A  
HETATM   20  C   UNL     1     -12.634  15.294  70.390  1.00  0.00    -0.421 A  
HETATM   21  C   UNL     1     -12.222  14.015  69.949  1.00  0.00    -0.340 A  
ENDBRANCH   6   7
ENDBRANCH   5   6
ENDBRANCH   4   5
ENDBRANCH   2   4
TORSDOF 4
ENDMDL
MODEL        5
REMARK 921   NORMALIZED FREE ENERGY PREDICTED BY IDOCK:   -6.31 KCAL/MOL
REMARK 922        TOTAL FREE ENERGY PREDICTED BY IDOCK:   -8.08 KCAL/MOL
REMARK 923 INTER-LIGAND FREE ENERGY PREDICTED BY IDOCK:   -7.40 KCAL/MOL
REMARK 924 INTRA-LIGAND FREE ENERGY PREDICTED BY IDOCK:   -0.68 KCAL/MOL
REMARK 927      BINDING AFFINITY PREDICTED BY RF-SCORE:    0.00 PKD
ROOT
HETATM    1  C   UNL     1     -14.035  15.200  71.793  1.00  0.00    -0.529 C  
HETATM    2  N   UNL     1     -12.699  15.801  71.864  1.00  0.00    -0.442 NA 
HETATM    3  C   UNL     1     -12.323  15.988  73.269  1.00  0.00    -0.537 C  
ENDROOT
BRANCH   2   4
HETATM    4  C   UNL     1     -11.681  14.988  71.177  1.00  0.00    -0.337 C  
BRANCH   4   5
HETATM    5  C   UNL     1     -10.999  15.682  69.995  1.00  0.00    -0.336 C  
BRANCH   5   6
HETATM    6  C   UNL     1     -11.895  15.821  68.757  1.00  0.00    -0.309 C  
BRANCH   6   7
HETATM    7  N   UNL     1     -11.092  15.783  67.506  1.00  0.00    -0.296 NA 
HETATM    8  C   UNL     1     -11.067  14.525  66.871  1.00  0.00    -0.325 A  
HETATM    9  C   UNL     1     -12.195  14.093  66.156  1.00  0.00    -0.465 A  
HETATM   10  C   UNL     1     -12.189  12.882  65.458  1.00  0.00    -0.527 A  
HETATM   11  C   UNL     1     -11.060  12.073  65.488  1.00  0.00    -0.361 A  
HETATM   12  C   UNL     1      -9.934  12.484  66.197  1.00  0.00    -0.267 A  
HETATM   13  C   UNL     1      -9.927  13.712  66.882  1.00  0.00    -0.260 A  
HETATM   14  C   UNL     1      -8.678  14.183  67.567  1.00  0.00    -0.208 C  
HETATM   15  C   UNL     1      -8.089  15.393  66.853  1.00  0.00    -0.259 C  
HETATM   16  C   UNL     1      -8.852  16.702  66.899  1.00  0.00    -0.235 A  
HETATM   17  C   UNL     1      -8.100  17.842  66.535  1.00  0.00    -0.303 A  
HETATM   18  C   UNL     1      -8.658  19.118  66.529  1.00  0.00    -0.330 A  
HETATM   19  C   UNL     1      -9.984  19.281  66.891  1.00  0.00    -0.443 A  
HETATM   20  C   UNL     1     -10.745  18.165  67.246  1.00  0.00    -0.336 A  
HETATM   21  C   UNL     1     -10.211  16.856  67.252  1.00  0.00    -0.297 A  
ENDBRANCH   6   7
ENDBRANCH   5   6
ENDBRANCH   4   5
ENDBRANCH   2   4
TORSDOF 4
ENDMDL
MODEL        6
REMARK 921   NORMALIZED FREE ENERGY PREDICTED BY IDOCK:   -6.29 KCAL/MOL
REMARK 922        TOTAL FREE ENERGY PREDICTED BY IDOCK:   -8.06 KCAL/MOL
REMARK 923 INTER-LIGAND FREE ENERGY PREDICTED BY IDOCK:   -7.31 KCAL/MOL
REMARK 924 INTRA-LIGAND FREE ENERGY PREDICTED BY IDOCK:   -0.75 KCAL/MOL
REMARK 927      BINDING AFFINITY PREDICTED BY RF-SCORE:    0.00 PKD
ROOT
HETATM    1  C   UNL     1     -12.648  12.094  63.509  1.00  0.00    -0.506 C  
HETATM    2  N   UNL     1     -11.604  12.438  64.479  1.00  0.00    -0.333 NA 
HETATM    3  C   UNL     1     -10.286  12.233  63.869  1.00  0.00    -0.429 C  
ENDROOT
BRANCH   2   4
HETATM    4  C   UNL     1     -11.721  13.824  64.963  1.00  0.00    -0.345 C  
BRANCH   4   5
HETATM    5  C   UNL     1     -12.152  13.956  66.426  1.00  0.00    -0.489 C  
BRANCH   5   6
HETATM    6  C   UNL     1     -11.772  12.749  67.295  1.00  0.00    -0.378 C  
BRANCH   6   7
HETATM    7  N   UNL     1     -11.091  13.181  68.544  1.00  0.00    -0.252 NA 
HETATM    8  C   UNL     1     -11.876  13.052  69.708  1.00  0.00    -0.311 A  
HETATM    9  C   UNL     1     -12.080  11.779  70.263  1.00  0.00    -0.426 A  
HETATM   10  C   UNL     1     -12.797  11.613  71.451  1.00  0.00    -0.461 A  
HETATM   11  C   UNL     1     -13.345  12.721  72.087  1.00  0.00    -0.593 A  
HETATM   12  C   UNL     1     -13.156  13.991  71.547  1.00  0.00    -0.436 A  
HETATM   13  C   UNL     1     -12.416  14.165  70.365  1.00  0.00    -0.424 A  
HETATM   14  C   UNL     1     -12.147  15.546  69.843  1.00  0.00    -0.378 C  
HETATM   15  C   UNL     1     -10.670  15.898  69.973  1.00  0.00    -0.343 C  
HETATM   16  C   UNL     1      -9.671  15.155  69.108  1.00  0.00    -0.232 A  
HETATM   17  C   UNL     1      -8.397  15.760  69.017  1.00  0.00    -0.236 A  
HETATM   18  C   UNL     1      -7.372  15.202  68.259  1.00  0.00    -0.114 A  
HETATM   19  C   UNL     1      -7.601  14.023  67.572  1.00  0.00    -0.195 A  
HETATM   20  C   UNL     1      -8.850  13.406  67.656  1.00  0.00    -0.200 A  
HETATM   21  C   UNL     1      -9.909  13.942  68.425  1.00  0.00    -0.229 A  
ENDBRANCH   6   7
ENDBRANCH   5   6
ENDBRANCH   4   5
ENDBRANCH   2   4
TORSDOF 4
ENDMDL
MODEL        7
REMARK 921   NORMALIZED FREE ENERGY PREDICTED BY IDOCK:   -6.29 KCAL/MOL
REMARK 922        TOTAL FREE ENERGY PREDICTED BY IDOCK:   -8.06 KCAL/MOL
REMARK 923 INTER-LIGAND FREE ENERGY PREDICTED BY IDOCK:   -7.26 KCAL/MOL
REMARK 924 INTRA-LIGAND FREE ENERGY PREDICTED BY IDOCK:   -0.80 KCAL/MOL
REMARK 927      BINDING AFFINITY PREDICTED BY RF-SCORE:    0.00 PKD
ROOT
HETATM    1  C   UNL     1     -10.665  15.111  65.014  1.00  0.00    -0.430 C  
HETATM    2  N   UNL     1     -11.418  14.021  64.387  1.00  0.00    -0.367 NA 
HETATM    3  C   UNL     1     -10.512  12.905  64.099  1.00  0.00    -0.406 C  
ENDROOT
BRANCH   2   4
HETATM    4  C   UNL     1     -12.535  13.555  65.226  1.00  0.00    -0.482 C  
BRANCH   4   5
HETATM    5  C   UNL     1     -12.398  13.885  66.715  1.00  0.00    -0.370 C  
BRANCH   5   6
HETATM    6  C   UNL     1     -11.878  12.716  67.563  1.00  0.00    -0.334 C  
BRANCH   6   7
HETATM    7  N   UNL     1     -11.228  13.204  68.808  1.00  0.00    -0.266 NA 
HETATM    8  C   UNL     1     -12.029  13.095  69.962  1.00  0.00    -0.321 A  
HETATM    9  C   UNL     1     -12.213  11.836  70.556  1.00  0.00    -0.438 A  
HETATM   10  C   UNL     1     -12.946  11.692  71.736  1.00  0.00    -0.483 A  
HETATM   11  C   UNL     1     -13.531  12.806  72.327  1.00  0.00    -0.591 A  
HETATM   12  C   UNL     1     -13.363  14.063  71.749  1.00  0.00    -0.465 A  
HETATM   13  C   UNL     1     -12.606  14.215  70.573  1.00  0.00    -0.410 A  
HETATM   14  C   UNL     1     -12.361  15.585  70.011  1.00  0.00    -0.345 C  
HETATM   15  C   UNL     1     -10.895  15.976  70.153  1.00  0.00    -0.349 C  
HETATM   16  C   UNL     1      -9.865  15.229  69.329  1.00  0.00    -0.255 A  
HETATM   17  C   UNL     1      -8.603  15.861  69.239  1.00  0.00    -0.247 A  
HETATM   18  C   UNL     1      -7.552  15.303  68.517  1.00  0.00    -0.119 A  
HETATM   19  C   UNL     1      -7.742  14.097  67.865  1.00  0.00    -0.161 A  
HETATM   20  C   UNL     1      -8.978  13.453  67.949  1.00  0.00    -0.201 A  
HETATM   21  C   UNL     1     -10.062  13.989  68.683  1.00  0.00    -0.217 A  
ENDBRANCH   6   7
ENDBRANCH   5   6
ENDBRANCH   4   5
ENDBRANCH   2   4
TORSDOF 4
ENDMDL
MODEL        8
REMARK 921   NORMALIZED FREE ENERGY PREDICTED BY IDOCK:   -6.15 KCAL/MOL
REMARK 922        TOTAL FREE ENERGY PREDICTED BY IDOCK:   -7.89 KCAL/MOL
REMARK 923 INTER-LIGAND FREE ENERGY PREDICTED BY IDOCK:   -7.22 KCAL/MOL
REMARK 924 INTRA-LIGAND FREE ENERGY PREDICTED BY IDOCK:   -0.67 KCAL/MOL
REMARK 927      BINDING AFFINITY PREDICTED BY RF-SCORE:    0.00 PKD
ROOT
HETATM    1  C   UNL     1     -14.258  15.012  71.980  1.00  0.00    -0.555 C  
HETATM    2  N   UNL     1     -13.012  15.773  71.854  1.00  0.00    -0.458 NA 
HETATM    3  C   UNL     1     -12.478  16.059  73.189  1.00  0.00    -0.526 C  
ENDROOT
BRANCH   2   4
HETATM    4  C   UNL     1     -12.000  15.064  71.053  1.00  0.00    -0.322 C  
BRANCH   4   5
HETATM    5  C   UNL     1     -11.208  15.953  70.090  1.00  0.00    -0.368 C  
BRANCH   5   6
HETATM    6  C   UNL     1      -9.795  15.433  69.787  1.00  0.00    -0.227 C  
BRANCH   6   7
HETATM    7  N   UNL     1      -9.281  15.991  68.509  1.00  0.00    -0.199 NA 
HETATM    8  C   UNL     1      -8.466  17.131  68.659  1.00  0.00    -0.258 A  
HETATM    9  C   UNL     1      -7.148  16.979  69.119  1.00  0.00    -0.221 A  
HETATM   10  C   UNL     1      -6.286  18.074  69.221  1.00  0.00    -0.244 A  
HETATM   11  C   UNL     1      -6.741  19.344  68.889  1.00  0.00    -0.348 A  
HETATM   12  C   UNL     1      -8.047  19.514  68.435  1.00  0.00    -0.377 A  
HETATM   13  C   UNL     1      -8.911  18.412  68.309  1.00  0.00    -0.323 A  
HETATM   14  C   UNL     1     -10.286  18.597  67.737  1.00  0.00    -0.427 C  
HETATM   15  C   UNL     1     -10.399  17.934  66.370  1.00  0.00    -0.365 C  
HETATM   16  C   UNL     1     -10.348  16.421  66.294  1.00  0.00    -0.337 A  
HETATM   17  C   UNL     1     -10.807  15.871  65.075  1.00  0.00    -0.444 A  
HETATM   18  C   UNL     1     -10.826  14.497  64.850  1.00  0.00    -0.436 A  
HETATM   19  C   UNL     1     -10.386  13.641  65.845  1.00  0.00    -0.304 A  
HETATM   20  C   UNL     1      -9.922  14.166  67.053  1.00  0.00    -0.260 A  
HETATM   21  C   UNL     1      -9.881  15.556  67.308  1.00  0.00    -0.224 A  
ENDBRANCH   6   7
ENDBRANCH   5   6
ENDBRANCH   4   5
ENDBRANCH   2   4
TORSDOF 4
ENDMDL
MODEL        9
REMARK 921   NORMALIZED FREE ENERGY PREDICTED BY IDOCK:   -6.12 KCAL/MOL
REMARK 922        TOTAL FREE ENERGY PREDICTED BY IDOCK:   -7.85 KCAL/MOL
REMARK 923 INTER-LIGAND FREE ENERGY PREDICTED BY IDOCK:   -7.10 KCAL/MOL
REMARK 924 INTRA-LIGAND FREE ENERGY PREDICTED BY IDOCK:   -0.75 KCAL/MOL
REMARK 927      BINDING AFFINITY PREDICTED BY RF-SCORE:    0.00 PKD
ROOT
HETATM    1  C   UNL     1     -10.412  18.262  67.977  1.00  0.00    -0.367 C  
HETATM    2  N   UNL     1     -10.295  16.829  67.689  1.00  0.00    -0.300 NA 
HETATM    3  C   UNL     1      -9.781  16.646  66.327  1.00  0.00    -0.304 C  
ENDROOT
BRANCH   2   4
HETATM    4  C   UNL     1      -9.423  16.133  68.650  1.00  0.00    -0.227 C  
BRANCH   4   5
HETATM    5  C   UNL     1      -9.686  14.630  68.780  1.00  0.00    -0.217 C  
BRANCH   5   6
HETATM    6  C   UNL     1     -11.064  14.290  69.364  1.00  0.00    -0.246 C  
BRANCH   6   7
HETATM    7  N   UNL     1     -11.609  13.045  68.763  1.00  0.00    -0.288 NA 
HETATM    8  C   UNL     1     -11.695  11.958  69.656  1.00  0.00    -0.343 A  
HETATM    9  C   UNL     1     -12.717  11.937  70.618  1.00  0.00    -0.176 A  
HETATM   10  C   UNL     1     -12.877  10.849  71.481  1.00  0.00    -0.560 A  
HETATM   11  C   UNL     1     -11.997   9.776  71.410  1.00  0.00    -0.493 A  
HETATM   12  C   UNL     1     -10.973   9.783  70.465  1.00  0.00    -0.384 A  
HETATM   13  C   UNL     1     -10.823  10.865  69.580  1.00  0.00    -0.286 A  
HETATM   14  C   UNL     1      -9.772  10.819  68.509  1.00  0.00    -0.184 C  
HETATM   15  C   UNL     1     -10.406  10.703  67.129  1.00  0.00    -0.275 C  
HETATM   16  C   UNL     1     -11.191  11.883  66.593  1.00  0.00    -0.384 A  
HETATM   17  C   UNL     1     -11.442  11.849  65.202  1.00  0.00    -0.304 A  
HETATM   18  C   UNL     1     -12.148  12.861  64.558  1.00  0.00    -0.473 A  
HETATM   19  C   UNL     1     -12.619  13.934  65.294  1.00  0.00    -0.508 A  
HETATM   20  C   UNL     1     -12.388  13.982  66.670  1.00  0.00    -0.408 A  
HETATM   21  C   UNL     1     -11.683  12.965  67.356  1.00  0.00    -0.372 A  
ENDBRANCH   6   7
ENDBRANCH   5   6
ENDBRANCH   4   5
ENDBRANCH   2   4
TORSDOF 4
ENDMDL
MODEL       10
REMARK 921   NORMALIZED FREE ENERGY PREDICTED BY IDOCK:   -6.11 KCAL/MOL
REMARK 922        TOTAL FREE ENERGY PREDICTED BY IDOCK:   -7.84 KCAL/MOL
REMARK 923 INTER-LIGAND FREE ENERGY PREDICTED BY IDOCK:   -7.79 KCAL/MOL
REMARK 924 INTRA-LIGAND FREE ENERGY PREDICTED BY IDOCK:   -0.05 KCAL/MOL
REMARK 927      BINDING AFFINITY PREDICTED BY RF-SCORE:    0.00 PKD
ROOT
HETATM    1  C   UNL     1     -11.644   8.058  72.459  1.00  0.00    -0.403 C  
HETATM    2  N   UNL     1     -12.287   8.834  71.395  1.00  0.00    -0.304 NA 
HETATM    3  C   UNL     1     -13.316   9.701  71.977  1.00  0.00    -0.457 C  
ENDROOT
BRANCH   2   4
HETATM    4  C   UNL     1     -11.323   9.645  70.631  1.00  0.00    -0.312 C  
BRANCH   4   5
HETATM    5  C   UNL     1     -11.943  10.804  69.846  1.00  0.00    -0.418 C  
BRANCH   5   6
HETATM    6  C   UNL     1     -10.963  11.950  69.557  1.00  0.00    -0.028 C  
BRANCH   6   7
HETATM    7  N   UNL     1     -11.685  13.235  69.356  1.00  0.00    -0.308 NA 
HETATM    8  C   UNL     1     -11.543  13.785  68.067  1.00  0.00    -0.333 A  
HETATM    9  C   UNL     1     -12.256  13.222  66.996  1.00  0.00    -0.310 A  
HETATM   10  C   UNL     1     -12.195  13.775  65.715  1.00  0.00    -0.495 A  
HETATM   11  C   UNL     1     -11.395  14.887  65.480  1.00  0.00    -0.339 A  
HETATM   12  C   UNL     1     -10.677  15.456  66.530  1.00  0.00    -0.308 A  
HETATM   13  C   UNL     1     -10.754  14.916  67.826  1.00  0.00    -0.271 A  
HETATM   14  C   UNL     1     -10.045  15.591  68.963  1.00  0.00    -0.234 C  
HETATM   15  C   UNL     1     -11.042  16.210  69.934  1.00  0.00    -0.357 C  
HETATM   16  C   UNL     1     -11.917  15.287  70.758  1.00  0.00    -0.384 A  
HETATM   17  C   UNL     1     -12.547  15.896  71.868  1.00  0.00    -0.502 A  
HETATM   18  C   UNL     1     -13.381  15.182  72.723  1.00  0.00    -0.596 A  
HETATM   19  C   UNL     1     -13.601  13.836  72.488  1.00  0.00    -0.680 A  
HETATM   20  C   UNL     1     -12.994  13.218  71.393  1.00  0.00    -0.398 A  
HETATM   21  C   UNL     1     -12.151  13.918  70.500  1.00  0.00    -0.356 A  
ENDBRANCH   6   7
ENDBRANCH   5   6
ENDBRANCH   4   5
ENDBRANCH   2   4
TORSDOF 4
ENDMDL
MODEL       11
REMARK 921   NORMALIZED FREE ENERGY PREDICTED BY IDOCK:   -6.06 KCAL/MOL
REMARK 922        TOTAL FREE ENERGY PREDICTED BY IDOCK:   -7.77 KCAL/MOL
REMARK 923 INTER-LIGAND FREE ENERGY PREDICTED BY IDOCK:   -7.07 KCAL/MOL
REMARK 924 INTRA-LIGAND FREE ENERGY PREDICTED BY IDOCK:   -0.70 KCAL/MOL
REMARK 927      BINDING AFFINITY PREDICTED BY RF-SCORE:    0.00 PKD
ROOT
HETATM    1  C   UNL     1     -10.434  13.280  64.330  1.00  0.00    -0.404 C  
HETATM    2  N   UNL     1     -11.827  13.566  63.976  1.00  0.00    -0.432 NA 
HETATM    3  C   UNL     1     -12.519  12.311  63.664  1.00  0.00    -0.541 C  
ENDROOT
BRANCH   2   4
HETATM    4  C   UNL     1     -12.544  14.279  65.047  1.00  0.00    -0.347 C  
BRANCH   4   5
HETATM    5  C   UNL     1     -12.487  13.598  66.418  1.00  0.00    -0.377 C  
BRANCH   5   6
HETATM    6  C   UNL     1     -11.799  14.441  67.500  1.00  0.00    -0.386 C  
BRANCH   6   7
HETATM    7  N   UNL     1     -11.121  13.578  68.502  1.00  0.00    -0.260 NA 
HETATM    8  C   UNL     1      -9.891  13.043  68.071  1.00  0.00    -0.224 A  
HETATM    9  C   UNL     1      -8.758  13.871  68.024  1.00  0.00    -0.183 A  
HETATM   10  C   UNL     1      -7.506  13.367  67.664  1.00  0.00    -0.182 A  
HETATM   11  C   UNL     1      -7.375  12.027  67.318  1.00  0.00    -0.151 A  
HETATM   12  C   UNL     1      -8.489  11.192  67.354  1.00  0.00    -0.134 A  
HETATM   13  C   UNL     1      -9.746  11.690  67.738  1.00  0.00    -0.177 A  
HETATM   14  C   UNL     1     -10.918  10.760  67.856  1.00  0.00    -0.344 C  
HETATM   15  C   UNL     1     -11.335  10.595  69.313  1.00  0.00    -0.346 C  
HETATM   16  C   UNL     1     -11.944  11.783  70.030  1.00  0.00    -0.421 A  
HETATM   17  C   UNL     1     -12.621  11.471  71.231  1.00  0.00    -0.452 A  
HETATM   18  C   UNL     1     -13.235  12.451  72.004  1.00  0.00    -0.514 A  
HETATM   19  C   UNL     1     -13.188  13.771  71.589  1.00  0.00    -0.450 A  
HETATM   20  C   UNL     1     -12.518  14.101  70.410  1.00  0.00    -0.424 A  
HETATM   21  C   UNL     1     -11.875  13.129  69.608  1.00  0.00    -0.324 A  
ENDBRANCH   6   7
ENDBRANCH   5   6
ENDBRANCH   4   5
ENDBRANCH   2   4
TORSDOF 4
ENDMDL
MODEL       12
REMARK 921   NORMALIZED FREE ENERGY PREDICTED BY IDOCK:   -6.03 KCAL/MOL
REMARK 922        TOTAL FREE ENERGY PREDICTED BY IDOCK:   -7.73 KCAL/MOL
REMARK 923 INTER-LIGAND FREE ENERGY PREDICTED BY IDOCK:   -7.09 KCAL/MOL
REMARK 924 INTRA-LIGAND FREE ENERGY PREDICTED BY IDOCK:   -0.64 KCAL/MOL
REMARK 927      BINDING AFFINITY PREDICTED BY RF-SCORE:    0.00 PKD
ROOT
HETATM    1  C   UNL     1      -9.983  18.503  68.573  1.00  0.00    -0.384 C  
HETATM    2  N   UNL     1     -10.690  17.482  67.794  1.00  0.00    -0.372 NA 
HETATM    3  C   UNL     1     -10.160  17.459  66.427  1.00  0.00    -0.327 C  
ENDROOT
BRANCH   2   4
HETATM    4  C   UNL     1     -10.581  16.142  68.395  1.00  0.00    -0.286 C  
BRANCH   4   5
HETATM    5  C   UNL     1     -10.787  14.983  67.416  1.00  0.00    -0.305 C  
BRANCH   5   6
HETATM    6  C   UNL     1     -11.872  13.989  67.854  1.00  0.00    -0.376 C  
BRANCH   6   7
HETATM    7  N   UNL     1     -11.551  12.610  67.400  1.00  0.00    -0.340 NA 
HETATM    8  C   UNL     1     -11.099  11.752  68.423  1.00  0.00    -0.237 A  
HETATM    9  C   UNL     1     -12.024  11.231  69.341  1.00  0.00    -0.410 A  
HETATM   10  C   UNL     1     -11.630  10.327  70.331  1.00  0.00    -0.411 A  
HETATM   11  C   UNL     1     -10.296   9.952  70.433  1.00  0.00    -0.322 A  
HETATM   12  C   UNL     1      -9.364  10.464  69.533  1.00  0.00    -0.150 A  
HETATM   13  C   UNL     1      -9.760  11.356  68.521  1.00  0.00    -0.199 A  
HETATM   14  C   UNL     1      -8.762  11.830  67.505  1.00  0.00    -0.159 C  
HETATM   15  C   UNL     1      -9.071  11.254  66.129  1.00  0.00    -0.216 C  
HETATM   16  C   UNL     1     -10.325  11.719  65.416  1.00  0.00    -0.311 A  
HETATM   17  C   UNL     1     -10.366  11.429  64.033  1.00  0.00    -0.418 A  
HETATM   18  C   UNL     1     -11.448  11.792  63.238  1.00  0.00    -0.332 A  
HETATM   19  C   UNL     1     -12.517  12.460  63.810  1.00  0.00    -0.593 A  
HETATM   20  C   UNL     1     -12.499  12.748  65.176  1.00  0.00    -0.565 A  
HETATM   21  C   UNL     1     -11.419  12.383  66.013  1.00  0.00    -0.382 A  
ENDBRANCH   6   7
ENDBRANCH   5   6
ENDBRANCH   4   5
ENDBRANCH   2   4
TORSDOF 4
ENDMDL
MODEL       13
REMARK 921   NORMALIZED FREE ENERGY PREDICTED BY IDOCK:   -5.86 KCAL/MOL
REMARK 922        TOTAL FREE ENERGY PREDICTED BY IDOCK:   -7.53 KCAL/MOL
REMARK 923 INTER-LIGAND FREE ENERGY PREDICTED BY IDOCK:   -6.98 KCAL/MOL
REMARK 924 INTRA-LIGAND FREE ENERGY PREDICTED BY IDOCK:   -0.54 KCAL/MOL
REMARK 927      BINDING AFFINITY PREDICTED BY RF-SCORE:    0.00 PKD
ROOT
HETATM    1  C   UNL     1      -9.368   9.133  65.812  1.00  0.00    -0.245 C  
HETATM    2  N   UNL     1      -9.334  10.340  66.643  1.00  0.00    -0.159 NA 
HETATM    3  C   UNL     1      -9.444  11.525  65.786  1.00  0.00    -0.234 C  
ENDROOT
BRANCH   2   4
HETATM    4  C   UNL     1     -10.402  10.355  67.656  1.00  0.00    -0.219 C  
BRANCH   4   5
HETATM    5  C   UNL     1     -10.313  11.505  68.664  1.00  0.00    -0.226 C  
BRANCH   5   6
HETATM    6  C   UNL     1     -11.632  11.791  69.395  1.00  0.00    -0.322 C  
BRANCH   6   7
HETATM    7  N   UNL     1     -11.997  13.229  69.301  1.00  0.00    -0.317 NA 
HETATM    8  C   UNL     1     -11.709  13.820  68.054  1.00  0.00    -0.355 A  
HETATM    9  C   UNL     1     -12.535  13.542  66.954  1.00  0.00    -0.162 A  
HETATM   10  C   UNL     1     -12.324  14.156  65.717  1.00  0.00    -0.481 A  
HETATM   11  C   UNL     1     -11.264  15.040  65.556  1.00  0.00    -0.344 A  
HETATM   12  C   UNL     1     -10.431  15.324  66.636  1.00  0.00    -0.290 A  
HETATM   13  C   UNL     1     -10.653  14.725  67.889  1.00  0.00    -0.248 A  
HETATM   14  C   UNL     1      -9.803  15.107  69.065  1.00  0.00    -0.238 C  
HETATM   15  C   UNL     1     -10.615  15.887  70.092  1.00  0.00    -0.302 C  
HETATM   16  C   UNL     1     -11.704  15.160  70.856  1.00  0.00    -0.378 A  
HETATM   17  C   UNL     1     -12.164  15.825  72.015  1.00  0.00    -0.548 A  
HETATM   18  C   UNL     1     -13.159  15.286  72.825  1.00  0.00    -0.561 A  
HETATM   19  C   UNL     1     -13.716  14.063  72.492  1.00  0.00    -0.651 A  
HETATM   20  C   UNL     1     -13.281  13.395  71.347  1.00  0.00    -0.329 A  
HETATM   21  C   UNL     1     -12.279  13.920  70.498  1.00  0.00    -0.373 A  
ENDBRANCH   6   7
ENDBRANCH   5   6
ENDBRANCH   4   5
ENDBRANCH   2   4
TORSDOF 4
ENDMDL
MODEL       14
REMARK 921   NORMALIZED FREE ENERGY PREDICTED BY IDOCK:   -5.85 KCAL/MOL
REMARK 922        TOTAL FREE ENERGY PREDICTED BY IDOCK:   -7.51 KCAL/MOL
REMARK 923 INTER-LIGAND FREE ENERGY PREDICTED BY IDOCK:   -6.92 KCAL/MOL
REMARK 924 INTRA-LIGAND FREE ENERGY PREDICTED BY IDOCK:   -0.59 KCAL/MOL
REMARK 927      BINDING AFFINITY PREDICTED BY RF-SCORE:    0.00 PKD
ROOT
HETATM    1  C   UNL     1      -7.717  18.248  68.414  1.00  0.00    -0.299 C  
HETATM    2  N   UNL     1      -7.969  17.177  67.445  1.00  0.00    -0.177 NA 
HETATM    3  C   UNL     1      -7.232  17.456  66.208  1.00  0.00    -0.311 C  
ENDROOT
BRANCH   2   4
HETATM    4  C   UNL     1      -7.593  15.851  67.963  1.00  0.00    -0.129 C  
BRANCH   4   5
HETATM    5  C   UNL     1      -8.775  14.941  68.309  1.00  0.00    -0.166 C  
BRANCH   5   6
HETATM    6  C   UNL     1     -10.057  15.702  68.673  1.00  0.00    -0.210 C  
BRANCH   6   7
HETATM    7  N   UNL     1     -11.264  14.872  68.415  1.00  0.00    -0.278 NA 
HETATM    8  C   UNL     1     -11.911  14.411  69.580  1.00  0.00    -0.330 A  
HETATM    9  C   UNL     1     -12.689  15.304  70.333  1.00  0.00    -0.400 A  
HETATM   10  C   UNL     1     -13.399  14.875  71.458  1.00  0.00    -0.476 A  
HETATM   11  C   UNL     1     -13.318  13.547  71.860  1.00  0.00    -0.529 A  
HETATM   12  C   UNL     1     -12.546  12.649  71.127  1.00  0.00    -0.354 A  
HETATM   13  C   UNL     1     -11.849  13.072  69.982  1.00  0.00    -0.355 A  
HETATM   14  C   UNL     1     -11.093  12.075  69.152  1.00  0.00    -0.272 C  
HETATM   15  C   UNL     1     -11.762  11.877  67.798  1.00  0.00    -0.362 C  
HETATM   16  C   UNL     1     -11.742  13.024  66.807  1.00  0.00    -0.440 A  
HETATM   17  C   UNL     1     -12.053  12.666  65.475  1.00  0.00    -0.515 A  
HETATM   18  C   UNL     1     -12.075  13.605  64.448  1.00  0.00    -0.470 A  
HETATM   19  C   UNL     1     -11.782  14.928  64.732  1.00  0.00    -0.402 A  
HETATM   20  C   UNL     1     -11.480  15.302  66.042  1.00  0.00    -0.085 A  
HETATM   21  C   UNL     1     -11.460  14.374  67.109  1.00  0.00    -0.362 A  
ENDBRANCH   6   7
ENDBRANCH   5   6
ENDBRANCH   4   5
ENDBRANCH   2   4
TORSDOF 4
ENDMDL
MODEL       15
REMARK 921   NORMALIZED FREE ENERGY PREDICTED BY IDOCK:   -5.85 KCAL/MOL
REMARK 922        TOTAL FREE ENERGY PREDICTED BY IDOCK:   -7.51 KCAL/MOL
REMARK 923 INTER-LIGAND FREE ENERGY PREDICTED BY IDOCK:   -7.02 KCAL/MOL
REMARK 924 INTRA-LIGAND FREE ENERGY PREDICTED BY IDOCK:   -0.49 KCAL/MOL
REMARK 927      BINDING AFFINITY PREDICTED BY RF-SCORE:    0.00 PKD
ROOT
HETATM    1  C   UNL     1      -8.466  19.652  66.297  1.00  0.00    -0.360 C  
HETATM    2  N   UNL     1      -9.355  18.490  66.207  1.00  0.00    -0.450 NA 
HETATM    3  C   UNL     1      -8.571  17.262  66.373  1.00  0.00    -0.259 C  
ENDROOT
BRANCH   2   4
HETATM    4  C   UNL     1     -10.436  18.531  67.207  1.00  0.00    -0.419 C  
BRANCH   4   5
HETATM    5  C   UNL     1     -10.782  17.177  67.832  1.00  0.00    -0.355 C  
BRANCH   5   6
HETATM    6  C   UNL     1     -10.512  17.104  69.341  1.00  0.00    -0.203 C  
BRANCH   6   7
HETATM    7  N   UNL     1     -10.427  15.694  69.804  1.00  0.00    -0.289 NA 
HETATM    8  C   UNL     1      -9.579  14.878  69.028  1.00  0.00    -0.204 A  
HETATM    9  C   UNL     1      -8.188  15.004  69.167  1.00  0.00    -0.188 A  
HETATM   10  C   UNL     1      -7.312  14.172  68.466  1.00  0.00    -0.120 A  
HETATM   11  C   UNL     1      -7.817  13.217  67.592  1.00  0.00    -0.168 A  
HETATM   12  C   UNL     1      -9.195  13.082  67.437  1.00  0.00    -0.208 A  
HETATM   13  C   UNL     1     -10.081  13.902  68.159  1.00  0.00    -0.250 A  
HETATM   14  C   UNL     1     -11.562  13.687  68.049  1.00  0.00    -0.368 C  
HETATM   15  C   UNL     1     -12.130  13.145  69.355  1.00  0.00    -0.285 C  
HETATM   16  C   UNL     1     -12.145  14.053  70.569  1.00  0.00    -0.424 A  
HETATM   17  C   UNL     1     -12.989  13.627  71.620  1.00  0.00    -0.448 A  
HETATM   18  C   UNL     1     -13.114  14.353  72.801  1.00  0.00    -0.595 A  
HETATM   19  C   UNL     1     -12.398  15.527  72.955  1.00  0.00    -0.554 A  
HETATM   20  C   UNL     1     -11.553  15.960  71.931  1.00  0.00    -0.542 A  
HETATM   21  C   UNL     1     -11.396  15.239  70.724  1.00  0.00    -0.331 A  
ENDBRANCH   6   7
ENDBRANCH   5   6
ENDBRANCH   4   5
ENDBRANCH   2   4
TORSDOF 4
ENDMDL
MODEL       16
REMARK 921   NORMALIZED FREE ENERGY PREDICTED BY IDOCK:   -5.81 KCAL/MOL
REMARK 922        TOTAL FREE ENERGY PREDICTED BY IDOCK:   -7.46 KCAL/MOL
REMARK 923 INTER-LIGAND FREE ENERGY PREDICTED BY IDOCK:   -7.16 KCAL/MOL
REMARK 924 INTRA-LIGAND FREE ENERGY PREDICTED BY IDOCK:   -0.30 KCAL/MOL
REMARK 927      BINDING AFFINITY PREDICTED BY RF-SCORE:    0.00 PKD
ROOT
HETATM    1  C   UNL     1     -11.086   6.516  69.201  1.00  0.00    -0.326 C  
HETATM    2  N   UNL     1     -10.756   7.906  69.527  1.00  0.00    -0.223 NA 
HETATM    3  C   UNL     1     -10.105   7.958  70.840  1.00  0.00    -0.190 C  
ENDROOT
BRANCH   2   4
HETATM    4  C   UNL     1      -9.888   8.530  68.514  1.00  0.00    -0.173 C  
BRANCH   4   5
HETATM    5  C   UNL     1     -10.477   9.775  67.845  1.00  0.00    -0.288 C  
BRANCH   5   6
HETATM    6  C   UNL     1     -10.094  11.090  68.537  1.00  0.00    -0.190 C  
BRANCH   6   7
HETATM    7  N   UNL     1     -11.240  12.036  68.563  1.00  0.00    -0.233 NA 
HETATM    8  C   UNL     1     -11.378  12.814  67.395  1.00  0.00    -0.313 A  
HETATM    9  C   UNL     1     -11.897  12.223  66.232  1.00  0.00    -0.387 A  
HETATM   10  C   UNL     1     -12.110  12.972  65.073  1.00  0.00    -0.470 A  
HETATM   11  C   UNL     1     -11.780  14.322  65.052  1.00  0.00    -0.383 A  
HETATM   12  C   UNL     1     -11.259  14.924  66.196  1.00  0.00    -0.325 A  
HETATM   13  C   UNL     1     -11.065  14.179  67.372  1.00  0.00    -0.318 A  
HETATM   14  C   UNL     1     -10.586  14.859  68.621  1.00  0.00    -0.251 C  
HETATM   15  C   UNL     1     -11.685  14.894  69.676  1.00  0.00    -0.356 C  
HETATM   16  C   UNL     1     -12.121  13.587  70.309  1.00  0.00    -0.425 A  
HETATM   17  C   UNL     1     -12.867  13.724  71.502  1.00  0.00    -0.445 A  
HETATM   18  C   UNL     1     -13.338  12.619  72.205  1.00  0.00    -0.570 A  
HETATM   19  C   UNL     1     -13.070  11.347  71.728  1.00  0.00    -0.523 A  
HETATM   20  C   UNL     1     -12.341  11.192  70.547  1.00  0.00    -0.454 A  
HETATM   21  C   UNL     1     -11.858  12.295  69.805  1.00  0.00    -0.318 A  
ENDBRANCH   6   7
ENDBRANCH   5   6
ENDBRANCH   4   5
ENDBRANCH   2   4
TORSDOF 4
ENDMDL
MODEL       17
REMARK 921   NORMALIZED FREE ENERGY PREDICTED BY IDOCK:   -5.76 KCAL/MOL
REMARK 922        TOTAL FREE ENERGY PREDICTED BY IDOCK:   -7.40 KCAL/MOL
REMARK 923 INTER-LIGAND FREE ENERGY PREDICTED BY IDOCK:   -6.57 KCAL/MOL
REMARK 924 INTRA-LIGAND FREE ENERGY PREDICTED BY IDOCK:   -0.84 KCAL/MOL
REMARK 927      BINDING AFFINITY PREDICTED BY RF-SCORE:    0.00 PKD
ROOT
HETATM    1  C   UNL     1      -7.993   8.019  69.006  1.00  0.00    -0.114 C  
HETATM    2  N   UNL     1      -8.715   9.224  69.425  1.00  0.00    -0.140 NA 
HETATM    3  C   UNL     1      -9.003   9.145  70.860  1.00  0.00    -0.237 C  
ENDROOT
BRANCH   2   4
HETATM    4  C   UNL     1      -7.966  10.458  69.132  1.00  0.00    -0.141 C  
BRANCH   4   5
HETATM    5  C   UNL     1      -8.778  11.549  68.430  1.00  0.00    -0.160 C  
BRANCH   5   6
HETATM    6  C   UNL     1      -9.999  11.017  67.665  1.00  0.00    -0.173 C  
BRANCH   6   7
HETATM    7  N   UNL     1     -11.178  11.903  67.855  1.00  0.00    -0.243 NA 
HETATM    8  C   UNL     1     -11.440  12.762  66.769  1.00  0.00    -0.343 A  
HETATM    9  C   UNL     1     -12.024  12.240  65.604  1.00  0.00    -0.373 A  
HETATM   10  C   UNL     1     -12.359  13.066  64.529  1.00  0.00    -0.461 A  
HETATM   11  C   UNL     1     -12.089  14.428  64.594  1.00  0.00    -0.485 A  
HETATM   12  C   UNL     1     -11.505  14.962  65.741  1.00  0.00    -0.281 A  
HETATM   13  C   UNL     1     -11.187  14.138  66.834  1.00  0.00    -0.326 A  
HETATM   14  C   UNL     1     -10.640  14.740  68.095  1.00  0.00    -0.241 C  
HETATM   15  C   UNL     1     -11.653  14.639  69.229  1.00  0.00    -0.335 C  
HETATM   16  C   UNL     1     -11.983  13.268  69.784  1.00  0.00    -0.391 A  
HETATM   17  C   UNL     1     -12.637  13.274  71.037  1.00  0.00    -0.408 A  
HETATM   18  C   UNL     1     -13.004  12.096  71.680  1.00  0.00    -0.427 A  
HETATM   19  C   UNL     1     -12.721  10.880  71.082  1.00  0.00    -0.530 A  
HETATM   20  C   UNL     1     -12.083  10.853  69.841  1.00  0.00    -0.428 A  
HETATM   21  C   UNL     1     -11.706  12.033  69.157  1.00  0.00    -0.330 A  
ENDBRANCH   6   7
ENDBRANCH   5   6
ENDBRANCH   4   5
ENDBRANCH   2   4
TORSDOF 4
ENDMDL
MODEL       18
REMARK 921   NORMALIZED FREE ENERGY PREDICTED BY IDOCK:   -5.75 KCAL/MOL
REMARK 922        TOTAL FREE ENERGY PREDICTED BY IDOCK:   -7.39 KCAL/MOL
REMARK 923 INTER-LIGAND FREE ENERGY PREDICTED BY IDOCK:   -7.18 KCAL/MOL
REMARK 924 INTRA-LIGAND FREE ENERGY PREDICTED BY IDOCK:   -0.20 KCAL/MOL
REMARK 927      BINDING AFFINITY PREDICTED BY RF-SCORE:    0.00 PKD
ROOT
HETATM    1  C   UNL     1      -9.592  11.535  63.168  1.00  0.00    -0.360 C  
HETATM    2  N   UNL     1     -10.667  11.402  64.155  1.00  0.00    -0.352 NA 
HETATM    3  C   UNL     1     -10.158  10.701  65.338  1.00  0.00    -0.291 C  
ENDROOT
BRANCH   2   4
HETATM    4  C   UNL     1     -11.230  12.705  64.550  1.00  0.00    -0.333 C  
BRANCH   4   5
HETATM    5  C   UNL     1     -12.141  12.662  65.780  1.00  0.00    -0.484 C  
BRANCH   5   6
HETATM    6  C   UNL     1     -12.230  13.997  66.532  1.00  0.00    -0.451 C  
BRANCH   6   7
HETATM    7  N   UNL     1     -11.291  14.027  67.685  1.00  0.00    -0.297 NA 
HETATM    8  C   UNL     1     -11.695  13.241  68.783  1.00  0.00    -0.329 A  
HETATM    9  C   UNL     1     -11.562  11.845  68.716  1.00  0.00    -0.366 A  
HETATM   10  C   UNL     1     -11.890  11.034  69.806  1.00  0.00    -0.421 A  
HETATM   11  C   UNL     1     -12.382  11.608  70.972  1.00  0.00    -0.405 A  
HETATM   12  C   UNL     1     -12.525  12.992  71.053  1.00  0.00    -0.385 A  
HETATM   13  C   UNL     1     -12.175  13.814  69.968  1.00  0.00    -0.407 A  
HETATM   14  C   UNL     1     -12.251  15.307  70.101  1.00  0.00    -0.402 C  
HETATM   15  C   UNL     1     -10.858  15.924  70.096  1.00  0.00    -0.359 C  
HETATM   16  C   UNL     1     -10.050  15.875  68.814  1.00  0.00    -0.221 A  
HETATM   17  C   UNL     1      -8.946  16.756  68.772  1.00  0.00    -0.254 A  
HETATM   18  C   UNL     1      -8.107  16.831  67.664  1.00  0.00    -0.188 A  
HETATM   19  C   UNL     1      -8.358  16.024  66.568  1.00  0.00    -0.348 A  
HETATM   20  C   UNL     1      -9.439  15.141  66.593  1.00  0.00    -0.285 A  
HETATM   21  C   UNL     1     -10.303  15.034  67.708  1.00  0.00    -0.245 A  
ENDBRANCH   6   7
ENDBRANCH   5   6
ENDBRANCH   4   5
ENDBRANCH   2   4
TORSDOF 4
ENDMDL
MODEL       19
REMARK 921   NORMALIZED FREE ENERGY PREDICTED BY IDOCK:   -5.74 KCAL/MOL
REMARK 922        TOTAL FREE ENERGY PREDICTED BY IDOCK:   -7.38 KCAL/MOL
REMARK 923 INTER-LIGAND FREE ENERGY PREDICTED BY IDOCK:   -6.63 KCAL/MOL
REMARK 924 INTRA-LIGAND FREE ENERGY PREDICTED BY IDOCK:   -0.75 KCAL/MOL
REMARK 927      BINDING AFFINITY PREDICTED BY RF-SCORE:    0.00 PKD
ROOT
HETATM    1  C   UNL     1     -12.730   9.587  71.693  1.00  0.00    -0.388 C  
HETATM    2  N   UNL     1     -12.521  10.563  70.620  1.00  0.00    -0.341 NA 
HETATM    3  C   UNL     1     -12.656  11.919  71.161  1.00  0.00    -0.288 C  
ENDROOT
BRANCH   2   4
HETATM    4  C   UNL     1     -11.206  10.412  69.973  1.00  0.00    -0.316 C  
BRANCH   4   5
HETATM    5  C   UNL     1     -11.227  10.529  68.446  1.00  0.00    -0.339 C  
BRANCH   5   6
HETATM    6  C   UNL     1      -9.872  10.910  67.835  1.00  0.00    -0.172 C  
BRANCH   6   7
HETATM    7  N   UNL     1      -9.944  12.226  67.148  1.00  0.00    -0.204 NA 
HETATM    8  C   UNL     1      -9.446  13.305  67.906  1.00  0.00    -0.214 A  
HETATM    9  C   UNL     1      -8.059  13.462  68.051  1.00  0.00    -0.160 A  
HETATM   10  C   UNL     1      -7.521  14.552  68.740  1.00  0.00    -0.132 A  
HETATM   11  C   UNL     1      -8.368  15.490  69.317  1.00  0.00    -0.257 A  
HETATM   12  C   UNL     1      -9.748  15.348  69.186  1.00  0.00    -0.252 A  
HETATM   13  C   UNL     1     -10.293  14.265  68.475  1.00  0.00    -0.244 A  
HETATM   14  C   UNL     1     -11.776  14.172  68.268  1.00  0.00    -0.383 C  
HETATM   15  C   UNL     1     -12.135  14.390  66.803  1.00  0.00    -0.393 C  
HETATM   16  C   UNL     1     -11.722  13.338  65.793  1.00  0.00    -0.395 A  
HETATM   17  C   UNL     1     -12.379  13.421  64.545  1.00  0.00    -0.415 A  
HETATM   18  C   UNL     1     -12.111  12.526  63.513  1.00  0.00    -0.653 A  
HETATM   19  C   UNL     1     -11.179  11.523  63.710  1.00  0.00    -0.456 A  
HETATM   20  C   UNL     1     -10.513  11.429  64.933  1.00  0.00    -0.363 A  
HETATM   21  C   UNL     1     -10.755  12.329  65.997  1.00  0.00    -0.261 A  
ENDBRANCH   6   7
ENDBRANCH   5   6
ENDBRANCH   4   5
ENDBRANCH   2   4
TORSDOF 4
ENDMDL
MODEL       20
REMARK 921   NORMALIZED FREE ENERGY PREDICTED BY IDOCK:   -5.73 KCAL/MOL
REMARK 922        TOTAL FREE ENERGY PREDICTED BY IDOCK:   -7.37 KCAL/MOL
REMARK 923 INTER-LIGAND FREE ENERGY PREDICTED BY IDOCK:   -6.87 KCAL/MOL
REMARK 924 INTRA-LIGAND FREE ENERGY PREDICTED BY IDOCK:   -0.49 KCAL/MOL
REMARK 927      BINDING AFFINITY PREDICTED BY RF-SCORE:    0.00 PKD
ROOT
HETATM    1  C   UNL     1     -12.458  15.315  73.834  1.00  0.00    -0.616 C  
HETATM    2  N   UNL     1     -12.553  14.654  72.529  1.00  0.00    -0.341 NA 
HETATM    3  C   UNL     1     -13.759  13.820  72.492  1.00  0.00    -0.561 C  
ENDROOT
BRANCH   2   4
HETATM    4  C   UNL     1     -12.576  15.615  71.413  1.00  0.00    -0.457 C  
BRANCH   4   5
HETATM    5  C   UNL     1     -11.501  15.383  70.347  1.00  0.00    -0.355 C  
BRANCH   5   6
HETATM    6  C   UNL     1     -11.832  16.012  68.987  1.00  0.00    -0.252 C  
BRANCH   6   7
HETATM    7  N   UNL     1     -10.610  16.163  68.154  1.00  0.00    -0.278 NA 
HETATM    8  C   UNL     1     -10.034  14.945  67.742  1.00  0.00    -0.222 A  
HETATM    9  C   UNL     1     -10.641  14.211  66.711  1.00  0.00    -0.277 A  
HETATM   10  C   UNL     1     -10.070  13.031  66.228  1.00  0.00    -0.283 A  
HETATM   11  C   UNL     1      -8.892  12.554  66.790  1.00  0.00    -0.177 A  
HETATM   12  C   UNL     1      -8.278  13.267  67.817  1.00  0.00    -0.168 A  
HETATM   13  C   UNL     1      -8.838  14.466  68.291  1.00  0.00    -0.182 A  
HETATM   14  C   UNL     1      -8.120  15.269  69.336  1.00  0.00    -0.230 C  
HETATM   15  C   UNL     1      -7.598  16.576  68.754  1.00  0.00    -0.219 C  
HETATM   16  C   UNL     1      -8.601  17.634  68.339  1.00  0.00    -0.284 A  
HETATM   17  C   UNL     1      -8.060  18.926  68.149  1.00  0.00    -0.333 A  
HETATM   18  C   UNL     1      -8.851  20.005  67.768  1.00  0.00    -0.379 A  
HETATM   19  C   UNL     1     -10.208  19.816  67.572  1.00  0.00    -0.572 A  
HETATM   20  C   UNL     1     -10.761  18.545  67.747  1.00  0.00    -0.378 A  
HETATM   21  C   UNL     1      -9.981  17.427  68.123  1.00  0.00    -0.308 A  
ENDBRANCH   6   7
ENDBRANCH   5   6
ENDBRANCH   4   5
ENDBRANCH   2   4
TORSDOF 4
ENDMDL
MODEL       21
REMARK 921   NORMALIZED FREE ENERGY PREDICTED BY IDOCK:   -5.72 KCAL/MOL
REMARK 922        TOTAL FREE ENERGY PREDICTED BY IDOCK:   -7.35 KCAL/MOL
REMARK 923 INTER-LIGAND FREE ENERGY PREDICTED BY IDOCK:   -6.58 KCAL/MOL
REMARK 924 INTRA-LIGAND FREE ENERGY PREDICTED BY IDOCK:   -0.77 KCAL/MOL
REMARK 927      BINDING AFFINITY PREDICTED BY RF-SCORE:    0.00 PKD
ROOT
HETATM    1  C   UNL     1      -8.127  11.836  67.215  1.00  0.00    -0.164 C  
HETATM    2  N   UNL     1      -7.322  12.809  67.960  1.00  0.00    -0.103 NA 
HETATM    3  C   UNL     1      -5.943  12.784  67.461  1.00  0.00    -0.143 C  
ENDROOT
BRANCH   2   4
HETATM    4  C   UNL     1      -7.863  14.175  67.865  1.00  0.00    -0.155 C  
BRANCH   4   5
HETATM    5  C   UNL     1      -8.752  14.594  69.040  1.00  0.00    -0.097 C  
BRANCH   5   6
HETATM    6  C   UNL     1      -9.872  15.569  68.652  1.00  0.00    -0.207 C  
BRANCH   6   7
HETATM    7  N   UNL     1     -11.148  14.848  68.403  1.00  0.00    -0.262 NA 
HETATM    8  C   UNL     1     -11.880  14.544  69.569  1.00  0.00    -0.329 A  
HETATM    9  C   UNL     1     -12.589  15.565  70.222  1.00  0.00    -0.362 A  
HETATM   10  C   UNL     1     -13.379  15.296  71.342  1.00  0.00    -0.573 A  
HETATM   11  C   UNL     1     -13.449  14.002  71.843  1.00  0.00    -0.506 A  
HETATM   12  C   UNL     1     -12.748  12.977  71.210  1.00  0.00    -0.385 A  
HETATM   13  C   UNL     1     -11.971  13.239  70.069  1.00  0.00    -0.399 A  
HETATM   14  C   UNL     1     -11.293  12.112  69.347  1.00  0.00    -0.311 C  
HETATM   15  C   UNL     1     -11.930  11.879  67.983  1.00  0.00    -0.204 C  
HETATM   16  C   UNL     1     -11.756  12.939  66.913  1.00  0.00    -0.445 A  
HETATM   17  C   UNL     1     -12.055  12.513  65.599  1.00  0.00    -0.464 A  
HETATM   18  C   UNL     1     -11.943  13.368  64.507  1.00  0.00    -0.452 A  
HETATM   19  C   UNL     1     -11.526  14.673  64.706  1.00  0.00    -0.410 A  
HETATM   20  C   UNL     1     -11.234  15.115  65.998  1.00  0.00    -0.275 A  
HETATM   21  C   UNL     1     -11.347  14.273  67.129  1.00  0.00    -0.337 A  
ENDBRANCH   6   7
ENDBRANCH   5   6
ENDBRANCH   4   5
ENDBRANCH   2   4
TORSDOF 4
ENDMDL
MODEL       22
REMARK 921   NORMALIZED FREE ENERGY PREDICTED BY IDOCK:   -5.70 KCAL/MOL
REMARK 922        TOTAL FREE ENERGY PREDICTED BY IDOCK:   -7.33 KCAL/MOL
REMARK 923 INTER-LIGAND FREE ENERGY PREDICTED BY IDOCK:   -7.15 KCAL/MOL
REMARK 924 INTRA-LIGAND FREE ENERGY PREDICTED BY IDOCK:   -0.18 KCAL/MOL
REMARK 927      BINDING AFFINITY PREDICTED BY RF-SCORE:    0.00 PKD
ROOT
HETATM    1  C   UNL     1     -12.605  15.538  73.968  1.00  0.00    -0.625 C  
HETATM    2  N   UNL     1     -12.534  14.847  72.677  1.00  0.00    -0.348 NA 
HETATM    3  C   UNL     1     -13.633  13.882  72.579  1.00  0.00    -0.576 C  
ENDROOT
BRANCH   2   4
HETATM    4  C   UNL     1     -12.584  15.779  71.538  1.00  0.00    -0.455 C  
BRANCH   4   5
HETATM    5  C   UNL     1     -11.363  15.729  70.615  1.00  0.00    -0.412 C  
BRANCH   5   6
HETATM    6  C   UNL     1     -11.683  16.049  69.148  1.00  0.00    -0.307 C  
BRANCH   6   7
HETATM    7  N   UNL     1     -10.648  15.490  68.239  1.00  0.00    -0.249 NA 
HETATM    8  C   UNL     1      -9.594  16.378  67.942  1.00  0.00    -0.228 A  
HETATM    9  C   UNL     1      -8.607  16.622  68.910  1.00  0.00    -0.235 A  
HETATM   10  C   UNL     1      -7.512  17.445  68.635  1.00  0.00    -0.263 A  
HETATM   11  C   UNL     1      -7.403  18.058  67.393  1.00  0.00    -0.215 A  
HETATM   12  C   UNL     1      -8.376  17.830  66.422  1.00  0.00    -0.281 A  
HETATM   13  C   UNL     1      -9.468  16.985  66.687  1.00  0.00    -0.279 A  
HETATM   14  C   UNL     1     -10.461  16.680  65.604  1.00  0.00    -0.313 C  
HETATM   15  C   UNL     1     -10.357  15.224  65.165  1.00  0.00    -0.413 C  
HETATM   16  C   UNL     1     -10.780  14.144  66.141  1.00  0.00    -0.297 A  
HETATM   17  C   UNL     1     -10.994  12.871  65.563  1.00  0.00    -0.301 A  
HETATM   18  C   UNL     1     -11.388  11.776  66.326  1.00  0.00    -0.350 A  
HETATM   19  C   UNL     1     -11.580  11.931  67.688  1.00  0.00    -0.382 A  
HETATM   20  C   UNL     1     -11.366  13.178  68.278  1.00  0.00    -0.333 A  
HETATM   21  C   UNL     1     -10.956  14.307  67.532  1.00  0.00    -0.289 A  
ENDBRANCH   6   7
ENDBRANCH   5   6
ENDBRANCH   4   5
ENDBRANCH   2   4
TORSDOF 4
ENDMDL
MODEL       23
REMARK 921   NORMALIZED FREE ENERGY PREDICTED BY IDOCK:   -5.69 KCAL/MOL
REMARK 922        TOTAL FREE ENERGY PREDICTED BY IDOCK:   -7.32 KCAL/MOL
REMARK 923 INTER-LIGAND FREE ENERGY PREDICTED BY IDOCK:   -7.05 KCAL/MOL
REMARK 924 INTRA-LIGAND FREE ENERGY PREDICTED BY IDOCK:   -0.27 KCAL/MOL
REMARK 927      BINDING AFFINITY PREDICTED BY RF-SCORE:    0.00 PKD
ROOT
HETATM    1  C   UNL     1      -9.699  18.489  66.232  1.00  0.00    -0.305 C  
HETATM    2  N   UNL     1      -9.392  17.159  65.697  1.00  0.00    -0.447 NA 
HETATM    3  C   UNL     1      -8.131  16.680  66.273  1.00  0.00    -0.326 C  
ENDROOT
BRANCH   2   4
HETATM    4  C   UNL     1     -10.464  16.186  65.963  1.00  0.00    -0.338 C  
BRANCH   4   5
HETATM    5  C   UNL     1     -10.892  16.090  67.431  1.00  0.00    -0.277 C  
BRANCH   5   6
HETATM    6  C   UNL     1     -11.796  14.888  67.736  1.00  0.00    -0.251 C  
BRANCH   6   7
HETATM    7  N   UNL     1     -11.321  14.149  68.935  1.00  0.00    -0.260 NA 
HETATM    8  C   UNL     1     -10.296  13.217  68.674  1.00  0.00    -0.196 A  
HETATM    9  C   UNL     1      -8.990  13.676  68.443  1.00  0.00    -0.160 A  
HETATM   10  C   UNL     1      -7.933  12.785  68.244  1.00  0.00    -0.151 A  
HETATM   11  C   UNL     1      -8.175  11.416  68.246  1.00  0.00    -0.150 A  
HETATM   12  C   UNL     1      -9.466  10.943  68.468  1.00  0.00    -0.185 A  
HETATM   13  C   UNL     1     -10.528  11.836  68.692  1.00  0.00    -0.242 A  
HETATM   14  C   UNL     1     -11.896  11.310  69.017  1.00  0.00    -0.421 C  
HETATM   15  C   UNL     1     -12.270  11.625  70.460  1.00  0.00    -0.451 C  
HETATM   16  C   UNL     1     -12.510  13.071  70.846  1.00  0.00    -0.396 A  
HETATM   17  C   UNL     1     -13.186  13.255  72.074  1.00  0.00    -0.541 A  
HETATM   18  C   UNL     1     -13.483  14.522  72.566  1.00  0.00    -0.580 A  
HETATM   19  C   UNL     1     -13.112  15.638  71.836  1.00  0.00    -0.545 A  
HETATM   20  C   UNL     1     -12.436  15.477  70.625  1.00  0.00    -0.483 A  
HETATM   21  C   UNL     1     -12.111  14.203  70.103  1.00  0.00    -0.346 A  
ENDBRANCH   6   7
ENDBRANCH   5   6
ENDBRANCH   4   5
ENDBRANCH   2   4
TORSDOF 4
ENDMDL
MODEL       24
REMARK 921   NORMALIZED FREE ENERGY PREDICTED BY IDOCK:   -5.65 KCAL/MOL
REMARK 922        TOTAL FREE ENERGY PREDICTED BY IDOCK:   -7.26 KCAL/MOL
REMARK 923 INTER-LIGAND FREE ENERGY PREDICTED BY IDOCK:   -6.94 KCAL/MOL
REMARK 924 INTRA-LIGAND FREE ENERGY PREDICTED BY IDOCK:   -0.32 KCAL/MOL
REMARK 927      BINDING AFFINITY PREDICTED BY RF-SCORE:    0.00 PKD
ROOT
HETATM    1  C   UNL     1     -10.623   7.342  66.983  1.00  0.00    -0.344 C  
HETATM    2  N   UNL     1      -9.654   8.431  66.826  1.00  0.00    -0.200 NA 
HETATM    3  C   UNL     1      -8.530   7.968  66.007  1.00  0.00    -0.136 C  
ENDROOT
BRANCH   2   4
HETATM    4  C   UNL     1     -10.253   9.632  66.220  1.00  0.00    -0.216 C  
BRANCH   4   5
HETATM    5  C   UNL     1     -10.355  10.839  67.157  1.00  0.00    -0.269 C  
BRANCH   5   6
HETATM    6  C   UNL     1     -11.636  10.860  68.003  1.00  0.00    -0.215 C  
BRANCH   6   7
HETATM    7  N   UNL     1     -11.351  11.292  69.396  1.00  0.00    -0.267 NA 
HETATM    8  C   UNL     1     -10.943  10.252  70.256  1.00  0.00    -0.309 A  
HETATM    9  C   UNL     1      -9.638   9.745  70.150  1.00  0.00    -0.287 A  
HETATM   10  C   UNL     1      -9.172   8.759  71.024  1.00  0.00    -0.278 A  
HETATM   11  C   UNL     1     -10.017   8.246  72.001  1.00  0.00    -0.327 A  
HETATM   12  C   UNL     1     -11.317   8.735  72.116  1.00  0.00    -0.411 A  
HETATM   13  C   UNL     1     -11.782   9.743  71.254  1.00  0.00    -0.472 A  
HETATM   14  C   UNL     1     -13.154  10.321  71.446  1.00  0.00    -0.512 C  
HETATM   15  C   UNL     1     -13.073  11.763  71.929  1.00  0.00    -0.482 C  
HETATM   16  C   UNL     1     -12.540  12.816  70.977  1.00  0.00    -0.362 A  
HETATM   17  C   UNL     1     -12.820  14.151  71.348  1.00  0.00    -0.428 A  
HETATM   18  C   UNL     1     -12.400  15.231  70.577  1.00  0.00    -0.434 A  
HETATM   19  C   UNL     1     -11.691  14.997  69.411  1.00  0.00    -0.351 A  
HETATM   20  C   UNL     1     -11.398  13.686  69.032  1.00  0.00    -0.333 A  
HETATM   21  C   UNL     1     -11.801  12.568  69.799  1.00  0.00    -0.310 A  
ENDBRANCH   6   7
ENDBRANCH   5   6
ENDBRANCH   4   5
ENDBRANCH   2   4
TORSDOF 4
ENDMDL
MODEL       25
REMARK 921   NORMALIZED FREE ENERGY PREDICTED BY IDOCK:   -5.65 KCAL/MOL
REMARK 922        TOTAL FREE ENERGY PREDICTED BY IDOCK:   -7.26 KCAL/MOL
REMARK 923 INTER-LIGAND FREE ENERGY PREDICTED BY IDOCK:   -6.23 KCAL/MOL
REMARK 924 INTRA-LIGAND FREE ENERGY PREDICTED BY IDOCK:   -1.03 KCAL/MOL
REMARK 927      BINDING AFFINITY PREDICTED BY RF-SCORE:    0.00 PKD
ROOT
HETATM    1  C   UNL     1      -7.869  12.065  68.156  1.00  0.00    -0.145 C  
HETATM    2  N   UNL     1      -7.181  13.178  68.817  1.00  0.00    -0.101 NA 
HETATM    3  C   UNL     1      -6.131  12.651  69.693  1.00  0.00    -0.128 C  
ENDROOT
BRANCH   2   4
HETATM    4  C   UNL     1      -6.599  14.128  67.854  1.00  0.00    -0.165 C  
BRANCH   4   5
HETATM    5  C   UNL     1      -7.157  15.552  67.942  1.00  0.00    -0.155 C  
BRANCH   5   6
HETATM    6  C   UNL     1      -8.285  15.712  68.972  1.00  0.00    -0.233 C  
BRANCH   6   7
HETATM    7  N   UNL     1      -9.590  15.958  68.304  1.00  0.00    -0.203 NA 
HETATM    8  C   UNL     1     -10.341  14.792  68.050  1.00  0.00    -0.237 A  
HETATM    9  C   UNL     1     -11.007  14.158  69.111  1.00  0.00    -0.280 A  
HETATM   10  C   UNL     1     -11.813  13.038  68.893  1.00  0.00    -0.358 A  
HETATM   11  C   UNL     1     -11.944  12.520  67.610  1.00  0.00    -0.287 A  
HETATM   12  C   UNL     1     -11.285  13.133  66.547  1.00  0.00    -0.339 A  
HETATM   13  C   UNL     1     -10.491  14.274  66.758  1.00  0.00    -0.273 A  
HETATM   14  C   UNL     1      -9.860  14.976  65.591  1.00  0.00    -0.380 C  
HETATM   15  C   UNL     1     -10.500  16.340  65.367  1.00  0.00    -0.365 C  
HETATM   16  C   UNL     1     -10.274  17.423  66.402  1.00  0.00    -0.339 A  
HETATM   17  C   UNL     1     -10.585  18.733  65.971  1.00  0.00    -0.442 A  
HETATM   18  C   UNL     1     -10.430  19.837  66.805  1.00  0.00    -0.610 A  
HETATM   19  C   UNL     1      -9.956  19.654  68.092  1.00  0.00    -0.547 A  
HETATM   20  C   UNL     1      -9.651  18.367  68.539  1.00  0.00    -0.368 A  
HETATM   21  C   UNL     1      -9.808  17.224  67.721  1.00  0.00    -0.281 A  
ENDBRANCH   6   7
ENDBRANCH   5   6
ENDBRANCH   4   5
ENDBRANCH   2   4
TORSDOF 4
ENDMDL
MODEL       26
REMARK 921   NORMALIZED FREE ENERGY PREDICTED BY IDOCK:   -5.63 KCAL/MOL
REMARK 922        TOTAL FREE ENERGY PREDICTED BY IDOCK:   -7.24 KCAL/MOL
REMARK 923 INTER-LIGAND FREE ENERGY PREDICTED BY IDOCK:   -6.59 KCAL/MOL
REMARK 924 INTRA-LIGAND FREE ENERGY PREDICTED BY IDOCK:   -0.65 KCAL/MOL
REMARK 927      BINDING AFFINITY PREDICTED BY RF-SCORE:    0.00 PKD
ROOT
HETATM    1  C   UNL     1     -13.670  15.090  71.293  1.00  0.00    -0.450 C  
HETATM    2  N   UNL     1     -12.496  15.138  70.417  1.00  0.00    -0.358 NA 
HETATM    3  C   UNL     1     -11.395  15.812  71.113  1.00  0.00    -0.389 C  
ENDROOT
BRANCH   2   4
HETATM    4  C   UNL     1     -12.066  13.799  69.981  1.00  0.00    -0.349 C  
BRANCH   4   5
HETATM    5  C   UNL     1     -11.609  13.717  68.522  1.00  0.00    -0.371 C  
BRANCH   5   6
HETATM    6  C   UNL     1     -10.096  13.515  68.357  1.00  0.00    -0.240 C  
BRANCH   6   7
HETATM    7  N   UNL     1      -9.659  13.841  66.975  1.00  0.00    -0.243 NA 
HETATM    8  C   UNL     1      -8.994  15.078  66.852  1.00  0.00    -0.251 A  
HETATM    9  C   UNL     1      -7.667  15.192  67.295  1.00  0.00    -0.241 A  
HETATM   10  C   UNL     1      -6.950  16.380  67.134  1.00  0.00    -0.239 A  
HETATM   11  C   UNL     1      -7.562  17.483  66.551  1.00  0.00    -0.311 A  
HETATM   12  C   UNL     1      -8.880  17.388  66.110  1.00  0.00    -0.180 A  
HETATM   13  C   UNL     1      -9.598  16.188  66.249  1.00  0.00    -0.334 A  
HETATM   14  C   UNL     1     -10.986  16.074  65.691  1.00  0.00    -0.175 C  
HETATM   15  C   UNL     1     -11.017  15.121  64.502  1.00  0.00    -0.208 C  
HETATM   16  C   UNL     1     -10.776  13.646  64.751  1.00  0.00    -0.420 A  
HETATM   17  C   UNL     1     -11.164  12.792  63.693  1.00  0.00    -0.482 A  
HETATM   18  C   UNL     1     -11.009  11.411  63.769  1.00  0.00    -0.448 A  
HETATM   19  C   UNL     1     -10.463  10.851  64.911  1.00  0.00    -0.352 A  
HETATM   20  C   UNL     1     -10.067  11.679  65.964  1.00  0.00    -0.259 A  
HETATM   21  C   UNL     1     -10.201  13.086  65.913  1.00  0.00    -0.292 A  
ENDBRANCH   6   7
ENDBRANCH   5   6
ENDBRANCH   4   5
ENDBRANCH   2   4
TORSDOF 4
ENDMDL
MODEL       27
REMARK 921   NORMALIZED FREE ENERGY PREDICTED BY IDOCK:   -5.61 KCAL/MOL
REMARK 922        TOTAL FREE ENERGY PREDICTED BY IDOCK:   -7.21 KCAL/MOL
REMARK 923 INTER-LIGAND FREE ENERGY PREDICTED BY IDOCK:   -6.59 KCAL/MOL
REMARK 924 INTRA-LIGAND FREE ENERGY PREDICTED BY IDOCK:   -0.62 KCAL/MOL
REMARK 927      BINDING AFFINITY PREDICTED BY RF-SCORE:    0.00 PKD
ROOT
HETATM    1  C   UNL     1     -10.876   9.338  71.343  1.00  0.00    -0.364 C  
HETATM    2  N   UNL     1     -12.112   9.851  70.745  1.00  0.00    -0.304 NA 
HETATM    3  C   UNL     1     -13.176   9.855  71.754  1.00  0.00    -0.434 C  
ENDROOT
BRANCH   2   4
HETATM    4  C   UNL     1     -11.946  11.204  70.188  1.00  0.00    -0.365 C  
BRANCH   4   5
HETATM    5  C   UNL     1     -11.720  11.249  68.674  1.00  0.00    -0.391 C  
BRANCH   5   6
HETATM    6  C   UNL     1     -10.246  11.395  68.272  1.00  0.00    -0.193 C  
BRANCH   6   7
HETATM    7  N   UNL     1     -10.081  12.405  67.194  1.00  0.00    -0.212 NA 
HETATM    8  C   UNL     1     -10.145  13.742  67.636  1.00  0.00    -0.242 A  
HETATM    9  C   UNL     1      -9.050  14.295  68.317  1.00  0.00    -0.188 A  
HETATM   10  C   UNL     1      -9.046  15.634  68.715  1.00  0.00    -0.208 A  
HETATM   11  C   UNL     1     -10.154  16.434  68.461  1.00  0.00    -0.248 A  
HETATM   12  C   UNL     1     -11.252  15.899  67.790  1.00  0.00    -0.258 A  
HETATM   13  C   UNL     1     -11.251  14.559  67.367  1.00  0.00    -0.337 A  
HETATM   14  C   UNL     1     -12.403  14.022  66.570  1.00  0.00    -0.442 C  
HETATM   15  C   UNL     1     -11.981  13.729  65.135  1.00  0.00    -0.393 C  
HETATM   16  C   UNL     1     -11.012  12.590  64.885  1.00  0.00    -0.335 A  
HETATM   17  C   UNL     1     -10.943  12.151  63.543  1.00  0.00    -0.521 A  
HETATM   18  C   UNL     1     -10.102  11.113  63.152  1.00  0.00    -0.373 A  
HETATM   19  C   UNL     1      -9.311  10.488  64.100  1.00  0.00    -0.309 A  
HETATM   20  C   UNL     1      -9.359  10.912  65.429  1.00  0.00    -0.240 A  
HETATM   21  C   UNL     1     -10.195  11.970  65.856  1.00  0.00    -0.232 A  
ENDBRANCH   6   7
ENDBRANCH   5   6
ENDBRANCH   4   5
ENDBRANCH   2   4
TORSDOF 4
ENDMDL
MODEL       28
REMARK 921   NORMALIZED FREE ENERGY PREDICTED BY IDOCK:   -5.60 KCAL/MOL
REMARK 922        TOTAL FREE ENERGY PREDICTED BY IDOCK:   -7.21 KCAL/MOL
REMARK 923 INTER-LIGAND FREE ENERGY PREDICTED BY IDOCK:   -6.51 KCAL/MOL
REMARK 924 INTRA-LIGAND FREE ENERGY PREDICTED BY IDOCK:   -0.70 KCAL/MOL
REMARK 927      BINDING AFFINITY PREDICTED BY RF-SCORE:    0.00 PKD
ROOT
HETATM    1  C   UNL     1     -14.006  14.044  72.030  1.00  0.00    -0.506 C  
HETATM    2  N   UNL     1     -13.227  15.274  71.857  1.00  0.00    -0.380 NA 
HETATM    3  C   UNL     1     -12.948  15.863  73.171  1.00  0.00    -0.549 C  
ENDROOT
BRANCH   2   4
HETATM    4  C   UNL     1     -11.965  15.043  71.135  1.00  0.00    -0.323 C  
BRANCH   4   5
HETATM    5  C   UNL     1     -12.129  14.429  69.741  1.00  0.00    -0.386 C  
BRANCH   5   6
HETATM    6  C   UNL     1     -11.643  15.339  68.603  1.00  0.00    -0.354 C  
BRANCH   6   7
HETATM    7  N   UNL     1     -10.727  14.609  67.687  1.00  0.00    -0.267 NA 
HETATM    8  C   UNL     1     -11.333  14.160  66.497  1.00  0.00    -0.341 A  
HETATM    9  C   UNL     1     -11.613  15.083  65.477  1.00  0.00    -0.208 A  
HETATM   10  C   UNL     1     -12.154  14.671  64.256  1.00  0.00    -0.437 A  
HETATM   11  C   UNL     1     -12.448  13.329  64.048  1.00  0.00    -0.329 A  
HETATM   12  C   UNL     1     -12.182  12.400  65.052  1.00  0.00    -0.465 A  
HETATM   13  C   UNL     1     -11.616  12.807  66.273  1.00  0.00    -0.433 A  
HETATM   14  C   UNL     1     -11.253  11.785  67.311  1.00  0.00    -0.364 C  
HETATM   15  C   UNL     1      -9.741  11.680  67.465  1.00  0.00    -0.185 C  
HETATM   16  C   UNL     1      -8.993  12.854  68.065  1.00  0.00    -0.196 A  
HETATM   17  C   UNL     1      -7.680  12.563  68.501  1.00  0.00    -0.113 A  
HETATM   18  C   UNL     1      -6.865  13.533  69.076  1.00  0.00    -0.107 A  
HETATM   19  C   UNL     1      -7.349  14.821  69.230  1.00  0.00    -0.168 A  
HETATM   20  C   UNL     1      -8.640  15.130  68.798  1.00  0.00    -0.182 A  
HETATM   21  C   UNL     1      -9.488  14.170  68.201  1.00  0.00    -0.213 A  
ENDBRANCH   6   7
ENDBRANCH   5   6
ENDBRANCH   4   5
ENDBRANCH   2   4
TORSDOF 4
ENDMDL
MODEL       29
REMARK 921   NORMALIZED FREE ENERGY PREDICTED BY IDOCK:   -5.60 KCAL/MOL
REMARK 922        TOTAL FREE ENERGY PREDICTED BY IDOCK:   -7.20 KCAL/MOL
REMARK 923 INTER-LIGAND FREE ENERGY PREDICTED BY IDOCK:   -6.99 KCAL/MOL
REMARK 924 INTRA-LIGAND FREE ENERGY PREDICTED BY IDOCK:   -0.21 KCAL/MOL
REMARK 927      BINDING AFFINITY PREDICTED BY RF-SCORE:    0.00 PKD
ROOT
HETATM    1  C   UNL     1      -8.463  19.294  68.563  1.00  0.00    -0.366 C  
HETATM    2  N   UNL     1      -9.515  19.617  67.594  1.00  0.00    -0.324 NA 
HETATM    3  C   UNL     1      -8.921  19.765  66.262  1.00  0.00    -0.376 C  
ENDROOT
BRANCH   2   4
HETATM    4  C   UNL     1     -10.577  18.598  67.558  1.00  0.00    -0.423 C  
BRANCH   4   5
HETATM    5  C   UNL     1     -10.470  17.524  68.644  1.00  0.00    -0.338 C  
BRANCH   5   6
HETATM    6  C   UNL     1     -11.283  16.257  68.345  1.00  0.00    -0.349 C  
BRANCH   6   7
HETATM    7  N   UNL     1     -10.913  15.151  69.266  1.00  0.00    -0.245 NA 
HETATM    8  C   UNL     1      -9.853  14.342  68.807  1.00  0.00    -0.214 A  
HETATM    9  C   UNL     1      -8.538  14.831  68.870  1.00  0.00    -0.160 A  
HETATM   10  C   UNL     1      -7.453  14.039  68.485  1.00  0.00    -0.124 A  
HETATM   11  C   UNL     1      -7.672  12.753  68.006  1.00  0.00    -0.137 A  
HETATM   12  C   UNL     1      -8.970  12.255  67.932  1.00  0.00    -0.186 A  
HETATM   13  C   UNL     1     -10.064  13.039  68.340  1.00  0.00    -0.225 A  
HETATM   14  C   UNL     1     -11.447  12.459  68.338  1.00  0.00    -0.356 C  
HETATM   15  C   UNL     1     -11.962  12.277  69.760  1.00  0.00    -0.365 C  
HETATM   16  C   UNL     1     -12.262  13.514  70.583  1.00  0.00    -0.434 A  
HETATM   17  C   UNL     1     -13.055  13.288  71.731  1.00  0.00    -0.472 A  
HETATM   18  C   UNL     1     -13.418  14.322  72.589  1.00  0.00    -0.623 A  
HETATM   19  C   UNL     1     -12.996  15.611  72.314  1.00  0.00    -0.529 A  
HETATM   20  C   UNL     1     -12.206  15.854  71.189  1.00  0.00    -0.447 A  
HETATM   21  C   UNL     1     -11.812  14.824  70.304  1.00  0.00    -0.302 A  
ENDBRANCH   6   7
ENDBRANCH   5   6
ENDBRANCH   4   5
ENDBRANCH   2   4
TORSDOF 4
ENDMDL
MODEL       30
REMARK 921   NORMALIZED FREE ENERGY PREDICTED BY IDOCK:   -5.59 KCAL/MOL
REMARK 922        TOTAL FREE ENERGY PREDICTED BY IDOCK:   -7.20 KCAL/MOL
REMARK 923 INTER-LIGAND FREE ENERGY PREDICTED BY IDOCK:   -6.51 KCAL/MOL
REMARK 924 INTRA-LIGAND FREE ENERGY PREDICTED BY IDOCK:   -0.69 KCAL/MOL
REMARK 927      BINDING AFFINITY PREDICTED BY RF-SCORE:    0.00 PKD
ROOT
HETATM    1  C   UNL     1     -13.071  10.239  71.049  1.00  0.00    -0.373 C  
HETATM    2  N   UNL     1     -11.933  11.146  70.872  1.00  0.00    -0.311 NA 
HETATM    3  C   UNL     1     -11.129  10.701  69.729  1.00  0.00    -0.295 C  
ENDROOT
BRANCH   2   4
HETATM    4  C   UNL     1     -12.355  12.543  70.674  1.00  0.00    -0.282 C  
BRANCH   4   5
HETATM    5  C   UNL     1     -11.481  13.344  69.704  1.00  0.00    -0.274 C  
BRANCH   5   6
HETATM    6  C   UNL     1     -12.280  14.203  68.714  1.00  0.00    -0.199 C  
BRANCH   6   7
HETATM    7  N   UNL     1     -11.438  14.617  67.562  1.00  0.00    -0.347 NA 
HETATM    8  C   UNL     1     -11.421  13.697  66.494  1.00  0.00    -0.335 A  
HETATM    9  C   UNL     1     -12.535  13.609  65.644  1.00  0.00    -0.540 A  
HETATM   10  C   UNL     1     -12.536  12.758  64.537  1.00  0.00    -0.501 A  
HETATM   11  C   UNL     1     -11.428  11.959  64.279  1.00  0.00    -0.423 A  
HETATM   12  C   UNL     1     -10.316  12.030  65.115  1.00  0.00    -0.313 A  
HETATM   13  C   UNL     1     -10.302  12.902  66.217  1.00  0.00    -0.278 A  
HETATM   14  C   UNL     1      -9.065  13.032  67.057  1.00  0.00    -0.230 C  
HETATM   15  C   UNL     1      -8.425  14.402  66.872  1.00  0.00    -0.156 C  
HETATM   16  C   UNL     1      -9.158  15.620  67.399  1.00  0.00    -0.203 A  
HETATM   17  C   UNL     1      -8.368  16.786  67.515  1.00  0.00    -0.200 A  
HETATM   18  C   UNL     1      -8.894  17.986  67.986  1.00  0.00    -0.278 A  
HETATM   19  C   UNL     1     -10.227  18.044  68.354  1.00  0.00    -0.399 A  
HETATM   20  C   UNL     1     -11.025  16.905  68.239  1.00  0.00    -0.298 A  
HETATM   21  C   UNL     1     -10.523  15.674  67.755  1.00  0.00    -0.273 A  
ENDBRANCH   6   7
ENDBRANCH   5   6
ENDBRANCH   4   5
ENDBRANCH   2   4
TORSDOF 4
ENDMDL
MODEL       31
REMARK 921   NORMALIZED FREE ENERGY PREDICTED BY IDOCK:   -5.56 KCAL/MOL
REMARK 922        TOTAL FREE ENERGY PREDICTED BY IDOCK:   -7.16 KCAL/MOL
REMARK 923 INTER-LIGAND FREE ENERGY PREDICTED BY IDOCK:   -6.91 KCAL/MOL
REMARK 924 INTRA-LIGAND FREE ENERGY PREDICTED BY IDOCK:   -0.25 KCAL/MOL
REMARK 927      BINDING AFFINITY PREDICTED BY RF-SCORE:    0.00 PKD
ROOT
HETATM    1  C   UNL     1      -8.003   8.572  65.524  1.00  0.00    -0.110 C  
HETATM    2  N   UNL     1      -8.863   9.738  65.746  1.00  0.00    -0.146 NA 
HETATM    3  C   UNL     1      -8.960  10.516  64.507  1.00  0.00    -0.209 C  
ENDROOT
BRANCH   2   4
HETATM    4  C   UNL     1     -10.210   9.362  66.208  1.00  0.00    -0.214 C  
BRANCH   4   5
HETATM    5  C   UNL     1     -10.490   9.670  67.682  1.00  0.00    -0.317 C  
BRANCH   5   6
HETATM    6  C   UNL     1     -10.051  11.075  68.116  1.00  0.00    -0.179 C  
BRANCH   6   7
HETATM    7  N   UNL     1     -11.215  11.993  68.219  1.00  0.00    -0.239 NA 
HETATM    8  C   UNL     1     -11.413  12.810  67.087  1.00  0.00    -0.337 A  
HETATM    9  C   UNL     1     -11.962  12.250  65.923  1.00  0.00    -0.358 A  
HETATM   10  C   UNL     1     -12.235  13.036  64.800  1.00  0.00    -0.487 A  
HETATM   11  C   UNL     1     -11.935  14.393  64.818  1.00  0.00    -0.455 A  
HETATM   12  C   UNL     1     -11.385  14.964  65.964  1.00  0.00    -0.306 A  
HETATM   13  C   UNL     1     -11.131  14.181  67.104  1.00  0.00    -0.315 A  
HETATM   14  C   UNL     1     -10.621  14.826  68.359  1.00  0.00    -0.242 C  
HETATM   15  C   UNL     1     -11.680  14.797  69.454  1.00  0.00    -0.358 C  
HETATM   16  C   UNL     1     -12.064  13.459  70.053  1.00  0.00    -0.404 A  
HETATM   17  C   UNL     1     -12.768  13.534  71.277  1.00  0.00    -0.432 A  
HETATM   18  C   UNL     1     -13.188  12.393  71.954  1.00  0.00    -0.486 A  
HETATM   19  C   UNL     1     -12.910  11.147  71.421  1.00  0.00    -0.544 A  
HETATM   20  C   UNL     1     -12.224  11.052  70.209  1.00  0.00    -0.447 A  
HETATM   21  C   UNL     1     -11.792  12.192  69.492  1.00  0.00    -0.321 A  
ENDBRANCH   6   7
ENDBRANCH   5   6
ENDBRANCH   4   5
ENDBRANCH   2   4
TORSDOF 4
ENDMDL
MODEL       32
REMARK 921   NORMALIZED FREE ENERGY PREDICTED BY IDOCK:   -5.54 KCAL/MOL
REMARK 922        TOTAL FREE ENERGY PREDICTED BY IDOCK:   -7.13 KCAL/MOL
REMARK 923 INTER-LIGAND FREE ENERGY PREDICTED BY IDOCK:   -6.19 KCAL/MOL
REMARK 924 INTRA-LIGAND FREE ENERGY PREDICTED BY IDOCK:   -0.94 KCAL/MOL
REMARK 927      BINDING AFFINITY PREDICTED BY RF-SCORE:    0.00 PKD
ROOT
HETATM    1  C   UNL     1     -12.513  14.080  65.265  1.00  0.00    -0.475 C  
HETATM    2  N   UNL     1     -11.217  14.166  64.585  1.00  0.00    -0.373 NA 
HETATM    3  C   UNL     1     -10.448  15.284  65.142  1.00  0.00    -0.411 C  
ENDROOT
BRANCH   2   4
HETATM    4  C   UNL     1     -10.440  12.920  64.696  1.00  0.00    -0.363 C  
BRANCH   4   5
HETATM    5  C   UNL     1     -10.874  11.995  65.837  1.00  0.00    -0.329 C  
BRANCH   5   6
HETATM    6  C   UNL     1      -9.707  11.461  66.679  1.00  0.00    -0.200 C  
BRANCH   6   7
HETATM    7  N   UNL     1      -9.655  12.126  68.007  1.00  0.00    -0.198 NA 
HETATM    8  C   UNL     1     -10.424  11.494  69.005  1.00  0.00    -0.145 A  
HETATM    9  C   UNL     1      -9.954  10.305  69.586  1.00  0.00    -0.240 A  
HETATM   10  C   UNL     1     -10.652   9.680  70.622  1.00  0.00    -0.386 A  
HETATM   11  C   UNL     1     -11.849  10.222  71.074  1.00  0.00    -0.472 A  
HETATM   12  C   UNL     1     -12.333  11.398  70.505  1.00  0.00    -0.439 A  
HETATM   13  C   UNL     1     -11.622  12.043  69.478  1.00  0.00    -0.389 A  
HETATM   14  C   UNL     1     -12.109  13.355  68.936  1.00  0.00    -0.289 C  
HETATM   15  C   UNL     1     -11.168  14.488  69.326  1.00  0.00    -0.309 C  
HETATM   16  C   UNL     1      -9.781  14.517  68.714  1.00  0.00    -0.210 A  
HETATM   17  C   UNL     1      -9.105  15.753  68.832  1.00  0.00    -0.225 A  
HETATM   18  C   UNL     1      -7.824  15.941  68.320  1.00  0.00    -0.138 A  
HETATM   19  C   UNL     1      -7.191  14.894  67.673  1.00  0.00    -0.207 A  
HETATM   20  C   UNL     1      -7.840  13.663  67.553  1.00  0.00    -0.185 A  
HETATM   21  C   UNL     1      -9.136  13.437  68.072  1.00  0.00    -0.205 A  
ENDBRANCH   6   7
ENDBRANCH   5   6
ENDBRANCH   4   5
ENDBRANCH   2   4
TORSDOF 4
ENDMDL
MODEL       33
REMARK 921   NORMALIZED FREE ENERGY PREDICTED BY IDOCK:   -5.53 KCAL/MOL
REMARK 922        TOTAL FREE ENERGY PREDICTED BY IDOCK:   -7.12 KCAL/MOL
REMARK 923 INTER-LIGAND FREE ENERGY PREDICTED BY IDOCK:   -6.26 KCAL/MOL
REMARK 924 INTRA-LIGAND FREE ENERGY PREDICTED BY IDOCK:   -0.86 KCAL/MOL
REMARK 927      BINDING AFFINITY PREDICTED BY RF-SCORE:    0.00 PKD
ROOT
HETATM    1  C   UNL     1     -12.753  11.963  63.501  1.00  0.00    -0.405 C  
HETATM    2  N   UNL     1     -11.623  12.896  63.512  1.00  0.00    -0.491 NA 
HETATM    3  C   UNL     1     -11.922  14.013  64.414  1.00  0.00    -0.454 C  
ENDROOT
BRANCH   2   4
HETATM    4  C   UNL     1     -10.364  12.248  63.919  1.00  0.00    -0.429 C  
BRANCH   4   5
HETATM    5  C   UNL     1     -10.443  11.464  65.232  1.00  0.00    -0.340 C  
BRANCH   5   6
HETATM    6  C   UNL     1      -9.150  11.505  66.057  1.00  0.00    -0.198 C  
BRANCH   6   7
HETATM    7  N   UNL     1      -9.389  12.094  67.400  1.00  0.00    -0.177 NA 
HETATM    8  C   UNL     1      -9.437  11.152  68.448  1.00  0.00    -0.189 A  
HETATM    9  C   UNL     1      -8.242  10.580  68.914  1.00  0.00    -0.141 A  
HETATM   10  C   UNL     1      -8.237   9.692  69.992  1.00  0.00    -0.197 A  
HETATM   11  C   UNL     1      -9.435   9.340  70.603  1.00  0.00    -0.333 A  
HETATM   12  C   UNL     1     -10.630   9.893  70.149  1.00  0.00    -0.350 A  
HETATM   13  C   UNL     1     -10.637  10.805  69.079  1.00  0.00    -0.250 A  
HETATM   14  C   UNL     1     -11.921  11.460  68.659  1.00  0.00    -0.317 C  
HETATM   15  C   UNL     1     -11.907  12.947  68.992  1.00  0.00    -0.352 C  
HETATM   16  C   UNL     1     -10.958  13.849  68.229  1.00  0.00    -0.274 A  
HETATM   17  C   UNL     1     -11.242  15.231  68.328  1.00  0.00    -0.318 A  
HETATM   18  C   UNL     1     -10.464  16.188  67.684  1.00  0.00    -0.292 A  
HETATM   19  C   UNL     1      -9.383  15.783  66.920  1.00  0.00    -0.246 A  
HETATM   20  C   UNL     1      -9.082  14.424  66.816  1.00  0.00    -0.278 A  
HETATM   21  C   UNL     1      -9.846  13.427  67.467  1.00  0.00    -0.227 A  
ENDBRANCH   6   7
ENDBRANCH   5   6
ENDBRANCH   4   5
ENDBRANCH   2   4
TORSDOF 4
ENDMDL
MODEL       34
REMARK 921   NORMALIZED FREE ENERGY PREDICTED BY IDOCK:   -5.52 KCAL/MOL
REMARK 922        TOTAL FREE ENERGY PREDICTED BY IDOCK:   -7.11 KCAL/MOL
REMARK 923 INTER-LIGAND FREE ENERGY PREDICTED BY IDOCK:   -6.50 KCAL/MOL
REMARK 924 INTRA-LIGAND FREE ENERGY PREDICTED BY IDOCK:   -0.61 KCAL/MOL
REMARK 927      BINDING AFFINITY PREDICTED BY RF-SCORE:    0.00 PKD
ROOT
HETATM    1  C   UNL     1      -6.574  16.396  67.495  1.00  0.00    -0.156 C  
HETATM    2  N   UNL     1      -6.975  15.534  68.611  1.00  0.00    -0.112 NA 
HETATM    3  C   UNL     1      -6.221  15.909  69.811  1.00  0.00    -0.177 C  
ENDROOT
BRANCH   2   4
HETATM    4  C   UNL     1      -8.420  15.608  68.885  1.00  0.00    -0.213 C  
BRANCH   4   5
HETATM    5  C   UNL     1      -9.240  14.447  68.315  1.00  0.00    -0.201 C  
BRANCH   5   6
HETATM    6  C   UNL     1     -10.641  14.318  68.928  1.00  0.00    -0.245 C  
BRANCH   6   7
HETATM    7  N   UNL     1     -11.346  13.117  68.408  1.00  0.00    -0.268 NA 
HETATM    8  C   UNL     1     -11.455  12.061  69.334  1.00  0.00    -0.296 A  
HETATM    9  C   UNL     1     -12.390  12.154  70.377  1.00  0.00    -0.315 A  
HETATM   10  C   UNL     1     -12.576  11.103  71.279  1.00  0.00    -0.503 A  
HETATM   11  C   UNL     1     -11.806   9.951  71.166  1.00  0.00    -0.472 A  
HETATM   12  C   UNL     1     -10.870   9.844  70.140  1.00  0.00    -0.356 A  
HETATM   13  C   UNL     1     -10.696  10.890  69.216  1.00  0.00    -0.271 A  
HETATM   14  C   UNL     1      -9.747  10.725  68.066  1.00  0.00    -0.174 C  
HETATM   15  C   UNL     1     -10.503  10.642  66.746  1.00  0.00    -0.303 C  
HETATM   16  C   UNL     1     -11.219  11.880  66.244  1.00  0.00    -0.392 A  
HETATM   17  C   UNL     1     -11.588  11.843  64.879  1.00  0.00    -0.290 A  
HETATM   18  C   UNL     1     -12.251  12.903  64.268  1.00  0.00    -0.481 A  
HETATM   19  C   UNL     1     -12.558  14.030  65.011  1.00  0.00    -0.416 A  
HETATM   20  C   UNL     1     -12.209  14.083  66.362  1.00  0.00    -0.492 A  
HETATM   21  C   UNL     1     -11.545  13.018  67.014  1.00  0.00    -0.360 A  
ENDBRANCH   6   7
ENDBRANCH   5   6
ENDBRANCH   4   5
ENDBRANCH   2   4
TORSDOF 4
ENDMDL
MODEL       35
REMARK 921   NORMALIZED FREE ENERGY PREDICTED BY IDOCK:   -5.51 KCAL/MOL
REMARK 922        TOTAL FREE ENERGY PREDICTED BY IDOCK:   -7.09 KCAL/MOL
REMARK 923 INTER-LIGAND FREE ENERGY PREDICTED BY IDOCK:   -6.33 KCAL/MOL
REMARK 924 INTRA-LIGAND FREE ENERGY PREDICTED BY IDOCK:   -0.76 KCAL/MOL
REMARK 927      BINDING AFFINITY PREDICTED BY RF-SCORE:    0.00 PKD
ROOT
HETATM    1  C   UNL     1     -11.956  15.469  72.750  1.00  0.00    -0.466 C  
HETATM    2  N   UNL     1     -12.421  14.699  71.592  1.00  0.00    -0.330 NA 
HETATM    3  C   UNL     1     -13.836  14.994  71.346  1.00  0.00    -0.479 C  
ENDROOT
BRANCH   2   4
HETATM    4  C   UNL     1     -11.633  14.979  70.380  1.00  0.00    -0.287 C  
BRANCH   4   5
HETATM    5  C   UNL     1     -12.073  14.200  69.136  1.00  0.00    -0.362 C  
BRANCH   5   6
HETATM    6  C   UNL     1     -11.027  13.198  68.631  1.00  0.00    -0.265 C  
BRANCH   6   7
HETATM    7  N   UNL     1     -10.370  13.687  67.390  1.00  0.00    -0.243 NA 
HETATM    8  C   UNL     1      -9.163  14.382  67.607  1.00  0.00    -0.196 A  
HETATM    9  C   UNL     1      -8.003  13.661  67.932  1.00  0.00    -0.161 A  
HETATM   10  C   UNL     1      -6.773  14.303  68.091  1.00  0.00    -0.129 A  
HETATM   11  C   UNL     1      -6.691  15.683  67.955  1.00  0.00    -0.167 A  
HETATM   12  C   UNL     1      -7.833  16.415  67.638  1.00  0.00    -0.160 A  
HETATM   13  C   UNL     1      -9.069  15.771  67.453  1.00  0.00    -0.206 A  
HETATM   14  C   UNL     1     -10.272  16.560  67.026  1.00  0.00    -0.288 C  
HETATM   15  C   UNL     1     -10.681  16.200  65.603  1.00  0.00    -0.321 C  
HETATM   16  C   UNL     1     -11.242  14.816  65.341  1.00  0.00    -0.347 A  
HETATM   17  C   UNL     1     -11.919  14.672  64.109  1.00  0.00    -0.316 A  
HETATM   18  C   UNL     1     -12.491  13.464  63.722  1.00  0.00    -0.318 A  
HETATM   19  C   UNL     1     -12.402  12.370  64.566  1.00  0.00    -0.519 A  
HETATM   20  C   UNL     1     -11.731  12.490  65.784  1.00  0.00    -0.478 A  
HETATM   21  C   UNL     1     -11.129  13.701  66.200  1.00  0.00    -0.295 A  
ENDBRANCH   6   7
ENDBRANCH   5   6
ENDBRANCH   4   5
ENDBRANCH   2   4
TORSDOF 4
ENDMDL
MODEL       36
REMARK 921   NORMALIZED FREE ENERGY PREDICTED BY IDOCK:   -5.49 KCAL/MOL
REMARK 922        TOTAL FREE ENERGY PREDICTED BY IDOCK:   -7.07 KCAL/MOL
REMARK 923 INTER-LIGAND FREE ENERGY PREDICTED BY IDOCK:   -6.93 KCAL/MOL
REMARK 924 INTRA-LIGAND FREE ENERGY PREDICTED BY IDOCK:   -0.15 KCAL/MOL
REMARK 927      BINDING AFFINITY PREDICTED BY RF-SCORE:    0.00 PKD
ROOT
HETATM    1  C   UNL     1     -12.575  15.545  72.505  1.00  0.00    -0.403 C  
HETATM    2  N   UNL     1     -12.536  14.261  71.800  1.00  0.00    -0.341 NA 
HETATM    3  C   UNL     1     -13.610  13.397  72.301  1.00  0.00    -0.605 C  
ENDROOT
BRANCH   2   4
HETATM    4  C   UNL     1     -12.661  14.418  70.341  1.00  0.00    -0.345 C  
BRANCH   4   5
HETATM    5  C   UNL     1     -11.662  13.596  69.521  1.00  0.00    -0.380 C  
BRANCH   5   6
HETATM    6  C   UNL     1     -12.215  13.112  68.174  1.00  0.00    -0.028 C  
BRANCH   6   7
HETATM    7  N   UNL     1     -11.181  13.193  67.109  1.00  0.00    -0.283 NA 
HETATM    8  C   UNL     1     -10.969  14.490  66.602  1.00  0.00    -0.321 A  
HETATM    9  C   UNL     1     -10.247  15.419  67.369  1.00  0.00    -0.249 A  
HETATM   10  C   UNL     1      -9.958  16.695  66.878  1.00  0.00    -0.272 A  
HETATM   11  C   UNL     1     -10.414  17.070  65.619  1.00  0.00    -0.229 A  
HETATM   12  C   UNL     1     -11.136  16.163  64.847  1.00  0.00    -0.336 A  
HETATM   13  C   UNL     1     -11.409  14.870  65.328  1.00  0.00    -0.358 A  
HETATM   14  C   UNL     1     -12.111  13.875  64.451  1.00  0.00    -0.477 C  
HETATM   15  C   UNL     1     -11.169  12.750  64.042  1.00  0.00    -0.463 C  
HETATM   16  C   UNL     1     -10.693  11.783  65.108  1.00  0.00    -0.343 A  
HETATM   17  C   UNL     1     -10.127  10.585  64.614  1.00  0.00    -0.408 A  
HETATM   18  C   UNL     1      -9.645   9.595  65.465  1.00  0.00    -0.351 A  
HETATM   19  C   UNL     1      -9.723   9.781  66.835  1.00  0.00    -0.243 A  
HETATM   20  C   UNL     1     -10.271  10.961  67.341  1.00  0.00    -0.236 A  
HETATM   21  C   UNL     1     -10.759  11.990  66.503  1.00  0.00    -0.258 A  
ENDBRANCH   6   7
ENDBRANCH   5   6
ENDBRANCH   4   5
ENDBRANCH   2   4
TORSDOF 4
ENDMDL
MODEL       37
REMARK 921   NORMALIZED FREE ENERGY PREDICTED BY IDOCK:   -5.49 KCAL/MOL
REMARK 922        TOTAL FREE ENERGY PREDICTED BY IDOCK:   -7.07 KCAL/MOL
REMARK 923 INTER-LIGAND FREE ENERGY PREDICTED BY IDOCK:   -6.41 KCAL/MOL
REMARK 924 INTRA-LIGAND FREE ENERGY PREDICTED BY IDOCK:   -0.66 KCAL/MOL
REMARK 927      BINDING AFFINITY PREDICTED BY RF-SCORE:    0.00 PKD
ROOT
HETATM    1  C   UNL     1     -13.055   8.872  71.524  1.00  0.00    -0.329 C  
HETATM    2  N   UNL     1     -12.706  10.144  70.883  1.00  0.00    -0.353 NA 
HETATM    3  C   UNL     1     -13.057  11.252  71.776  1.00  0.00    -0.422 C  
ENDROOT
BRANCH   2   4
HETATM    4  C   UNL     1     -11.279  10.220  70.528  1.00  0.00    -0.330 C  
BRANCH   4   5
HETATM    5  C   UNL     1     -10.998  10.726  69.111  1.00  0.00    -0.293 C  
BRANCH   5   6
HETATM    6  C   UNL     1     -12.181  11.465  68.471  1.00  0.00     0.098 C  
BRANCH   6   7
HETATM    7  N   UNL     1     -11.737  12.726  67.820  1.00  0.00    -0.351 NA 
HETATM    8  C   UNL     1     -11.463  12.604  66.443  1.00  0.00    -0.356 A  
HETATM    9  C   UNL     1     -12.529  12.514  65.534  1.00  0.00    -0.228 A  
HETATM   10  C   UNL     1     -12.303  12.456  64.157  1.00  0.00    -0.558 A  
HETATM   11  C   UNL     1     -11.002  12.459  63.669  1.00  0.00    -0.525 A  
HETATM   12  C   UNL     1      -9.932  12.543  64.557  1.00  0.00    -0.195 A  
HETATM   13  C   UNL     1     -10.155  12.624  65.943  1.00  0.00    -0.276 A  
HETATM   14  C   UNL     1      -8.997  12.802  66.881  1.00  0.00    -0.213 C  
HETATM   15  C   UNL     1      -9.021  14.186  67.517  1.00  0.00    -0.198 C  
HETATM   16  C   UNL     1     -10.130  14.511  68.498  1.00  0.00    -0.242 A  
HETATM   17  C   UNL     1      -9.897  15.650  69.303  1.00  0.00    -0.269 A  
HETATM   18  C   UNL     1     -10.820  16.078  70.254  1.00  0.00    -0.327 A  
HETATM   19  C   UNL     1     -11.998  15.372  70.423  1.00  0.00    -0.387 A  
HETATM   20  C   UNL     1     -12.249  14.249  69.631  1.00  0.00    -0.371 A  
HETATM   21  C   UNL     1     -11.337  13.795  68.650  1.00  0.00    -0.287 A  
ENDBRANCH   6   7
ENDBRANCH   5   6
ENDBRANCH   4   5
ENDBRANCH   2   4
TORSDOF 4
ENDMDL
MODEL       38
REMARK 921   NORMALIZED FREE ENERGY PREDICTED BY IDOCK:   -5.49 KCAL/MOL
REMARK 922        TOTAL FREE ENERGY PREDICTED BY IDOCK:   -7.07 KCAL/MOL
REMARK 923 INTER-LIGAND FREE ENERGY PREDICTED BY IDOCK:   -6.28 KCAL/MOL
REMARK 924 INTRA-LIGAND FREE ENERGY PREDICTED BY IDOCK:   -0.79 KCAL/MOL
REMARK 927      BINDING AFFINITY PREDICTED BY RF-SCORE:    0.00 PKD
ROOT
HETATM    1  C   UNL     1     -10.221  15.770  65.765  1.00  0.00    -0.370 C  
HETATM    2  N   UNL     1      -9.494  16.160  66.976  1.00  0.00    -0.218 NA 
HETATM    3  C   UNL     1     -10.376  16.024  68.140  1.00  0.00    -0.260 C  
ENDROOT
BRANCH   2   4
HETATM    4  C   UNL     1      -8.272  15.363  67.178  1.00  0.00    -0.219 C  
BRANCH   4   5
HETATM    5  C   UNL     1      -8.473  14.077  67.985  1.00  0.00    -0.171 C  
BRANCH   5   6
HETATM    6  C   UNL     1      -8.113  12.800  67.213  1.00  0.00    -0.172 C  
BRANCH   6   7
HETATM    7  N   UNL     1      -9.238  11.828  67.228  1.00  0.00    -0.169 NA 
HETATM    8  C   UNL     1     -10.129  11.955  66.143  1.00  0.00    -0.228 A  
HETATM    9  C   UNL     1      -9.743  11.485  64.877  1.00  0.00    -0.264 A  
HETATM   10  C   UNL     1     -10.618  11.532  63.790  1.00  0.00    -0.465 A  
HETATM   11  C   UNL     1     -11.887  12.078  63.947  1.00  0.00    -0.543 A  
HETATM   12  C   UNL     1     -12.284  12.554  65.194  1.00  0.00    -0.509 A  
HETATM   13  C   UNL     1     -11.414  12.488  66.297  1.00  0.00    -0.421 A  
HETATM   14  C   UNL     1     -11.887  12.924  67.653  1.00  0.00    -0.400 C  
HETATM   15  C   UNL     1     -12.018  11.731  68.592  1.00  0.00    -0.299 C  
HETATM   16  C   UNL     1     -10.756  11.017  69.035  1.00  0.00    -0.258 A  
HETATM   17  C   UNL     1     -10.914  10.171  70.157  1.00  0.00    -0.376 A  
HETATM   18  C   UNL     1      -9.849   9.448  70.686  1.00  0.00    -0.340 A  
HETATM   19  C   UNL     1      -8.598   9.558  70.105  1.00  0.00    -0.250 A  
HETATM   20  C   UNL     1      -8.424  10.383  68.991  1.00  0.00    -0.155 A  
HETATM   21  C   UNL     1      -9.488  11.122  68.424  1.00  0.00    -0.189 A  
ENDBRANCH   6   7
ENDBRANCH   5   6
ENDBRANCH   4   5
ENDBRANCH   2   4
TORSDOF 4
ENDMDL
MODEL       39
REMARK 921   NORMALIZED FREE ENERGY PREDICTED BY IDOCK:   -5.48 KCAL/MOL
REMARK 922        TOTAL FREE ENERGY PREDICTED BY IDOCK:   -7.06 KCAL/MOL
REMARK 923 INTER-LIGAND FREE ENERGY PREDICTED BY IDOCK:   -6.40 KCAL/MOL
REMARK 924 INTRA-LIGAND FREE ENERGY PREDICTED BY IDOCK:   -0.65 KCAL/MOL
REMARK 927      BINDING AFFINITY PREDICTED BY RF-SCORE:    0.00 PKD
ROOT
HETATM    1  C   UNL     1     -10.852   9.623  70.550  1.00  0.00    -0.309 C  
HETATM    2  N   UNL     1     -12.079  10.363  70.240  1.00  0.00    -0.288 NA 
HETATM    3  C   UNL     1     -12.915  10.447  71.442  1.00  0.00    -0.443 C  
ENDROOT
BRANCH   2   4
HETATM    4  C   UNL     1     -11.804  11.715  69.727  1.00  0.00    -0.357 C  
BRANCH   4   5
HETATM    5  C   UNL     1     -11.446  11.775  68.239  1.00  0.00    -0.370 C  
BRANCH   5   6
HETATM    6  C   UNL     1     -10.242  12.673  67.927  1.00  0.00    -0.220 C  
BRANCH   6   7
HETATM    7  N   UNL     1      -9.964  12.710  66.467  1.00  0.00    -0.245 NA 
HETATM    8  C   UNL     1     -10.567  13.788  65.788  1.00  0.00    -0.293 A  
HETATM    9  C   UNL     1     -10.023  15.076  65.920  1.00  0.00    -0.353 A  
HETATM   10  C   UNL     1     -10.550  16.160  65.215  1.00  0.00    -0.390 A  
HETATM   11  C   UNL     1     -11.649  15.976  64.385  1.00  0.00    -0.212 A  
HETATM   12  C   UNL     1     -12.205  14.706  64.246  1.00  0.00    -0.432 A  
HETATM   13  C   UNL     1     -11.663  13.607  64.936  1.00  0.00    -0.379 A  
HETATM   14  C   UNL     1     -12.216  12.231  64.709  1.00  0.00    -0.438 C  
HETATM   15  C   UNL     1     -11.209  11.355  63.974  1.00  0.00    -0.350 C  
HETATM   16  C   UNL     1      -9.941  10.948  64.699  1.00  0.00    -0.369 A  
HETATM   17  C   UNL     1      -9.238   9.872  64.110  1.00  0.00    -0.312 A  
HETATM   18  C   UNL     1      -8.057   9.380  64.657  1.00  0.00    -0.133 A  
HETATM   19  C   UNL     1      -7.553   9.954  65.811  1.00  0.00    -0.113 A  
HETATM   20  C   UNL     1      -8.228  11.023  66.403  1.00  0.00    -0.166 A  
HETATM   21  C   UNL     1      -9.424  11.553  65.866  1.00  0.00    -0.230 A  
ENDBRANCH   6   7
ENDBRANCH   5   6
ENDBRANCH   4   5
ENDBRANCH   2   4
TORSDOF 4
ENDMDL
MODEL       40
REMARK 921   NORMALIZED FREE ENERGY PREDICTED BY IDOCK:   -5.42 KCAL/MOL
REMARK 922        TOTAL FREE ENERGY PREDICTED BY IDOCK:   -6.98 KCAL/MOL
REMARK 923 INTER-LIGAND FREE ENERGY PREDICTED BY IDOCK:   -6.41 KCAL/MOL
REMARK 924 INTRA-LIGAND FREE ENERGY PREDICTED BY IDOCK:   -0.57 KCAL/MOL
REMARK 927      BINDING AFFINITY PREDICTED BY RF-SCORE:    0.00 PKD
ROOT
HETATM    1  C   UNL     1     -11.320  10.078  70.104  1.00  0.00    -0.291 C  
HETATM    2  N   UNL     1     -12.337  11.129  70.204  1.00  0.00    -0.305 NA 
HETATM    3  C   UNL     1     -12.832  11.199  71.582  1.00  0.00    -0.419 C  
ENDROOT
BRANCH   2   4
HETATM    4  C   UNL     1     -11.824  12.446  69.789  1.00  0.00    -0.317 C  
BRANCH   4   5
HETATM    5  C   UNL     1     -11.333  12.514  68.341  1.00  0.00    -0.333 C  
BRANCH   5   6
HETATM    6  C   UNL     1      -9.827  12.785  68.209  1.00  0.00    -0.224 C  
BRANCH   6   7
HETATM    7  N   UNL     1      -9.490  13.295  66.855  1.00  0.00    -0.242 NA 
HETATM    8  C   UNL     1      -9.082  14.644  66.827  1.00  0.00    -0.264 A  
HETATM    9  C   UNL     1      -7.795  14.983  67.272  1.00  0.00    -0.241 A  
HETATM   10  C   UNL     1      -7.327  16.298  67.202  1.00  0.00    -0.244 A  
HETATM   11  C   UNL     1      -8.155  17.300  66.711  1.00  0.00    -0.280 A  
HETATM   12  C   UNL     1      -9.438  16.982  66.270  1.00  0.00    -0.281 A  
HETATM   13  C   UNL     1      -9.904  15.657  66.317  1.00  0.00    -0.318 A  
HETATM   14  C   UNL     1     -11.254  15.315  65.758  1.00  0.00    -0.247 C  
HETATM   15  C   UNL     1     -11.122  14.470  64.497  1.00  0.00    -0.280 C  
HETATM   16  C   UNL     1     -10.592  13.056  64.628  1.00  0.00    -0.397 A  
HETATM   17  C   UNL     1     -10.827  12.226  63.507  1.00  0.00    -0.508 A  
HETATM   18  C   UNL     1     -10.403  10.901  63.473  1.00  0.00    -0.342 A  
HETATM   19  C   UNL     1      -9.736  10.373  64.565  1.00  0.00    -0.393 A  
HETATM   20  C   UNL     1      -9.488  11.179  65.678  1.00  0.00    -0.252 A  
HETATM   21  C   UNL     1      -9.895  12.532  65.739  1.00  0.00    -0.234 A  
ENDBRANCH   6   7
ENDBRANCH   5   6
ENDBRANCH   4   5
ENDBRANCH   2   4
TORSDOF 4
ENDMDL
MODEL       41
REMARK 921   NORMALIZED FREE ENERGY PREDICTED BY IDOCK:   -5.39 KCAL/MOL
REMARK 922        TOTAL FREE ENERGY PREDICTED BY IDOCK:   -6.94 KCAL/MOL
REMARK 923 INTER-LIGAND FREE ENERGY PREDICTED BY IDOCK:   -6.25 KCAL/MOL
REMARK 924 INTRA-LIGAND FREE ENERGY PREDICTED BY IDOCK:   -0.70 KCAL/MOL
REMARK 927      BINDING AFFINITY PREDICTED BY RF-SCORE:    0.00 PKD
ROOT
HETATM    1  C   UNL     1     -10.742   8.328  69.692  1.00  0.00    -0.194 C  
HETATM    2  N   UNL     1      -9.574   9.162  69.395  1.00  0.00    -0.161 NA 
HETATM    3  C   UNL     1      -8.603   8.382  68.619  1.00  0.00    -0.132 C  
ENDROOT
BRANCH   2   4
HETATM    4  C   UNL     1      -9.931  10.387  68.661  1.00  0.00    -0.177 C  
BRANCH   4   5
HETATM    5  C   UNL     1     -10.513  11.506  69.529  1.00  0.00     0.109 C  
BRANCH   5   6
HETATM    6  C   UNL     1     -11.910  11.968  69.090  1.00  0.00    -0.311 C  
BRANCH   6   7
HETATM    7  N   UNL     1     -11.952  13.441  68.895  1.00  0.00    -0.338 NA 
HETATM    8  C   UNL     1     -11.596  13.866  67.599  1.00  0.00    -0.348 A  
HETATM    9  C   UNL     1     -12.511  13.705  66.547  1.00  0.00    -0.337 A  
HETATM   10  C   UNL     1     -12.225  14.170  65.261  1.00  0.00    -0.440 A  
HETATM   11  C   UNL     1     -11.004  14.780  65.003  1.00  0.00    -0.426 A  
HETATM   12  C   UNL     1     -10.082  14.944  66.035  1.00  0.00    -0.331 A  
HETATM   13  C   UNL     1     -10.375  14.498  67.336  1.00  0.00    -0.252 A  
HETATM   14  C   UNL     1      -9.410  14.760  68.454  1.00  0.00    -0.197 C  
HETATM   15  C   UNL     1      -9.982  15.770  69.441  1.00  0.00    -0.274 C  
HETATM   16  C   UNL     1     -11.170  15.360  70.288  1.00  0.00    -0.328 A  
HETATM   17  C   UNL     1     -11.420  16.189  71.405  1.00  0.00    -0.429 A  
HETATM   18  C   UNL     1     -12.473  15.944  72.282  1.00  0.00    -0.543 A  
HETATM   19  C   UNL     1     -13.301  14.857  72.060  1.00  0.00    -0.463 A  
HETATM   20  C   UNL     1     -13.075  14.031  70.958  1.00  0.00    -0.342 A  
HETATM   21  C   UNL     1     -12.021  14.259  70.043  1.00  0.00    -0.334 A  
ENDBRANCH   6   7
ENDBRANCH   5   6
ENDBRANCH   4   5
ENDBRANCH   2   4
TORSDOF 4
ENDMDL
MODEL       42
REMARK 921   NORMALIZED FREE ENERGY PREDICTED BY IDOCK:   -5.37 KCAL/MOL
REMARK 922        TOTAL FREE ENERGY PREDICTED BY IDOCK:   -6.92 KCAL/MOL
REMARK 923 INTER-LIGAND FREE ENERGY PREDICTED BY IDOCK:   -6.45 KCAL/MOL
REMARK 924 INTRA-LIGAND FREE ENERGY PREDICTED BY IDOCK:   -0.48 KCAL/MOL
REMARK 927      BINDING AFFINITY PREDICTED BY RF-SCORE:    0.00 PKD
ROOT
HETATM    1  C   UNL     1      -6.021  13.898  68.430  1.00  0.00    -0.101 C  
HETATM    2  N   UNL     1      -6.840  12.998  67.612  1.00  0.00    -0.142 NA 
HETATM    3  C   UNL     1      -5.986  11.962  67.023  1.00  0.00    -0.153 C  
ENDROOT
BRANCH   2   4
HETATM    4  C   UNL     1      -7.926  12.371  68.385  1.00  0.00    -0.149 C  
BRANCH   4   5
HETATM    5  C   UNL     1      -9.133  11.931  67.551  1.00  0.00    -0.178 C  
BRANCH   5   6
HETATM    6  C   UNL     1     -10.413  11.726  68.374  1.00  0.00    -0.215 C  
BRANCH   6   7
HETATM    7  N   UNL     1     -11.369  12.846  68.166  1.00  0.00    -0.268 NA 
HETATM    8  C   UNL     1     -11.492  13.263  66.825  1.00  0.00    -0.350 A  
HETATM    9  C   UNL     1     -12.224  12.475  65.923  1.00  0.00    -0.310 A  
HETATM   10  C   UNL     1     -12.424  12.883  64.603  1.00  0.00    -0.499 A  
HETATM   11  C   UNL     1     -11.870  14.077  64.157  1.00  0.00    -0.393 A  
HETATM   12  C   UNL     1     -11.136  14.869  65.037  1.00  0.00    -0.422 A  
HETATM   13  C   UNL     1     -10.951  14.474  66.373  1.00  0.00    -0.324 A  
HETATM   14  C   UNL     1     -10.234  15.378  67.332  1.00  0.00    -0.249 C  
HETATM   15  C   UNL     1     -11.194  15.932  68.378  1.00  0.00    -0.368 C  
HETATM   16  C   UNL     1     -11.780  14.977  69.399  1.00  0.00    -0.351 A  
HETATM   17  C   UNL     1     -12.362  15.597  70.528  1.00  0.00    -0.443 A  
HETATM   18  C   UNL     1     -12.941  14.857  71.555  1.00  0.00    -0.419 A  
HETATM   19  C   UNL     1     -12.948  13.475  71.475  1.00  0.00    -0.440 A  
HETATM   20  C   UNL     1     -12.385  12.845  70.364  1.00  0.00    -0.333 A  
HETATM   21  C   UNL     1     -11.799  13.568  69.299  1.00  0.00    -0.341 A  
ENDBRANCH   6   7
ENDBRANCH   5   6
ENDBRANCH   4   5
ENDBRANCH   2   4
TORSDOF 4
ENDMDL
MODEL       43
REMARK 921   NORMALIZED FREE ENERGY PREDICTED BY IDOCK:   -5.34 KCAL/MOL
REMARK 922        TOTAL FREE ENERGY PREDICTED BY IDOCK:   -6.89 KCAL/MOL
REMARK 923 INTER-LIGAND FREE ENERGY PREDICTED BY IDOCK:   -6.28 KCAL/MOL
REMARK 924 INTRA-LIGAND FREE ENERGY PREDICTED BY IDOCK:   -0.61 KCAL/MOL
REMARK 927      BINDING AFFINITY PREDICTED BY RF-SCORE:    0.00 PKD
ROOT
HETATM    1  C   UNL     1     -12.823  13.597  71.493  1.00  0.00    -0.359 C  
HETATM    2  N   UNL     1     -12.531  14.350  70.269  1.00  0.00    -0.349 NA 
HETATM    3  C   UNL     1     -12.026  15.680  70.624  1.00  0.00    -0.402 C  
ENDROOT
BRANCH   2   4
HETATM    4  C   UNL     1     -11.559  13.660  69.405  1.00  0.00    -0.312 C  
BRANCH   4   5
HETATM    5  C   UNL     1     -12.118  13.191  68.059  1.00  0.00    -0.240 C  
BRANCH   5   6
HETATM    6  C   UNL     1     -12.035  14.250  66.951  1.00  0.00    -0.438 C  
BRANCH   6   7
HETATM    7  N   UNL     1     -10.729  14.185  66.244  1.00  0.00    -0.290 NA 
HETATM    8  C   UNL     1     -10.461  12.945  65.630  1.00  0.00    -0.277 A  
HETATM    9  C   UNL     1     -11.120  12.613  64.435  1.00  0.00    -0.385 A  
HETATM   10  C   UNL     1     -10.837  11.423  63.759  1.00  0.00    -0.468 A  
HETATM   11  C   UNL     1      -9.908  10.534  64.286  1.00  0.00    -0.402 A  
HETATM   12  C   UNL     1      -9.249  10.845  65.473  1.00  0.00    -0.232 A  
HETATM   13  C   UNL     1      -9.514  12.052  66.144  1.00  0.00    -0.241 A  
HETATM   14  C   UNL     1      -8.733  12.414  67.374  1.00  0.00    -0.183 C  
HETATM   15  C   UNL     1      -7.811  13.596  67.103  1.00  0.00    -0.028 C  
HETATM   16  C   UNL     1      -8.432  14.955  66.849  1.00  0.00    -0.255 A  
HETATM   17  C   UNL     1      -7.542  16.047  66.959  1.00  0.00    -0.265 A  
HETATM   18  C   UNL     1      -7.960  17.359  66.757  1.00  0.00    -0.278 A  
HETATM   19  C   UNL     1      -9.285  17.608  66.442  1.00  0.00    -0.263 A  
HETATM   20  C   UNL     1     -10.178  16.542  66.320  1.00  0.00    -0.343 A  
HETATM   21  C   UNL     1      -9.782  15.198  66.509  1.00  0.00    -0.271 A  
ENDBRANCH   6   7
ENDBRANCH   5   6
ENDBRANCH   4   5
ENDBRANCH   2   4
TORSDOF 4
ENDMDL
MODEL       44
REMARK 921   NORMALIZED FREE ENERGY PREDICTED BY IDOCK:   -5.32 KCAL/MOL
REMARK 922        TOTAL FREE ENERGY PREDICTED BY IDOCK:   -6.86 KCAL/MOL
REMARK 923 INTER-LIGAND FREE ENERGY PREDICTED BY IDOCK:   -6.09 KCAL/MOL
REMARK 924 INTRA-LIGAND FREE ENERGY PREDICTED BY IDOCK:   -0.77 KCAL/MOL
REMARK 927      BINDING AFFINITY PREDICTED BY RF-SCORE:    0.00 PKD
ROOT
HETATM    1  C   UNL     1     -10.274   8.905  66.578  1.00  0.00    -0.249 C  
HETATM    2  N   UNL     1     -10.183  10.015  67.530  1.00  0.00    -0.198 NA 
HETATM    3  C   UNL     1     -10.570   9.546  68.865  1.00  0.00    -0.216 C  
ENDROOT
BRANCH   2   4
HETATM    4  C   UNL     1      -8.834  10.604  67.579  1.00  0.00    -0.132 C  
BRANCH   4   5
HETATM    5  C   UNL     1      -8.792  12.071  68.017  1.00  0.00    -0.179 C  
BRANCH   5   6
HETATM    6  C   UNL     1      -8.352  13.037  66.908  1.00  0.00    -0.022 C  
BRANCH   6   7
HETATM    7  N   UNL     1      -9.494  13.858  66.428  1.00  0.00    -0.274 NA 
HETATM    8  C   UNL     1      -9.641  15.093  67.092  1.00  0.00    -0.218 A  
HETATM    9  C   UNL     1      -8.762  16.145  66.791  1.00  0.00    -0.273 A  
HETATM   10  C   UNL     1      -8.912  17.404  67.377  1.00  0.00    -0.232 A  
HETATM   11  C   UNL     1      -9.930  17.621  68.298  1.00  0.00    -0.339 A  
HETATM   12  C   UNL     1     -10.809  16.586  68.612  1.00  0.00    -0.345 A  
HETATM   13  C   UNL     1     -10.676  15.324  68.006  1.00  0.00    -0.268 A  
HETATM   14  C   UNL     1     -11.681  14.246  68.288  1.00  0.00    -0.377 C  
HETATM   15  C   UNL     1     -12.527  13.956  67.054  1.00  0.00    -0.142 C  
HETATM   16  C   UNL     1     -11.860  13.306  65.858  1.00  0.00    -0.436 A  
HETATM   17  C   UNL     1     -12.750  12.750  64.910  1.00  0.00    -0.479 A  
HETATM   18  C   UNL     1     -12.294  12.117  63.758  1.00  0.00    -0.635 A  
HETATM   19  C   UNL     1     -10.932  12.022  63.529  1.00  0.00    -0.514 A  
HETATM   20  C   UNL     1     -10.038  12.571  64.450  1.00  0.00    -0.284 A  
HETATM   21  C   UNL     1     -10.470  13.230  65.624  1.00  0.00    -0.281 A  
ENDBRANCH   6   7
ENDBRANCH   5   6
ENDBRANCH   4   5
ENDBRANCH   2   4
TORSDOF 4
ENDMDL
MODEL       45
REMARK 921   NORMALIZED FREE ENERGY PREDICTED BY IDOCK:   -5.32 KCAL/MOL
REMARK 922        TOTAL FREE ENERGY PREDICTED BY IDOCK:   -6.86 KCAL/MOL
REMARK 923 INTER-LIGAND FREE ENERGY PREDICTED BY IDOCK:   -6.20 KCAL/MOL
REMARK 924 INTRA-LIGAND FREE ENERGY PREDICTED BY IDOCK:   -0.66 KCAL/MOL
REMARK 927      BINDING AFFINITY PREDICTED BY RF-SCORE:    0.00 PKD
ROOT
HETATM    1  C   UNL     1     -11.167   8.985  71.677  1.00  0.00    -0.361 C  
HETATM    2  N   UNL     1     -12.240   9.751  71.037  1.00  0.00    -0.329 NA 
HETATM    3  C   UNL     1     -13.284  10.045  72.024  1.00  0.00    -0.443 C  
ENDROOT
BRANCH   2   4
HETATM    4  C   UNL     1     -11.753  11.005  70.437  1.00  0.00    -0.343 C  
BRANCH   4   5
HETATM    5  C   UNL     1     -11.629  10.978  68.911  1.00  0.00    -0.383 C  
BRANCH   5   6
HETATM    6  C   UNL     1     -12.117  12.262  68.227  1.00  0.00    -0.026 C  
BRANCH   6   7
HETATM    7  N   UNL     1     -11.047  12.862  67.387  1.00  0.00    -0.263 NA 
HETATM    8  C   UNL     1     -10.989  12.358  66.072  1.00  0.00    -0.289 A  
HETATM    9  C   UNL     1     -11.950  12.769  65.135  1.00  0.00    -0.466 A  
HETATM   10  C   UNL     1     -11.893  12.344  63.805  1.00  0.00    -0.587 A  
HETATM   11  C   UNL     1     -10.885  11.478  63.400  1.00  0.00    -0.423 A  
HETATM   12  C   UNL     1      -9.925  11.056  64.318  1.00  0.00    -0.373 A  
HETATM   13  C   UNL     1      -9.966  11.499  65.652  1.00  0.00    -0.275 A  
HETATM   14  C   UNL     1      -8.877  11.107  66.607  1.00  0.00    -0.168 C  
HETATM   15  C   UNL     1      -8.024  12.312  66.983  1.00  0.00    -0.123 C  
HETATM   16  C   UNL     1      -8.650  13.406  67.825  1.00  0.00    -0.194 A  
HETATM   17  C   UNL     1      -7.730  14.296  68.425  1.00  0.00    -0.134 A  
HETATM   18  C   UNL     1      -8.147  15.352  69.229  1.00  0.00    -0.246 A  
HETATM   19  C   UNL     1      -9.500  15.540  69.454  1.00  0.00    -0.278 A  
HETATM   20  C   UNL     1     -10.424  14.677  68.864  1.00  0.00    -0.248 A  
HETATM   21  C   UNL     1     -10.033  13.601  68.034  1.00  0.00    -0.247 A  
ENDBRANCH   6   7
ENDBRANCH   5   6
ENDBRANCH   4   5
ENDBRANCH   2   4
TORSDOF 4
ENDMDL
MODEL       46
REMARK 921   NORMALIZED FREE ENERGY PREDICTED BY IDOCK:   -5.31 KCAL/MOL
REMARK 922        TOTAL FREE ENERGY PREDICTED BY IDOCK:   -6.85 KCAL/MOL
REMARK 923 INTER-LIGAND FREE ENERGY PREDICTED BY IDOCK:   -6.14 KCAL/MOL
REMARK 924 INTRA-LIGAND FREE ENERGY PREDICTED BY IDOCK:   -0.70 KCAL/MOL
REMARK 927      BINDING AFFINITY PREDICTED BY RF-SCORE:    0.00 PKD
ROOT
HETATM    1  C   UNL     1     -10.473  12.953  64.183  1.00  0.00    -0.406 C  
HETATM    2  N   UNL     1     -11.895  13.280  64.037  1.00  0.00    -0.433 NA 
HETATM    3  C   UNL     1     -12.624  12.091  63.586  1.00  0.00    -0.490 C  
ENDROOT
BRANCH   2   4
HETATM    4  C   UNL     1     -12.485  13.785  65.288  1.00  0.00    -0.480 C  
BRANCH   4   5
HETATM    5  C   UNL     1     -12.033  13.048  66.552  1.00  0.00    -0.457 C  
BRANCH   5   6
HETATM    6  C   UNL     1     -11.733  13.977  67.737  1.00  0.00    -0.368 C  
BRANCH   6   7
HETATM    7  N   UNL     1     -10.648  13.424  68.590  1.00  0.00    -0.248 NA 
HETATM    8  C   UNL     1      -9.414  14.093  68.466  1.00  0.00    -0.202 A  
HETATM    9  C   UNL     1      -9.247  15.348  69.073  1.00  0.00    -0.235 A  
HETATM   10  C   UNL     1      -8.021  16.016  69.029  1.00  0.00    -0.224 A  
HETATM   11  C   UNL     1      -6.948  15.448  68.352  1.00  0.00    -0.111 A  
HETATM   12  C   UNL     1      -7.098  14.205  67.740  1.00  0.00    -0.185 A  
HETATM   13  C   UNL     1      -8.323  13.519  67.801  1.00  0.00    -0.181 A  
HETATM   14  C   UNL     1      -8.444  12.144  67.214  1.00  0.00    -0.178 C  
HETATM   15  C   UNL     1      -8.621  11.099  68.308  1.00  0.00    -0.146 C  
HETATM   16  C   UNL     1      -9.912  11.095  69.102  1.00  0.00    -0.104 A  
HETATM   17  C   UNL     1     -10.156   9.911  69.836  1.00  0.00    -0.297 A  
HETATM   18  C   UNL     1     -11.299   9.752  70.613  1.00  0.00    -0.401 A  
HETATM   19  C   UNL     1     -12.228  10.777  70.672  1.00  0.00    -0.474 A  
HETATM   20  C   UNL     1     -12.001  11.956  69.961  1.00  0.00    -0.409 A  
HETATM   21  C   UNL     1     -10.845  12.153  69.171  1.00  0.00    -0.115 A  
ENDBRANCH   6   7
ENDBRANCH   5   6
ENDBRANCH   4   5
ENDBRANCH   2   4
TORSDOF 4
ENDMDL
MODEL       47
REMARK 921   NORMALIZED FREE ENERGY PREDICTED BY IDOCK:   -5.27 KCAL/MOL
REMARK 922        TOTAL FREE ENERGY PREDICTED BY IDOCK:   -6.80 KCAL/MOL
REMARK 923 INTER-LIGAND FREE ENERGY PREDICTED BY IDOCK:   -6.54 KCAL/MOL
REMARK 924 INTRA-LIGAND FREE ENERGY PREDICTED BY IDOCK:   -0.26 KCAL/MOL
REMARK 927      BINDING AFFINITY PREDICTED BY RF-SCORE:    0.00 PKD
ROOT
HETATM    1  C   UNL     1     -12.923  11.764  71.466  1.00  0.00    -0.341 C  
HETATM    2  N   UNL     1     -12.298  10.439  71.516  1.00  0.00    -0.381 NA 
HETATM    3  C   UNL     1     -13.324   9.408  71.333  1.00  0.00    -0.346 C  
ENDROOT
BRANCH   2   4
HETATM    4  C   UNL     1     -11.242  10.280  70.502  1.00  0.00    -0.330 C  
BRANCH   4   5
HETATM    5  C   UNL     1     -11.547  10.934  69.151  1.00  0.00    -0.389 C  
BRANCH   5   6
HETATM    6  C   UNL     1     -10.319  11.078  68.241  1.00  0.00    -0.178 C  
BRANCH   6   7
HETATM    7  N   UNL     1     -10.571  10.482  66.903  1.00  0.00    -0.253 NA 
HETATM    8  C   UNL     1     -10.142   9.146  66.772  1.00  0.00    -0.271 A  
HETATM    9  C   UNL     1     -10.894   8.121  67.366  1.00  0.00    -0.125 A  
HETATM   10  C   UNL     1     -10.540   6.778  67.207  1.00  0.00    -0.390 A  
HETATM   11  C   UNL     1      -9.409   6.444  66.472  1.00  0.00    -0.181 A  
HETATM   12  C   UNL     1      -8.648   7.450  65.879  1.00  0.00    -0.165 A  
HETATM   13  C   UNL     1      -9.014   8.800  66.017  1.00  0.00    -0.235 A  
HETATM   14  C   UNL     1      -8.236   9.866  65.302  1.00  0.00    -0.145 C  
HETATM   15  C   UNL     1      -9.070  10.494  64.192  1.00  0.00    -0.258 C  
HETATM   16  C   UNL     1     -10.267  11.341  64.578  1.00  0.00    -0.370 A  
HETATM   17  C   UNL     1     -10.770  12.166  63.547  1.00  0.00    -0.509 A  
HETATM   18  C   UNL     1     -11.864  13.003  63.744  1.00  0.00    -0.566 A  
HETATM   19  C   UNL     1     -12.479  13.036  64.984  1.00  0.00    -0.534 A  
HETATM   20  C   UNL     1     -12.002  12.222  66.013  1.00  0.00    -0.342 A  
HETATM   21  C   UNL     1     -10.899  11.353  65.841  1.00  0.00    -0.234 A  
ENDBRANCH   6   7
ENDBRANCH   5   6
ENDBRANCH   4   5
ENDBRANCH   2   4
TORSDOF 4
ENDMDL
MODEL       48
REMARK 921   NORMALIZED FREE ENERGY PREDICTED BY IDOCK:   -5.26 KCAL/MOL
REMARK 922        TOTAL FREE ENERGY PREDICTED BY IDOCK:   -6.79 KCAL/MOL
REMARK 923 INTER-LIGAND FREE ENERGY PREDICTED BY IDOCK:   -6.06 KCAL/MOL
REMARK 924 INTRA-LIGAND FREE ENERGY PREDICTED BY IDOCK:   -0.73 KCAL/MOL
REMARK 927      BINDING AFFINITY PREDICTED BY RF-SCORE:    0.00 PKD
ROOT
HETATM    1  C   UNL     1     -11.597  16.053  71.620  1.00  0.00    -0.459 C  
HETATM    2  N   UNL     1     -12.309  15.095  70.770  1.00  0.00    -0.330 NA 
HETATM    3  C   UNL     1     -13.714  15.025  71.185  1.00  0.00    -0.414 C  
ENDROOT
BRANCH   2   4
HETATM    4  C   UNL     1     -12.227  15.444  69.341  1.00  0.00    -0.219 C  
BRANCH   4   5
HETATM    5  C   UNL     1     -11.041  16.338  68.968  1.00  0.00    -0.331 C  
BRANCH   5   6
HETATM    6  C   UNL     1     -10.971  16.683  67.474  1.00  0.00    -0.147 C  
BRANCH   6   7
HETATM    7  N   UNL     1     -10.103  15.723  66.742  1.00  0.00    -0.264 NA 
HETATM    8  C   UNL     1     -10.806  14.717  66.049  1.00  0.00    -0.318 A  
HETATM    9  C   UNL     1     -11.460  15.037  64.848  1.00  0.00    -0.399 A  
HETATM   10  C   UNL     1     -12.114  14.057  64.097  1.00  0.00    -0.456 A  
HETATM   11  C   UNL     1     -12.146  12.744  64.552  1.00  0.00    -0.478 A  
HETATM   12  C   UNL     1     -11.507  12.410  65.744  1.00  0.00    -0.416 A  
HETATM   13  C   UNL     1     -10.828  13.389  66.492  1.00  0.00    -0.286 A  
HETATM   14  C   UNL     1     -10.071  12.998  67.727  1.00  0.00    -0.229 C  
HETATM   15  C   UNL     1      -8.569  13.144  67.512  1.00  0.00    -0.196 C  
HETATM   16  C   UNL     1      -7.993  14.537  67.352  1.00  0.00    -0.221 A  
HETATM   17  C   UNL     1      -6.592  14.624  67.513  1.00  0.00    -0.113 A  
HETATM   18  C   UNL     1      -5.913  15.833  67.397  1.00  0.00    -0.089 A  
HETATM   19  C   UNL     1      -6.625  16.987  67.121  1.00  0.00    -0.217 A  
HETATM   20  C   UNL     1      -8.009  16.921  66.951  1.00  0.00    -0.248 A  
HETATM   21  C   UNL     1      -8.726  15.706  67.051  1.00  0.00    -0.230 A  
ENDBRANCH   6   7
ENDBRANCH   5   6
ENDBRANCH   4   5
ENDBRANCH   2   4
TORSDOF 4
ENDMDL
MODEL       49
REMARK 921   NORMALIZED FREE ENERGY PREDICTED BY IDOCK:   -5.26 KCAL/MOL
REMARK 922        TOTAL FREE ENERGY PREDICTED BY IDOCK:   -6.78 KCAL/MOL
REMARK 923 INTER-LIGAND FREE ENERGY PREDICTED BY IDOCK:   -6.67 KCAL/MOL
REMARK 924 INTRA-LIGAND FREE ENERGY PREDICTED BY IDOCK:   -0.11 KCAL/MOL
REMARK 927      BINDING AFFINITY PREDICTED BY RF-SCORE:    0.00 PKD
ROOT
HETATM    1  C   UNL     1     -11.762  15.477  72.588  1.00  0.00    -0.461 C  
HETATM    2  N   UNL     1     -12.521  14.757  71.561  1.00  0.00    -0.320 NA 
HETATM    3  C   UNL     1     -13.949  15.048  71.716  1.00  0.00    -0.501 C  
ENDROOT
BRANCH   2   4
HETATM    4  C   UNL     1     -12.086  15.102  70.197  1.00  0.00    -0.343 C  
BRANCH   4   5
HETATM    5  C   UNL     1     -12.260  13.982  69.167  1.00  0.00    -0.299 C  
BRANCH   5   6
HETATM    6  C   UNL     1     -10.957  13.245  68.827  1.00  0.00    -0.260 C  
BRANCH   6   7
HETATM    7  N   UNL     1     -11.226  11.841  68.417  1.00  0.00    -0.229 NA 
HETATM    8  C   UNL     1     -11.605  10.990  69.475  1.00  0.00    -0.313 A  
HETATM    9  C   UNL     1     -12.904  11.082  70.000  1.00  0.00    -0.050 A  
HETATM   10  C   UNL     1     -13.341  10.215  71.004  1.00  0.00    -0.333 A  
HETATM   11  C   UNL     1     -12.474   9.258  71.517  1.00  0.00    -0.435 A  
HETATM   12  C   UNL     1     -11.179   9.156  71.011  1.00  0.00    -0.380 A  
HETATM   13  C   UNL     1     -10.742  10.012  69.984  1.00  0.00    -0.348 A  
HETATM   14  C   UNL     1      -9.377   9.833  69.389  1.00  0.00    -0.212 C  
HETATM   15  C   UNL     1      -9.472   9.330  67.954  1.00  0.00    -0.154 C  
HETATM   16  C   UNL     1     -10.035  10.259  66.897  1.00  0.00    -0.259 A  
HETATM   17  C   UNL     1      -9.769   9.875  65.563  1.00  0.00    -0.370 A  
HETATM   18  C   UNL     1     -10.217  10.624  64.480  1.00  0.00    -0.399 A  
HETATM   19  C   UNL     1     -10.941  11.782  64.708  1.00  0.00    -0.360 A  
HETATM   20  C   UNL     1     -11.221  12.174  66.019  1.00  0.00    -0.382 A  
HETATM   21  C   UNL     1     -10.789  11.429  67.140  1.00  0.00    -0.268 A  
ENDBRANCH   6   7
ENDBRANCH   5   6
ENDBRANCH   4   5
ENDBRANCH   2   4
TORSDOF 4
ENDMDL
MODEL       50
REMARK 921   NORMALIZED FREE ENERGY PREDICTED BY IDOCK:   -5.21 KCAL/MOL
REMARK 922        TOTAL FREE ENERGY PREDICTED BY IDOCK:   -6.73 KCAL/MOL
REMARK 923 INTER-LIGAND FREE ENERGY PREDICTED BY IDOCK:   -6.44 KCAL/MOL
REMARK 924 INTRA-LIGAND FREE ENERGY PREDICTED BY IDOCK:   -0.29 KCAL/MOL
REMARK 927      BINDING AFFINITY PREDICTED BY RF-SCORE:    0.00 PKD
ROOT
HETATM    1  C   UNL     1      -9.879  20.370  67.784  1.00  0.00    -0.353 C  
HETATM    2  N   UNL     1      -9.700  19.984  66.381  1.00  0.00    -0.427 NA 
HETATM    3  C   UNL     1      -8.326  19.514  66.175  1.00  0.00    -0.321 C  
ENDROOT
BRANCH   2   4
HETATM    4  C   UNL     1     -10.652  18.942  65.961  1.00  0.00    -0.403 C  
BRANCH   4   5
HETATM    5  C   UNL     1     -10.100  17.514  66.008  1.00  0.00    -0.270 C  
BRANCH   5   6
HETATM    6  C   UNL     1     -10.999  16.479  65.317  1.00  0.00    -0.162 C  
BRANCH   6   7
HETATM    7  N   UNL     1     -11.023  15.199  66.073  1.00  0.00    -0.335 NA 
HETATM    8  C   UNL     1     -10.829  15.341  67.461  1.00  0.00    -0.304 A  
HETATM    9  C   UNL     1     -11.879  15.826  68.257  1.00  0.00    -0.116 A  
HETATM   10  C   UNL     1     -11.752  15.922  69.645  1.00  0.00    -0.322 A  
HETATM   11  C   UNL     1     -10.558  15.558  70.255  1.00  0.00    -0.324 A  
HETATM   12  C   UNL     1      -9.503  15.080  69.481  1.00  0.00    -0.081 A  
HETATM   13  C   UNL     1      -9.635  14.960  68.086  1.00  0.00    -0.210 A  
HETATM   14  C   UNL     1      -8.524  14.361  67.275  1.00  0.00    -0.229 C  
HETATM   15  C   UNL     1      -8.931  13.005  66.713  1.00  0.00    -0.179 C  
HETATM   16  C   UNL     1     -10.009  12.958  65.648  1.00  0.00    -0.245 A  
HETATM   17  C   UNL     1     -10.084  11.743  64.930  1.00  0.00    -0.298 A  
HETATM   18  C   UNL     1     -11.019  11.544  63.918  1.00  0.00    -0.474 A  
HETATM   19  C   UNL     1     -11.901  12.562  63.599  1.00  0.00    -0.610 A  
HETATM   20  C   UNL     1     -11.847  13.767  64.302  1.00  0.00    -0.451 A  
HETATM   21  C   UNL     1     -10.916  13.996  65.342  1.00  0.00    -0.321 A  
ENDBRANCH   6   7
ENDBRANCH   5   6
ENDBRANCH   4   5
ENDBRANCH   2   4
TORSDOF 4
ENDMDL
MODEL       51
REMARK 921   NORMALIZED FREE ENERGY PREDICTED BY IDOCK:   -5.21 KCAL/MOL
REMARK 922        TOTAL FREE ENERGY PREDICTED BY IDOCK:   -6.72 KCAL/MOL
REMARK 923 INTER-LIGAND FREE ENERGY PREDICTED BY IDOCK:   -6.14 KCAL/MOL
REMARK 924 INTRA-LIGAND FREE ENERGY PREDICTED BY IDOCK:   -0.58 KCAL/MOL
REMARK 927      BINDING AFFINITY PREDICTED BY RF-SCORE:    0.00 PKD
ROOT
HETATM    1  C   UNL     1     -11.036   9.363  70.779  1.00  0.00    -0.304 C  
HETATM    2  N   UNL     1     -12.313  10.064  70.614  1.00  0.00    -0.275 NA 
HETATM    3  C   UNL     1     -13.075   9.989  71.865  1.00  0.00    -0.460 C  
ENDROOT
BRANCH   2   4
HETATM    4  C   UNL     1     -12.133  11.472  70.222  1.00  0.00    -0.359 C  
BRANCH   4   5
HETATM    5  C   UNL     1     -11.834  11.689  68.736  1.00  0.00    -0.387 C  
BRANCH   5   6
HETATM    6  C   UNL     1     -11.467  13.137  68.383  1.00  0.00    -0.315 C  
BRANCH   6   7
HETATM    7  N   UNL     1     -10.474  13.185  67.278  1.00  0.00    -0.242 NA 
HETATM    8  C   UNL     1     -11.027  13.019  65.992  1.00  0.00    -0.275 A  
HETATM    9  C   UNL     1     -11.729  14.082  65.402  1.00  0.00    -0.344 A  
HETATM   10  C   UNL     1     -12.238  13.982  64.105  1.00  0.00    -0.433 A  
HETATM   11  C   UNL     1     -12.074  12.803  63.387  1.00  0.00    -0.619 A  
HETATM   12  C   UNL     1     -11.384  11.736  63.959  1.00  0.00    -0.461 A  
HETATM   13  C   UNL     1     -10.851  11.841  65.256  1.00  0.00    -0.343 A  
HETATM   14  C   UNL     1     -10.035  10.717  65.825  1.00  0.00    -0.315 C  
HETATM   15  C   UNL     1      -8.573  11.122  65.963  1.00  0.00    -0.154 C  
HETATM   16  C   UNL     1      -8.208  12.178  66.988  1.00  0.00    -0.164 A  
HETATM   17  C   UNL     1      -6.834  12.246  67.308  1.00  0.00    -0.140 A  
HETATM   18  C   UNL     1      -6.340  13.162  68.233  1.00  0.00    -0.096 A  
HETATM   19  C   UNL     1      -7.216  14.030  68.862  1.00  0.00    -0.108 A  
HETATM   20  C   UNL     1      -8.576  13.983  68.553  1.00  0.00    -0.147 A  
HETATM   21  C   UNL     1      -9.107  13.072  67.611  1.00  0.00    -0.198 A  
ENDBRANCH   6   7
ENDBRANCH   5   6
ENDBRANCH   4   5
ENDBRANCH   2   4
TORSDOF 4
ENDMDL
MODEL       52
REMARK 921   NORMALIZED FREE ENERGY PREDICTED BY IDOCK:   -5.20 KCAL/MOL
REMARK 922        TOTAL FREE ENERGY PREDICTED BY IDOCK:   -6.71 KCAL/MOL
REMARK 923 INTER-LIGAND FREE ENERGY PREDICTED BY IDOCK:   -6.44 KCAL/MOL
REMARK 924 INTRA-LIGAND FREE ENERGY PREDICTED BY IDOCK:   -0.27 KCAL/MOL
REMARK 927      BINDING AFFINITY PREDICTED BY RF-SCORE:    0.00 PKD
ROOT
HETATM    1  C   UNL     1     -11.391   8.078  71.460  1.00  0.00    -0.259 C  
HETATM    2  N   UNL     1     -11.978   9.263  70.828  1.00  0.00    -0.251 NA 
HETATM    3  C   UNL     1     -12.946   9.875  71.744  1.00  0.00    -0.449 C  
ENDROOT
BRANCH   2   4
HETATM    4  C   UNL     1     -10.961  10.255  70.441  1.00  0.00    -0.296 C  
BRANCH   4   5
HETATM    5  C   UNL     1     -10.298   9.995  69.085  1.00  0.00    -0.233 C  
BRANCH   5   6
HETATM    6  C   UNL     1     -11.230  10.219  67.887  1.00  0.00    -0.220 C  
BRANCH   6   7
HETATM    7  N   UNL     1     -10.625  11.156  66.904  1.00  0.00    -0.246 NA 
HETATM    8  C   UNL     1     -10.896  12.516  67.155  1.00  0.00    -0.250 A  
HETATM    9  C   UNL     1     -10.217  13.172  68.194  1.00  0.00    -0.239 A  
HETATM   10  C   UNL     1     -10.407  14.535  68.437  1.00  0.00    -0.241 A  
HETATM   11  C   UNL     1     -11.304  15.256  67.658  1.00  0.00    -0.315 A  
HETATM   12  C   UNL     1     -11.991  14.620  66.626  1.00  0.00    -0.293 A  
HETATM   13  C   UNL     1     -11.785  13.254  66.364  1.00  0.00    -0.418 A  
HETATM   14  C   UNL     1     -12.464  12.603  65.195  1.00  0.00    -0.531 C  
HETATM   15  C   UNL     1     -11.454  12.229  64.118  1.00  0.00    -0.453 C  
HETATM   16  C   UNL     1     -10.456  11.127  64.413  1.00  0.00    -0.418 A  
HETATM   17  C   UNL     1      -9.801  10.597  63.278  1.00  0.00    -0.364 A  
HETATM   18  C   UNL     1      -8.858   9.579  63.384  1.00  0.00    -0.236 A  
HETATM   19  C   UNL     1      -8.552   9.064  64.631  1.00  0.00    -0.190 A  
HETATM   20  C   UNL     1      -9.183   9.579  65.765  1.00  0.00    -0.267 A  
HETATM   21  C   UNL     1     -10.136  10.621  65.693  1.00  0.00    -0.272 A  
ENDBRANCH   6   7
ENDBRANCH   5   6
ENDBRANCH   4   5
ENDBRANCH   2   4
TORSDOF 4
ENDMDL
MODEL       53
REMARK 921   NORMALIZED FREE ENERGY PREDICTED BY IDOCK:   -5.20 KCAL/MOL
REMARK 922        TOTAL FREE ENERGY PREDICTED BY IDOCK:   -6.71 KCAL/MOL
REMARK 923 INTER-LIGAND FREE ENERGY PREDICTED BY IDOCK:   -6.76 KCAL/MOL
REMARK 924 INTRA-LIGAND FREE ENERGY PREDICTED BY IDOCK:    0.05 KCAL/MOL
REMARK 927      BINDING AFFINITY PREDICTED BY RF-SCORE:    0.00 PKD
ROOT
HETATM    1  C   UNL     1      -9.030   6.004  68.229  1.00  0.00    -0.113 C  
HETATM    2  N   UNL     1     -10.431   6.290  67.906  1.00  0.00    -0.200 NA 
HETATM    3  C   UNL     1     -11.247   6.163  69.118  1.00  0.00    -0.339 C  
ENDROOT
BRANCH   2   4
HETATM    4  C   UNL     1     -10.609   7.630  67.321  1.00  0.00    -0.318 C  
BRANCH   4   5
HETATM    5  C   UNL     1     -10.116   8.783  68.200  1.00  0.00    -0.228 C  
BRANCH   5   6
HETATM    6  C   UNL     1     -11.152   9.898  68.397  1.00  0.00    -0.139 C  
BRANCH   6   7
HETATM    7  N   UNL     1     -11.060  10.481  69.762  1.00  0.00    -0.275 NA 
HETATM    8  C   UNL     1     -10.639   9.572  70.754  1.00  0.00    -0.317 A  
HETATM    9  C   UNL     1      -9.285   9.208  70.822  1.00  0.00    -0.321 A  
HETATM   10  C   UNL     1      -8.812   8.362  71.828  1.00  0.00    -0.257 A  
HETATM   11  C   UNL     1      -9.697   7.844  72.767  1.00  0.00    -0.322 A  
HETATM   12  C   UNL     1     -11.045   8.191  72.711  1.00  0.00    -0.407 A  
HETATM   13  C   UNL     1     -11.520   9.061  71.714  1.00  0.00    -0.442 A  
HETATM   14  C   UNL     1     -12.957   9.494  71.718  1.00  0.00    -0.502 C  
HETATM   15  C   UNL     1     -13.077  10.974  72.062  1.00  0.00    -0.449 C  
HETATM   16  C   UNL     1     -12.559  11.992  71.066  1.00  0.00    -0.370 A  
HETATM   17  C   UNL     1     -13.013  13.314  71.276  1.00  0.00    -0.353 A  
HETATM   18  C   UNL     1     -12.630  14.363  70.445  1.00  0.00    -0.405 A  
HETATM   19  C   UNL     1     -11.782  14.110  69.380  1.00  0.00    -0.361 A  
HETATM   20  C   UNL     1     -11.317  12.812  69.161  1.00  0.00    -0.337 A  
HETATM   21  C   UNL     1     -11.680  11.728  69.993  1.00  0.00    -0.305 A  
ENDBRANCH   6   7
ENDBRANCH   5   6
ENDBRANCH   4   5
ENDBRANCH   2   4
TORSDOF 4
ENDMDL
MODEL       54
REMARK 921   NORMALIZED FREE ENERGY PREDICTED BY IDOCK:   -5.17 KCAL/MOL
REMARK 922        TOTAL FREE ENERGY PREDICTED BY IDOCK:   -6.68 KCAL/MOL
REMARK 923 INTER-LIGAND FREE ENERGY PREDICTED BY IDOCK:   -5.84 KCAL/MOL
REMARK 924 INTRA-LIGAND FREE ENERGY PREDICTED BY IDOCK:   -0.84 KCAL/MOL
REMARK 927      BINDING AFFINITY PREDICTED BY RF-SCORE:    0.00 PKD
ROOT
HETATM    1  C   UNL     1     -10.498  13.367  64.321  1.00  0.00    -0.305 C  
HETATM    2  N   UNL     1     -11.138  14.430  65.103  1.00  0.00    -0.342 NA 
HETATM    3  C   UNL     1     -11.211  15.652  64.296  1.00  0.00    -0.104 C  
ENDROOT
BRANCH   2   4
HETATM    4  C   UNL     1     -12.485  14.053  65.564  1.00  0.00    -0.509 C  
BRANCH   4   5
HETATM    5  C   UNL     1     -12.533  13.431  66.962  1.00  0.00    -0.071 C  
BRANCH   5   6
HETATM    6  C   UNL     1     -11.589  14.101  67.971  1.00  0.00    -0.334 C  
BRANCH   6   7
HETATM    7  N   UNL     1     -10.842  13.088  68.761  1.00  0.00    -0.254 NA 
HETATM    8  C   UNL     1      -9.536  12.835  68.295  1.00  0.00    -0.211 A  
HETATM    9  C   UNL     1      -8.522  13.774  68.546  1.00  0.00    -0.117 A  
HETATM   10  C   UNL     1      -7.202  13.534  68.158  1.00  0.00    -0.117 A  
HETATM   11  C   UNL     1      -6.881  12.359  67.488  1.00  0.00    -0.143 A  
HETATM   12  C   UNL     1      -7.876  11.420  67.226  1.00  0.00    -0.149 A  
HETATM   13  C   UNL     1      -9.202  11.647  67.635  1.00  0.00    -0.178 A  
HETATM   14  C   UNL     1     -10.244  10.588  67.425  1.00  0.00    -0.253 C  
HETATM   15  C   UNL     1     -10.691   9.993  68.755  1.00  0.00    -0.250 C  
HETATM   16  C   UNL     1     -11.478  10.868  69.709  1.00  0.00    -0.390 A  
HETATM   17  C   UNL     1     -12.153  10.170  70.737  1.00  0.00    -0.438 A  
HETATM   18  C   UNL     1     -12.921  10.831  71.692  1.00  0.00    -0.581 A  
HETATM   19  C   UNL     1     -13.033  12.210  71.637  1.00  0.00    -0.427 A  
HETATM   20  C   UNL     1     -12.367  12.917  70.634  1.00  0.00    -0.385 A  
HETATM   21  C   UNL     1     -11.571  12.276  69.656  1.00  0.00    -0.278 A  
ENDBRANCH   6   7
ENDBRANCH   5   6
ENDBRANCH   4   5
ENDBRANCH   2   4
TORSDOF 4
ENDMDL
MODEL       55
REMARK 921   NORMALIZED FREE ENERGY PREDICTED BY IDOCK:   -5.17 KCAL/MOL
REMARK 922        TOTAL FREE ENERGY PREDICTED BY IDOCK:   -6.67 KCAL/MOL
REMARK 923 INTER-LIGAND FREE ENERGY PREDICTED BY IDOCK:   -5.81 KCAL/MOL
REMARK 924 INTRA-LIGAND FREE ENERGY PREDICTED BY IDOCK:   -0.86 KCAL/MOL
REMARK 927      BINDING AFFINITY PREDICTED BY RF-SCORE:    0.00 PKD
ROOT
HETATM    1  C   UNL     1     -11.109  12.636  64.241  1.00  0.00    -0.362 C  
HETATM    2  N   UNL     1     -11.639  13.963  64.567  1.00  0.00    -0.382 NA 
HETATM    3  C   UNL     1     -12.757  13.824  65.507  1.00  0.00    -0.488 C  
ENDROOT
BRANCH   2   4
HETATM    4  C   UNL     1     -10.614  14.852  65.138  1.00  0.00    -0.428 C  
BRANCH   4   5
HETATM    5  C   UNL     1     -11.024  15.552  66.437  1.00  0.00    -0.238 C  
BRANCH   5   6
HETATM    6  C   UNL     1      -9.844  15.894  67.356  1.00  0.00    -0.234 C  
BRANCH   6   7
HETATM    7  N   UNL     1      -9.727  14.913  68.467  1.00  0.00    -0.208 NA 
HETATM    8  C   UNL     1      -8.740  13.926  68.269  1.00  0.00    -0.183 A  
HETATM    9  C   UNL     1      -7.387  14.264  68.429  1.00  0.00    -0.119 A  
HETATM   10  C   UNL     1      -6.381  13.302  68.306  1.00  0.00    -0.099 A  
HETATM   11  C   UNL     1      -6.715  11.990  67.992  1.00  0.00    -0.070 A  
HETATM   12  C   UNL     1      -8.053  11.639  67.825  1.00  0.00    -0.139 A  
HETATM   13  C   UNL     1      -9.070  12.598  67.971  1.00  0.00    -0.207 A  
HETATM   14  C   UNL     1     -10.510  12.187  67.875  1.00  0.00    -0.224 C  
HETATM   15  C   UNL     1     -11.197  12.295  69.230  1.00  0.00    -0.275 C  
HETATM   16  C   UNL     1     -11.418  13.673  69.821  1.00  0.00    -0.256 A  
HETATM   17  C   UNL     1     -12.355  13.724  70.878  1.00  0.00    -0.456 A  
HETATM   18  C   UNL     1     -12.669  14.916  71.525  1.00  0.00    -0.404 A  
HETATM   19  C   UNL     1     -12.052  16.088  71.123  1.00  0.00    -0.406 A  
HETATM   20  C   UNL     1     -11.118  16.057  70.086  1.00  0.00    -0.372 A  
HETATM   21  C   UNL     1     -10.769  14.861  69.417  1.00  0.00    -0.256 A  
ENDBRANCH   6   7
ENDBRANCH   5   6
ENDBRANCH   4   5
ENDBRANCH   2   4
TORSDOF 4
ENDMDL
MODEL       56
REMARK 921   NORMALIZED FREE ENERGY PREDICTED BY IDOCK:   -5.11 KCAL/MOL
REMARK 922        TOTAL FREE ENERGY PREDICTED BY IDOCK:   -6.61 KCAL/MOL
REMARK 923 INTER-LIGAND FREE ENERGY PREDICTED BY IDOCK:   -6.35 KCAL/MOL
REMARK 924 INTRA-LIGAND FREE ENERGY PREDICTED BY IDOCK:   -0.26 KCAL/MOL
REMARK 927      BINDING AFFINITY PREDICTED BY RF-SCORE:    0.00 PKD
ROOT
HETATM    1  C   UNL     1     -10.152  11.900  63.685  1.00  0.00    -0.426 C  
HETATM    2  N   UNL     1     -10.948  13.077  64.046  1.00  0.00    -0.402 NA 
HETATM    3  C   UNL     1     -12.258  12.999  63.393  1.00  0.00    -0.472 C  
ENDROOT
BRANCH   2   4
HETATM    4  C   UNL     1     -11.122  13.211  65.502  1.00  0.00    -0.278 C  
BRANCH   4   5
HETATM    5  C   UNL     1     -11.062  14.649  66.025  1.00  0.00    -0.332 C  
BRANCH   5   6
HETATM    6  C   UNL     1      -9.892  15.465  65.459  1.00  0.00    -0.324 C  
BRANCH   6   7
HETATM    7  N   UNL     1      -9.134  16.140  66.546  1.00  0.00    -0.250 NA 
HETATM    8  C   UNL     1      -9.399  17.519  66.669  1.00  0.00    -0.262 A  
HETATM    9  C   UNL     1     -10.604  17.938  67.254  1.00  0.00    -0.341 A  
HETATM   10  C   UNL     1     -10.879  19.293  67.454  1.00  0.00    -0.554 A  
HETATM   11  C   UNL     1      -9.960  20.252  67.044  1.00  0.00    -0.601 A  
HETATM   12  C   UNL     1      -8.761  19.854  66.457  1.00  0.00    -0.406 A  
HETATM   13  C   UNL     1      -8.470  18.490  66.275  1.00  0.00    -0.227 A  
HETATM   14  C   UNL     1      -7.139  18.074  65.723  1.00  0.00    -0.242 C  
HETATM   15  C   UNL     1      -6.303  17.376  66.788  1.00  0.00    -0.237 C  
HETATM   16  C   UNL     1      -6.752  16.016  67.284  1.00  0.00    -0.232 A  
HETATM   17  C   UNL     1      -5.769  15.283  67.987  1.00  0.00    -0.148 A  
HETATM   18  C   UNL     1      -6.026  14.017  68.504  1.00  0.00    -0.092 A  
HETATM   19  C   UNL     1      -7.277  13.452  68.325  1.00  0.00    -0.111 A  
HETATM   20  C   UNL     1      -8.264  14.163  67.640  1.00  0.00    -0.193 A  
HETATM   21  C   UNL     1      -8.037  15.456  67.113  1.00  0.00    -0.217 A  
ENDBRANCH   6   7
ENDBRANCH   5   6
ENDBRANCH   4   5
ENDBRANCH   2   4
TORSDOF 4
ENDMDL
MODEL       57
REMARK 921   NORMALIZED FREE ENERGY PREDICTED BY IDOCK:   -5.10 KCAL/MOL
REMARK 922        TOTAL FREE ENERGY PREDICTED BY IDOCK:   -6.58 KCAL/MOL
REMARK 923 INTER-LIGAND FREE ENERGY PREDICTED BY IDOCK:   -5.87 KCAL/MOL
REMARK 924 INTRA-LIGAND FREE ENERGY PREDICTED BY IDOCK:   -0.71 KCAL/MOL
REMARK 927      BINDING AFFINITY PREDICTED BY RF-SCORE:    0.00 PKD
ROOT
HETATM    1  C   UNL     1     -10.366   6.025  73.971  1.00  0.00    -0.291 C  
HETATM    2  N   UNL     1      -9.007   6.560  74.095  1.00  0.00    -0.150 NA 
HETATM    3  C   UNL     1      -8.057   5.622  73.488  1.00  0.00    -0.113 C  
ENDROOT
BRANCH   2   4
HETATM    4  C   UNL     1      -8.867   7.887  73.471  1.00  0.00    -0.272 C  
BRANCH   4   5
HETATM    5  C   UNL     1      -8.598   7.860  71.964  1.00  0.00    -0.173 C  
BRANCH   5   6
HETATM    6  C   UNL     1      -9.034   9.139  71.234  1.00  0.00    -0.136 C  
BRANCH   6   7
HETATM    7  N   UNL     1     -10.146   8.864  70.287  1.00  0.00    -0.181 NA 
HETATM    8  C   UNL     1     -11.403   8.689  70.902  1.00  0.00    -0.272 A  
HETATM    9  C   UNL     1     -12.095   9.812  71.384  1.00  0.00    -0.486 A  
HETATM   10  C   UNL     1     -13.370   9.692  71.942  1.00  0.00    -0.526 A  
HETATM   11  C   UNL     1     -13.961   8.439  72.050  1.00  0.00    -0.468 A  
HETATM   12  C   UNL     1     -13.286   7.313  71.582  1.00  0.00    -0.421 A  
HETATM   13  C   UNL     1     -12.012   7.433  70.999  1.00  0.00    -0.337 A  
HETATM   14  C   UNL     1     -11.336   6.225  70.420  1.00  0.00    -0.440 C  
HETATM   15  C   UNL     1     -11.254   6.323  68.902  1.00  0.00    -0.387 C  
HETATM   16  C   UNL     1     -10.349   7.376  68.293  1.00  0.00    -0.231 A  
HETATM   17  C   UNL     1     -10.049   7.185  66.925  1.00  0.00    -0.308 A  
HETATM   18  C   UNL     1      -9.230   8.063  66.223  1.00  0.00    -0.237 A  
HETATM   19  C   UNL     1      -8.688   9.156  66.877  1.00  0.00    -0.133 A  
HETATM   20  C   UNL     1      -8.978   9.366  68.227  1.00  0.00    -0.128 A  
HETATM   21  C   UNL     1      -9.815   8.498  68.965  1.00  0.00    -0.183 A  
ENDBRANCH   6   7
ENDBRANCH   5   6
ENDBRANCH   4   5
ENDBRANCH   2   4
TORSDOF 4
ENDMDL
MODEL       58
REMARK 921   NORMALIZED FREE ENERGY PREDICTED BY IDOCK:   -5.05 KCAL/MOL
REMARK 922        TOTAL FREE ENERGY PREDICTED BY IDOCK:   -6.53 KCAL/MOL
REMARK 923 INTER-LIGAND FREE ENERGY PREDICTED BY IDOCK:   -5.86 KCAL/MOL
REMARK 924 INTRA-LIGAND FREE ENERGY PREDICTED BY IDOCK:   -0.67 KCAL/MOL
REMARK 927      BINDING AFFINITY PREDICTED BY RF-SCORE:    0.00 PKD
ROOT
HETATM    1  C   UNL     1      -7.666  16.188  66.690  1.00  0.00    -0.230 C  
HETATM    2  N   UNL     1      -7.161  14.886  67.134  1.00  0.00    -0.188 NA 
HETATM    3  C   UNL     1      -6.040  15.086  68.059  1.00  0.00    -0.150 C  
ENDROOT
BRANCH   2   4
HETATM    4  C   UNL     1      -8.203  14.071  67.781  1.00  0.00    -0.168 C  
BRANCH   4   5
HETATM    5  C   UNL     1      -8.281  12.623  67.289  1.00  0.00    -0.184 C  
BRANCH   5   6
HETATM    6  C   UNL     1      -9.488  11.848  67.834  1.00  0.00    -0.194 C  
BRANCH   6   7
HETATM    7  N   UNL     1     -10.197  11.124  66.746  1.00  0.00    -0.224 NA 
HETATM    8  C   UNL     1      -9.932   9.740  66.700  1.00  0.00    -0.229 A  
HETATM    9  C   UNL     1     -10.530   8.894  67.648  1.00  0.00    -0.320 A  
HETATM   10  C   UNL     1     -10.346   7.510  67.600  1.00  0.00    -0.295 A  
HETATM   11  C   UNL     1      -9.537   6.953  66.617  1.00  0.00    -0.218 A  
HETATM   12  C   UNL     1      -8.931   7.779  65.672  1.00  0.00    -0.050 A  
HETATM   13  C   UNL     1      -9.132   9.170  65.702  1.00  0.00    -0.273 A  
HETATM   14  C   UNL     1      -8.545  10.037  64.627  1.00  0.00    -0.191 C  
HETATM   15  C   UNL     1      -9.639  10.617  63.740  1.00  0.00    -0.354 C  
HETATM   16  C   UNL     1     -10.584  11.642  64.335  1.00  0.00    -0.377 A  
HETATM   17  C   UNL     1     -11.326  12.387  63.390  1.00  0.00    -0.507 A  
HETATM   18  C   UNL     1     -12.235  13.367  63.777  1.00  0.00    -0.482 A  
HETATM   19  C   UNL     1     -12.420  13.627  65.124  1.00  0.00    -0.488 A  
HETATM   20  C   UNL     1     -11.702  12.897  66.073  1.00  0.00    -0.456 A  
HETATM   21  C   UNL     1     -10.780  11.887  65.712  1.00  0.00    -0.284 A  
ENDBRANCH   6   7
ENDBRANCH   5   6
ENDBRANCH   4   5
ENDBRANCH   2   4
TORSDOF 4
ENDMDL
MODEL       59
REMARK 921   NORMALIZED FREE ENERGY PREDICTED BY IDOCK:   -5.05 KCAL/MOL
REMARK 922        TOTAL FREE ENERGY PREDICTED BY IDOCK:   -6.52 KCAL/MOL
REMARK 923 INTER-LIGAND FREE ENERGY PREDICTED BY IDOCK:   -6.10 KCAL/MOL
REMARK 924 INTRA-LIGAND FREE ENERGY PREDICTED BY IDOCK:   -0.42 KCAL/MOL
REMARK 927      BINDING AFFINITY PREDICTED BY RF-SCORE:    0.00 PKD
ROOT
HETATM    1  C   UNL     1     -12.730  11.958  63.425  1.00  0.00    -0.366 C  
HETATM    2  N   UNL     1     -12.448  12.953  64.464  1.00  0.00    -0.594 NA 
HETATM    3  C   UNL     1     -11.302  12.511  65.265  1.00  0.00    -0.324 C  
ENDROOT
BRANCH   2   4
HETATM    4  C   UNL     1     -12.180  14.288  63.903  1.00  0.00    -0.193 C  
BRANCH   4   5
HETATM    5  C   UNL     1     -10.948  14.991  64.483  1.00  0.00    -0.209 C  
BRANCH   5   6
HETATM    6  C   UNL     1     -11.231  16.406  65.005  1.00  0.00    -0.134 C  
BRANCH   6   7
HETATM    7  N   UNL     1     -10.613  16.618  66.341  1.00  0.00    -0.250 NA 
HETATM    8  C   UNL     1      -9.812  17.775  66.433  1.00  0.00    -0.324 A  
HETATM    9  C   UNL     1     -10.429  19.033  66.522  1.00  0.00    -0.522 A  
HETATM   10  C   UNL     1      -9.676  20.199  66.680  1.00  0.00    -0.568 A  
HETATM   11  C   UNL     1      -8.289  20.125  66.723  1.00  0.00    -0.356 A  
HETATM   12  C   UNL     1      -7.660  18.885  66.631  1.00  0.00    -0.252 A  
HETATM   13  C   UNL     1      -8.415  17.707  66.495  1.00  0.00    -0.294 A  
HETATM   14  C   UNL     1      -7.729  16.372  66.486  1.00  0.00    -0.295 C  
HETATM   15  C   UNL     1      -8.054  15.585  67.749  1.00  0.00    -0.153 C  
HETATM   16  C   UNL     1      -9.471  15.085  67.946  1.00  0.00    -0.195 A  
HETATM   17  C   UNL     1      -9.618  14.083  68.933  1.00  0.00    -0.016 A  
HETATM   18  C   UNL     1     -10.855  13.520  69.229  1.00  0.00    -0.107 A  
HETATM   19  C   UNL     1     -11.977  13.946  68.540  1.00  0.00    -0.394 A  
HETATM   20  C   UNL     1     -11.854  14.940  67.567  1.00  0.00    -0.256 A  
HETATM   21  C   UNL     1     -10.613  15.539  67.250  1.00  0.00    -0.299 A  
ENDBRANCH   6   7
ENDBRANCH   5   6
ENDBRANCH   4   5
ENDBRANCH   2   4
TORSDOF 4
ENDMDL
MODEL       60
REMARK 921   NORMALIZED FREE ENERGY PREDICTED BY IDOCK:   -5.03 KCAL/MOL
REMARK 922        TOTAL FREE ENERGY PREDICTED BY IDOCK:   -6.50 KCAL/MOL
REMARK 923 INTER-LIGAND FREE ENERGY PREDICTED BY IDOCK:   -6.22 KCAL/MOL
REMARK 924 INTRA-LIGAND FREE ENERGY PREDICTED BY IDOCK:   -0.28 KCAL/MOL
REMARK 927      BINDING AFFINITY PREDICTED BY RF-SCORE:    0.00 PKD
ROOT
HETATM    1  C   UNL     1     -12.594  11.970  63.537  1.00  0.00    -0.507 C  
HETATM    2  N   UNL     1     -11.650  12.447  64.552  1.00  0.00    -0.333 NA 
HETATM    3  C   UNL     1     -10.309  12.535  63.967  1.00  0.00    -0.404 C  
ENDROOT
BRANCH   2   4
HETATM    4  C   UNL     1     -12.039  13.753  65.110  1.00  0.00    -0.399 C  
BRANCH   4   5
HETATM    5  C   UNL     1     -12.237  13.767  66.628  1.00  0.00    -0.454 C  
BRANCH   5   6
HETATM    6  C   UNL     1     -11.696  12.517  67.335  1.00  0.00    -0.366 C  
BRANCH   6   7
HETATM    7  N   UNL     1     -11.249  12.833  68.717  1.00  0.00    -0.267 NA 
HETATM    8  C   UNL     1     -11.645  11.888  69.686  1.00  0.00    -0.317 A  
HETATM    9  C   UNL     1     -10.979  10.655  69.756  1.00  0.00    -0.340 A  
HETATM   10  C   UNL     1     -11.295   9.716  70.741  1.00  0.00    -0.409 A  
HETATM   11  C   UNL     1     -12.305   9.988  71.656  1.00  0.00    -0.486 A  
HETATM   12  C   UNL     1     -12.980  11.206  71.598  1.00  0.00    -0.548 A  
HETATM   13  C   UNL     1     -12.649  12.163  70.622  1.00  0.00    -0.255 A  
HETATM   14  C   UNL     1     -13.324  13.503  70.626  1.00  0.00     0.250 C  
HETATM   15  C   UNL     1     -12.343  14.604  71.013  1.00  0.00    -0.403 C  
HETATM   16  C   UNL     1     -11.222  14.943  70.051  1.00  0.00    -0.293 A  
HETATM   17  C   UNL     1     -10.581  16.179  70.296  1.00  0.00    -0.151 A  
HETATM   18  C   UNL     1      -9.534  16.634  69.500  1.00  0.00     0.102 A  
HETATM   19  C   UNL     1      -9.104  15.859  68.436  1.00  0.00    -0.189 A  
HETATM   20  C   UNL     1      -9.719  14.632  68.183  1.00  0.00    -0.220 A  
HETATM   21  C   UNL     1     -10.778  14.137  68.979  1.00  0.00    -0.231 A  
ENDBRANCH   6   7
ENDBRANCH   5   6
ENDBRANCH   4   5
ENDBRANCH   2   4
TORSDOF 4
ENDMDL
MODEL       61
REMARK 921   NORMALIZED FREE ENERGY PREDICTED BY IDOCK:   -5.01 KCAL/MOL
REMARK 922        TOTAL FREE ENERGY PREDICTED BY IDOCK:   -6.47 KCAL/MOL
REMARK 923 INTER-LIGAND FREE ENERGY PREDICTED BY IDOCK:   -6.20 KCAL/MOL
REMARK 924 INTRA-LIGAND FREE ENERGY PREDICTED BY IDOCK:   -0.27 KCAL/MOL
REMARK 927      BINDING AFFINITY PREDICTED BY RF-SCORE:    0.00 PKD
ROOT
HETATM    1  C   UNL     1     -11.053  16.269  69.845  1.00  0.00    -0.347 C  
HETATM    2  N   UNL     1     -11.275  14.929  70.396  1.00  0.00    -0.237 NA 
HETATM    3  C   UNL     1     -11.872  15.043  71.730  1.00  0.00    -0.388 C  
ENDROOT
BRANCH   2   4
HETATM    4  C   UNL     1     -12.136  14.103  69.532  1.00  0.00    -0.340 C  
BRANCH   4   5
HETATM    5  C   UNL     1     -11.634  12.674  69.307  1.00  0.00    -0.376 C  
BRANCH   5   6
HETATM    6  C   UNL     1     -10.431  12.582  68.358  1.00  0.00    -0.240 C  
BRANCH   6   7
HETATM    7  N   UNL     1     -10.635  11.522  67.336  1.00  0.00    -0.205 NA 
HETATM    8  C   UNL     1     -10.140  10.255  67.707  1.00  0.00    -0.180 A  
HETATM    9  C   UNL     1     -10.850   9.486  68.642  1.00  0.00    -0.177 A  
HETATM   10  C   UNL     1     -10.430   8.199  68.989  1.00  0.00    -0.211 A  
HETATM   11  C   UNL     1      -9.274   7.674  68.425  1.00  0.00    -0.140 A  
HETATM   12  C   UNL     1      -8.554   8.426  67.499  1.00  0.00    -0.129 A  
HETATM   13  C   UNL     1      -8.986   9.712  67.129  1.00  0.00    -0.148 A  
HETATM   14  C   UNL     1      -8.249  10.474  66.067  1.00  0.00    -0.150 C  
HETATM   15  C   UNL     1      -9.096  10.605  64.807  1.00  0.00    -0.236 C  
HETATM   16  C   UNL     1     -10.338  11.474  64.858  1.00  0.00    -0.340 A  
HETATM   17  C   UNL     1     -10.865  11.833  63.596  1.00  0.00    -0.508 A  
HETATM   18  C   UNL     1     -12.000  12.628  63.474  1.00  0.00    -0.630 A  
HETATM   19  C   UNL     1     -12.635  13.085  64.617  1.00  0.00    -0.425 A  
HETATM   20  C   UNL     1     -12.134  12.735  65.872  1.00  0.00    -0.485 A  
HETATM   21  C   UNL     1     -10.988  11.920  66.029  1.00  0.00    -0.309 A  
ENDBRANCH   6   7
ENDBRANCH   5   6
ENDBRANCH   4   5
ENDBRANCH   2   4
TORSDOF 4
ENDMDL
MODEL       62
REMARK 921   NORMALIZED FREE ENERGY PREDICTED BY IDOCK:   -4.99 KCAL/MOL
REMARK 922        TOTAL FREE ENERGY PREDICTED BY IDOCK:   -6.46 KCAL/MOL
REMARK 923 INTER-LIGAND FREE ENERGY PREDICTED BY IDOCK:   -6.19 KCAL/MOL
REMARK 924 INTRA-LIGAND FREE ENERGY PREDICTED BY IDOCK:   -0.27 KCAL/MOL
REMARK 927      BINDING AFFINITY PREDICTED BY RF-SCORE:    0.00 PKD
ROOT
HETATM    1  C   UNL     1     -13.210  13.532  71.913  1.00  0.00    -0.422 C  
HETATM    2  N   UNL     1     -13.014  14.981  71.810  1.00  0.00    -0.323 NA 
HETATM    3  C   UNL     1     -11.885  15.381  72.656  1.00  0.00    -0.463 C  
ENDROOT
BRANCH   2   4
HETATM    4  C   UNL     1     -12.779  15.418  70.424  1.00  0.00    -0.362 C  
BRANCH   4   5
HETATM    5  C   UNL     1     -11.321  15.331  69.963  1.00  0.00    -0.311 C  
BRANCH   5   6
HETATM    6  C   UNL     1     -10.561  16.661  70.060  1.00  0.00    -0.103 C  
BRANCH   6   7
HETATM    7  N   UNL     1      -9.598  16.811  68.937  1.00  0.00    -0.254 NA 
HETATM    8  C   UNL     1      -9.927  17.832  68.023  1.00  0.00    -0.333 A  
HETATM    9  C   UNL     1      -9.713  19.172  68.381  1.00  0.00    -0.451 A  
HETATM   10  C   UNL     1      -9.965  20.211  67.482  1.00  0.00    -0.571 A  
HETATM   11  C   UNL     1     -10.462  19.924  66.216  1.00  0.00    -0.590 A  
HETATM   12  C   UNL     1     -10.685  18.600  65.846  1.00  0.00    -0.274 A  
HETATM   13  C   UNL     1     -10.411  17.549  66.739  1.00  0.00    -0.270 A  
HETATM   14  C   UNL     1     -10.573  16.125  66.296  1.00  0.00    -0.276 C  
HETATM   15  C   UNL     1      -9.220  15.433  66.188  1.00  0.00    -0.362 C  
HETATM   16  C   UNL     1      -8.442  15.163  67.461  1.00  0.00    -0.185 A  
HETATM   17  C   UNL     1      -7.394  14.224  67.330  1.00  0.00    -0.152 A  
HETATM   18  C   UNL     1      -6.588  13.868  68.408  1.00  0.00    -0.103 A  
HETATM   19  C   UNL     1      -6.817  14.443  69.646  1.00  0.00    -0.118 A  
HETATM   20  C   UNL     1      -7.843  15.379  69.793  1.00  0.00    -0.059 A  
HETATM   21  C   UNL     1      -8.671  15.770  68.715  1.00  0.00    -0.203 A  
ENDBRANCH   6   7
ENDBRANCH   5   6
ENDBRANCH   4   5
ENDBRANCH   2   4
TORSDOF 4
ENDMDL
MODEL       63
REMARK 921   NORMALIZED FREE ENERGY PREDICTED BY IDOCK:   -4.96 KCAL/MOL
REMARK 922        TOTAL FREE ENERGY PREDICTED BY IDOCK:   -6.41 KCAL/MOL
REMARK 923 INTER-LIGAND FREE ENERGY PREDICTED BY IDOCK:   -5.85 KCAL/MOL
REMARK 924 INTRA-LIGAND FREE ENERGY PREDICTED BY IDOCK:   -0.56 KCAL/MOL
REMARK 927      BINDING AFFINITY PREDICTED BY RF-SCORE:    0.00 PKD
ROOT
HETATM    1  C   UNL     1     -12.652  12.146  63.474  1.00  0.00    -0.506 C  
HETATM    2  N   UNL     1     -12.182  13.430  64.003  1.00  0.00    -0.597 NA 
HETATM    3  C   UNL     1     -12.925  13.755  65.225  1.00  0.00    -0.278 C  
ENDROOT
BRANCH   2   4
HETATM    4  C   UNL     1     -10.736  13.426  64.282  1.00  0.00    -0.355 C  
BRANCH   4   5
HETATM    5  C   UNL     1     -10.330  14.166  65.561  1.00  0.00    -0.368 C  
BRANCH   5   6
HETATM    6  C   UNL     1      -9.864  13.238  66.691  1.00  0.00    -0.276 C  
BRANCH   6   7
HETATM    7  N   UNL     1      -9.587  14.004  67.935  1.00  0.00    -0.215 NA 
HETATM    8  C   UNL     1     -10.696  14.135  68.795  1.00  0.00    -0.256 A  
HETATM    9  C   UNL     1     -11.102  13.035  69.567  1.00  0.00    -0.052 A  
HETATM   10  C   UNL     1     -12.155  13.140  70.479  1.00  0.00    -0.385 A  
HETATM   11  C   UNL     1     -12.837  14.343  70.612  1.00  0.00    -0.390 A  
HETATM   12  C   UNL     1     -12.451  15.444  69.849  1.00  0.00    -0.274 A  
HETATM   13  C   UNL     1     -11.377  15.349  68.947  1.00  0.00    -0.322 A  
HETATM   14  C   UNL     1     -10.916  16.565  68.198  1.00  0.00    -0.336 C  
HETATM   15  C   UNL     1      -9.541  17.011  68.679  1.00  0.00    -0.275 C  
HETATM   16  C   UNL     1      -8.348  16.125  68.381  1.00  0.00    -0.179 A  
HETATM   17  C   UNL     1      -7.090  16.749  68.533  1.00  0.00    -0.183 A  
HETATM   18  C   UNL     1      -5.899  16.070  68.295  1.00  0.00    -0.113 A  
HETATM   19  C   UNL     1      -5.942  14.745  67.896  1.00  0.00    -0.157 A  
HETATM   20  C   UNL     1      -7.175  14.108  67.748  1.00  0.00    -0.187 A  
HETATM   21  C   UNL     1      -8.402  14.768  67.993  1.00  0.00    -0.143 A  
ENDBRANCH   6   7
ENDBRANCH   5   6
ENDBRANCH   4   5
ENDBRANCH   2   4
TORSDOF 4
ENDMDL
MODEL       64
REMARK 921   NORMALIZED FREE ENERGY PREDICTED BY IDOCK:   -4.96 KCAL/MOL
REMARK 922        TOTAL FREE ENERGY PREDICTED BY IDOCK:   -6.41 KCAL/MOL
REMARK 923 INTER-LIGAND FREE ENERGY PREDICTED BY IDOCK:   -5.52 KCAL/MOL
REMARK 924 INTRA-LIGAND FREE ENERGY PREDICTED BY IDOCK:   -0.89 KCAL/MOL
REMARK 927      BINDING AFFINITY PREDICTED BY RF-SCORE:    0.00 PKD
ROOT
HETATM    1  C   UNL     1      -6.826   6.399  70.149  1.00  0.00    -0.057 C  
HETATM    2  N   UNL     1      -7.882   6.032  71.097  1.00  0.00    -0.109 NA 
HETATM    3  C   UNL     1      -7.540   4.758  71.739  1.00  0.00    -0.095 C  
ENDROOT
BRANCH   2   4
HETATM    4  C   UNL     1      -8.098   7.066  72.123  1.00  0.00    -0.093 C  
BRANCH   4   5
HETATM    5  C   UNL     1      -9.564   7.285  72.512  1.00  0.00    -0.186 C  
BRANCH   5   6
HETATM    6  C   UNL     1     -10.563   6.594  71.574  1.00  0.00    -0.222 C  
BRANCH   6   7
HETATM    7  N   UNL     1     -11.074   7.539  70.546  1.00  0.00    -0.257 NA 
HETATM    8  C   UNL     1     -10.591   7.297  69.244  1.00  0.00    -0.221 A  
HETATM    9  C   UNL     1     -11.108   6.220  68.507  1.00  0.00    -0.397 A  
HETATM   10  C   UNL     1     -10.704   5.984  67.190  1.00  0.00    -0.409 A  
HETATM   11  C   UNL     1      -9.754   6.809  66.600  1.00  0.00    -0.213 A  
HETATM   12  C   UNL     1      -9.226   7.879  67.320  1.00  0.00    -0.167 A  
HETATM   13  C   UNL     1      -9.647   8.134  68.637  1.00  0.00    -0.151 A  
HETATM   14  C   UNL     1      -9.136   9.342  69.367  1.00  0.00    -0.152 C  
HETATM   15  C   UNL     1     -10.248  10.362  69.574  1.00  0.00    -0.258 C  
HETATM   16  C   UNL     1     -11.381  10.016  70.520  1.00  0.00    -0.409 A  
HETATM   17  C   UNL     1     -12.168  11.115  70.933  1.00  0.00    -0.468 A  
HETATM   18  C   UNL     1     -13.245  10.961  71.802  1.00  0.00    -0.513 A  
HETATM   19  C   UNL     1     -13.556   9.700  72.281  1.00  0.00    -0.449 A  
HETATM   20  C   UNL     1     -12.795   8.601  71.877  1.00  0.00    -0.411 A  
HETATM   21  C   UNL     1     -11.702   8.723  70.988  1.00  0.00    -0.282 A  
ENDBRANCH   6   7
ENDBRANCH   5   6
ENDBRANCH   4   5
ENDBRANCH   2   4
TORSDOF 4
ENDMDL
MODEL       65
REMARK 921   NORMALIZED FREE ENERGY PREDICTED BY IDOCK:   -4.94 KCAL/MOL
REMARK 922        TOTAL FREE ENERGY PREDICTED BY IDOCK:   -6.39 KCAL/MOL
REMARK 923 INTER-LIGAND FREE ENERGY PREDICTED BY IDOCK:   -5.83 KCAL/MOL
REMARK 924 INTRA-LIGAND FREE ENERGY PREDICTED BY IDOCK:   -0.56 KCAL/MOL
REMARK 927      BINDING AFFINITY PREDICTED BY RF-SCORE:    0.00 PKD
ROOT
HETATM    1  C   UNL     1     -12.396  13.694  66.253  1.00  0.00    -0.412 C  
HETATM    2  N   UNL     1     -12.081  12.317  65.862  1.00  0.00    -0.620 NA 
HETATM    3  C   UNL     1     -11.863  12.259  64.414  1.00  0.00    -0.388 C  
ENDROOT
BRANCH   2   4
HETATM    4  C   UNL     1     -10.900  11.790  66.567  1.00  0.00    -0.282 C  
BRANCH   4   5
HETATM    5  C   UNL     1     -11.197  10.661  67.559  1.00  0.00    -0.326 C  
BRANCH   5   6
HETATM    6  C   UNL     1     -10.261  10.644  68.776  1.00  0.00    -0.190 C  
BRANCH   6   7
HETATM    7  N   UNL     1      -9.827   9.260  69.099  1.00  0.00    -0.162 NA 
HETATM    8  C   UNL     1      -8.877   8.726  68.206  1.00  0.00    -0.141 A  
HETATM    9  C   UNL     1      -7.543   9.158  68.280  1.00  0.00    -0.083 A  
HETATM   10  C   UNL     1      -6.557   8.609  67.457  1.00  0.00    -0.058 A  
HETATM   11  C   UNL     1      -6.897   7.635  66.527  1.00  0.00    -0.062 A  
HETATM   12  C   UNL     1      -8.217   7.198  66.436  1.00  0.00    -0.120 A  
HETATM   13  C   UNL     1      -9.209   7.732  67.277  1.00  0.00    -0.162 A  
HETATM   14  C   UNL     1     -10.607   7.189  67.229  1.00  0.00    -0.398 C  
HETATM   15  C   UNL     1     -10.940   6.430  68.507  1.00  0.00    -0.396 C  
HETATM   16  C   UNL     1     -11.069   7.211  69.799  1.00  0.00    -0.239 A  
HETATM   17  C   UNL     1     -11.715   6.521  70.850  1.00  0.00    -0.416 A  
HETATM   18  C   UNL     1     -11.913   7.103  72.099  1.00  0.00    -0.304 A  
HETATM   19  C   UNL     1     -11.469   8.395  72.323  1.00  0.00    -0.454 A  
HETATM   20  C   UNL     1     -10.822   9.090  71.300  1.00  0.00    -0.385 A  
HETATM   21  C   UNL     1     -10.597   8.523  70.024  1.00  0.00    -0.227 A  
ENDBRANCH   6   7
ENDBRANCH   5   6
ENDBRANCH   4   5
ENDBRANCH   2   4
TORSDOF 4
ENDMDL
MODEL       66
REMARK 921   NORMALIZED FREE ENERGY PREDICTED BY IDOCK:   -4.89 KCAL/MOL
REMARK 922        TOTAL FREE ENERGY PREDICTED BY IDOCK:   -6.33 KCAL/MOL
REMARK 923 INTER-LIGAND FREE ENERGY PREDICTED BY IDOCK:   -5.67 KCAL/MOL
REMARK 924 INTRA-LIGAND FREE ENERGY PREDICTED BY IDOCK:   -0.66 KCAL/MOL
REMARK 927      BINDING AFFINITY PREDICTED BY RF-SCORE:    0.00 PKD
ROOT
HETATM    1  C   UNL     1      -8.843  19.812  67.643  1.00  0.00    -0.329 C  
HETATM    2  N   UNL     1      -9.467  18.622  67.057  1.00  0.00    -0.291 NA 
HETATM    3  C   UNL     1     -10.524  19.033  66.128  1.00  0.00    -0.467 C  
ENDROOT
BRANCH   2   4
HETATM    4  C   UNL     1      -8.494  17.765  66.358  1.00  0.00    -0.239 C  
BRANCH   4   5
HETATM    5  C   UNL     1      -8.906  16.295  66.237  1.00  0.00    -0.367 C  
BRANCH   5   6
HETATM    6  C   UNL     1      -8.133  15.356  67.173  1.00  0.00    -0.217 C  
BRANCH   6   7
HETATM    7  N   UNL     1      -8.991  14.233  67.634  1.00  0.00    -0.185 NA 
HETATM    8  C   UNL     1      -8.815  13.034  66.914  1.00  0.00    -0.180 A  
HETATM    9  C   UNL     1      -7.673  12.253  67.147  1.00  0.00    -0.134 A  
HETATM   10  C   UNL     1      -7.490  11.026  66.503  1.00  0.00    -0.145 A  
HETATM   11  C   UNL     1      -8.439  10.576  65.593  1.00  0.00    -0.179 A  
HETATM   12  C   UNL     1      -9.577  11.342  65.345  1.00  0.00    -0.255 A  
HETATM   13  C   UNL     1      -9.775  12.566  66.009  1.00  0.00    -0.247 A  
HETATM   14  C   UNL     1     -11.046  13.336  65.798  1.00  0.00    -0.296 C  
HETATM   15  C   UNL     1     -11.899  13.331  67.060  1.00  0.00    -0.442 C  
HETATM   16  C   UNL     1     -11.400  14.089  68.274  1.00  0.00    -0.317 A  
HETATM   17  C   UNL     1     -12.377  14.339  69.264  1.00  0.00    -0.197 A  
HETATM   18  C   UNL     1     -12.077  15.026  70.437  1.00  0.00    -0.384 A  
HETATM   19  C   UNL     1     -10.786  15.481  70.644  1.00  0.00    -0.333 A  
HETATM   20  C   UNL     1      -9.805  15.238  69.682  1.00  0.00    -0.224 A  
HETATM   21  C   UNL     1     -10.076  14.534  68.485  1.00  0.00    -0.242 A  
ENDBRANCH   6   7
ENDBRANCH   5   6
ENDBRANCH   4   5
ENDBRANCH   2   4
TORSDOF 4
ENDMDL
MODEL       67
REMARK 921   NORMALIZED FREE ENERGY PREDICTED BY IDOCK:   -4.89 KCAL/MOL
REMARK 922        TOTAL FREE ENERGY PREDICTED BY IDOCK:   -6.32 KCAL/MOL
REMARK 923 INTER-LIGAND FREE ENERGY PREDICTED BY IDOCK:   -5.60 KCAL/MOL
REMARK 924 INTRA-LIGAND FREE ENERGY PREDICTED BY IDOCK:   -0.72 KCAL/MOL
REMARK 927      BINDING AFFINITY PREDICTED BY RF-SCORE:    0.00 PKD
ROOT
HETATM    1  C   UNL     1      -9.949  12.735  66.720  1.00  0.00    -0.237 C  
HETATM    2  N   UNL     1     -10.497  12.099  67.921  1.00  0.00    -0.203 NA 
HETATM    3  C   UNL     1     -11.461  13.004  68.555  1.00  0.00    -0.304 C  
ENDROOT
BRANCH   2   4
HETATM    4  C   UNL     1     -11.142  10.808  67.628  1.00  0.00    -0.319 C  
BRANCH   4   5
HETATM    5  C   UNL     1     -10.458   9.592  68.261  1.00  0.00    -0.259 C  
BRANCH   5   6
HETATM    6  C   UNL     1      -9.644   9.925  69.519  1.00  0.00    -0.225 C  
BRANCH   6   7
HETATM    7  N   UNL     1      -9.981   9.004  70.636  1.00  0.00    -0.214 NA 
HETATM    8  C   UNL     1      -8.948   8.110  70.984  1.00  0.00    -0.151 A  
HETATM    9  C   UNL     1      -7.845   8.583  71.711  1.00  0.00    -0.161 A  
HETATM   10  C   UNL     1      -6.831   7.720  72.132  1.00  0.00    -0.060 A  
HETATM   11  C   UNL     1      -6.893   6.370  71.805  1.00  0.00    -0.064 A  
HETATM   12  C   UNL     1      -7.978   5.885  71.079  1.00  0.00    -0.116 A  
HETATM   13  C   UNL     1      -9.012   6.746  70.674  1.00  0.00    -0.151 A  
HETATM   14  C   UNL     1     -10.217   6.194  69.969  1.00  0.00    -0.250 C  
HETATM   15  C   UNL     1     -11.454   6.287  70.854  1.00  0.00    -0.377 C  
HETATM   16  C   UNL     1     -12.014   7.659  71.171  1.00  0.00    -0.319 A  
HETATM   17  C   UNL     1     -13.332   7.660  71.683  1.00  0.00    -0.400 A  
HETATM   18  C   UNL     1     -13.988   8.840  72.021  1.00  0.00    -0.511 A  
HETATM   19  C   UNL     1     -13.338  10.050  71.852  1.00  0.00    -0.516 A  
HETATM   20  C   UNL     1     -12.033  10.069  71.355  1.00  0.00    -0.470 A  
HETATM   21  C   UNL     1     -11.336   8.887  71.012  1.00  0.00    -0.291 A  
ENDBRANCH   6   7
ENDBRANCH   5   6
ENDBRANCH   4   5
ENDBRANCH   2   4
TORSDOF 4
ENDMDL
MODEL       68
REMARK 921   NORMALIZED FREE ENERGY PREDICTED BY IDOCK:   -4.87 KCAL/MOL
REMARK 922        TOTAL FREE ENERGY PREDICTED BY IDOCK:   -6.30 KCAL/MOL
REMARK 923 INTER-LIGAND FREE ENERGY PREDICTED BY IDOCK:   -5.58 KCAL/MOL
REMARK 924 INTRA-LIGAND FREE ENERGY PREDICTED BY IDOCK:   -0.72 KCAL/MOL
REMARK 927      BINDING AFFINITY PREDICTED BY RF-SCORE:    0.00 PKD
ROOT
HETATM    1  C   UNL     1     -10.626   5.130  66.361  1.00  0.00    -0.276 C  
HETATM    2  N   UNL     1      -9.992   5.758  67.523  1.00  0.00    -0.136 NA 
HETATM    3  C   UNL     1      -9.073   6.807  67.070  1.00  0.00    -0.131 C  
ENDROOT
BRANCH   2   4
HETATM    4  C   UNL     1     -10.975   6.326  68.460  1.00  0.00    -0.340 C  
BRANCH   4   5
HETATM    5  C   UNL     1     -10.811   5.872  69.914  1.00  0.00    -0.439 C  
BRANCH   5   6
HETATM    6  C   UNL     1     -11.683   6.651  70.908  1.00  0.00    -0.375 C  
BRANCH   6   7
HETATM    7  N   UNL     1     -10.931   7.784  71.509  1.00  0.00    -0.231 NA 
HETATM    8  C   UNL     1     -11.317   9.054  71.034  1.00  0.00    -0.297 A  
HETATM    9  C   UNL     1     -12.520   9.620  71.484  1.00  0.00    -0.476 A  
HETATM   10  C   UNL     1     -12.909  10.902  71.089  1.00  0.00    -0.508 A  
HETATM   11  C   UNL     1     -12.110  11.628  70.215  1.00  0.00    -0.443 A  
HETATM   12  C   UNL     1     -10.914  11.080  69.755  1.00  0.00    -0.258 A  
HETATM   13  C   UNL     1     -10.508   9.799  70.167  1.00  0.00    -0.338 A  
HETATM   14  C   UNL     1      -9.177   9.257  69.734  1.00  0.00    -0.191 C  
HETATM   15  C   UNL     1      -8.219   9.161  70.915  1.00  0.00    -0.220 C  
HETATM   16  C   UNL     1      -8.510   8.143  72.000  1.00  0.00    -0.206 A  
HETATM   17  C   UNL     1      -7.423   7.862  72.859  1.00  0.00    -0.139 A  
HETATM   18  C   UNL     1      -7.529   6.949  73.903  1.00  0.00    -0.097 A  
HETATM   19  C   UNL     1      -8.730   6.291  74.110  1.00  0.00    -0.133 A  
HETATM   20  C   UNL     1      -9.817   6.561  73.278  1.00  0.00    -0.189 A  
HETATM   21  C   UNL     1      -9.744   7.491  72.215  1.00  0.00    -0.160 A  
ENDBRANCH   6   7
ENDBRANCH   5   6
ENDBRANCH   4   5
ENDBRANCH   2   4
TORSDOF 4
ENDMDL
MODEL       69
REMARK 921   NORMALIZED FREE ENERGY PREDICTED BY IDOCK:   -4.86 KCAL/MOL
REMARK 922        TOTAL FREE ENERGY PREDICTED BY IDOCK:   -6.30 KCAL/MOL
REMARK 923 INTER-LIGAND FREE ENERGY PREDICTED BY IDOCK:   -6.02 KCAL/MOL
REMARK 924 INTRA-LIGAND FREE ENERGY PREDICTED BY IDOCK:   -0.27 KCAL/MOL
REMARK 927      BINDING AFFINITY PREDICTED BY RF-SCORE:    0.00 PKD
ROOT
HETATM    1  C   UNL     1     -11.673  15.556  72.459  1.00  0.00    -0.468 C  
HETATM    2  N   UNL     1     -11.872  14.806  71.215  1.00  0.00    -0.335 NA 
HETATM    3  C   UNL     1     -12.761  13.668  71.469  1.00  0.00    -0.332 C  
ENDROOT
BRANCH   2   4
HETATM    4  C   UNL     1     -12.428  15.643  70.138  1.00  0.00    -0.278 C  
BRANCH   4   5
HETATM    5  C   UNL     1     -11.738  15.480  68.781  1.00  0.00    -0.372 C  
BRANCH   5   6
HETATM    6  C   UNL     1     -10.231  15.207  68.881  1.00  0.00    -0.236 C  
BRANCH   6   7
HETATM    7  N   UNL     1      -9.794  14.227  67.852  1.00  0.00    -0.221 NA 
HETATM    8  C   UNL     1     -10.657  14.127  66.742  1.00  0.00    -0.277 A  
HETATM    9  C   UNL     1     -10.650  15.142  65.772  1.00  0.00    -0.364 A  
HETATM   10  C   UNL     1     -11.442  15.052  64.624  1.00  0.00    -0.382 A  
HETATM   11  C   UNL     1     -12.274  13.954  64.443  1.00  0.00    -0.449 A  
HETATM   12  C   UNL     1     -12.297  12.939  65.398  1.00  0.00    -0.538 A  
HETATM   13  C   UNL     1     -11.485  13.015  66.544  1.00  0.00    -0.385 A  
HETATM   14  C   UNL     1     -11.454  11.875  67.519  1.00  0.00    -0.396 C  
HETATM   15  C   UNL     1     -10.106  11.166  67.484  1.00  0.00    -0.210 C  
HETATM   16  C   UNL     1      -8.886  11.906  67.996  1.00  0.00    -0.177 A  
HETATM   17  C   UNL     1      -7.764  11.089  68.264  1.00  0.00    -0.113 A  
HETATM   18  C   UNL     1      -6.568  11.618  68.742  1.00  0.00    -0.072 A  
HETATM   19  C   UNL     1      -6.471  12.981  68.966  1.00  0.00    -0.103 A  
HETATM   20  C   UNL     1      -7.566  13.804  68.700  1.00  0.00    -0.125 A  
HETATM   21  C   UNL     1      -8.790  13.299  68.204  1.00  0.00    -0.187 A  
ENDBRANCH   6   7
ENDBRANCH   5   6
ENDBRANCH   4   5
ENDBRANCH   2   4
TORSDOF 4
ENDMDL
MODEL       70
REMARK 921   NORMALIZED FREE ENERGY PREDICTED BY IDOCK:   -4.85 KCAL/MOL
REMARK 922        TOTAL FREE ENERGY PREDICTED BY IDOCK:   -6.28 KCAL/MOL
REMARK 923 INTER-LIGAND FREE ENERGY PREDICTED BY IDOCK:   -5.76 KCAL/MOL
REMARK 924 INTRA-LIGAND FREE ENERGY PREDICTED BY IDOCK:   -0.51 KCAL/MOL
REMARK 927      BINDING AFFINITY PREDICTED BY RF-SCORE:    0.00 PKD
ROOT
HETATM    1  C   UNL     1     -12.122  14.895  64.208  1.00  0.00    -0.353 C  
HETATM    2  N   UNL     1     -12.637  13.528  64.324  1.00  0.00    -0.656 NA 
HETATM    3  C   UNL     1     -11.930  12.658  63.378  1.00  0.00    -0.528 C  
ENDROOT
BRANCH   2   4
HETATM    4  C   UNL     1     -12.505  12.993  65.689  1.00  0.00    -0.390 C  
BRANCH   4   5
HETATM    5  C   UNL     1     -11.288  12.089  65.908  1.00  0.00    -0.391 C  
BRANCH   5   6
HETATM    6  C   UNL     1     -11.267  11.399  67.279  1.00  0.00    -0.304 C  
BRANCH   6   7
HETATM    7  N   UNL     1     -10.354  12.102  68.219  1.00  0.00    -0.207 NA 
HETATM    8  C   UNL     1     -10.820  13.361  68.647  1.00  0.00    -0.263 A  
HETATM    9  C   UNL     1     -11.847  13.427  69.602  1.00  0.00    -0.394 A  
HETATM   10  C   UNL     1     -12.294  14.652  70.101  1.00  0.00    -0.390 A  
HETATM   11  C   UNL     1     -11.736  15.835  69.632  1.00  0.00    -0.363 A  
HETATM   12  C   UNL     1     -10.718  15.789  68.681  1.00  0.00    -0.263 A  
HETATM   13  C   UNL     1     -10.250  14.556  68.192  1.00  0.00    -0.230 A  
HETATM   14  C   UNL     1      -9.095  14.519  67.235  1.00  0.00    -0.217 C  
HETATM   15  C   UNL     1      -7.862  13.914  67.894  1.00  0.00    -0.161 C  
HETATM   16  C   UNL     1      -7.881  12.440  68.249  1.00  0.00    -0.150 A  
HETATM   17  C   UNL     1      -6.614  11.876  68.519  1.00  0.00    -0.061 A  
HETATM   18  C   UNL     1      -6.464  10.534  68.858  1.00  0.00    -0.048 A  
HETATM   19  C   UNL     1      -7.583   9.724  68.930  1.00  0.00    -0.081 A  
HETATM   20  C   UNL     1      -8.845  10.264  68.674  1.00  0.00    -0.137 A  
HETATM   21  C   UNL     1      -9.031  11.625  68.338  1.00  0.00    -0.176 A  
ENDBRANCH   6   7
ENDBRANCH   5   6
ENDBRANCH   4   5
ENDBRANCH   2   4
TORSDOF 4
ENDMDL
MODEL       71
REMARK 921   NORMALIZED FREE ENERGY PREDICTED BY IDOCK:   -4.84 KCAL/MOL
REMARK 922        TOTAL FREE ENERGY PREDICTED BY IDOCK:   -6.27 KCAL/MOL
REMARK 923 INTER-LIGAND FREE ENERGY PREDICTED BY IDOCK:   -5.54 KCAL/MOL
REMARK 924 INTRA-LIGAND FREE ENERGY PREDICTED BY IDOCK:   -0.73 KCAL/MOL
REMARK 927      BINDING AFFINITY PREDICTED BY RF-SCORE:    0.00 PKD
ROOT
HETATM    1  C   UNL     1     -10.768  19.825  67.652  1.00  0.00    -0.324 C  
HETATM    2  N   UNL     1      -9.800  18.807  68.072  1.00  0.00    -0.326 NA 
HETATM    3  C   UNL     1      -8.637  19.461  68.679  1.00  0.00    -0.358 C  
ENDROOT
BRANCH   2   4
HETATM    4  C   UNL     1     -10.379  17.838  69.018  1.00  0.00    -0.234 C  
BRANCH   4   5
HETATM    5  C   UNL     1     -10.276  16.375  68.579  1.00  0.00    -0.257 C  
BRANCH   5   6
HETATM    6  C   UNL     1     -10.255  16.185  67.056  1.00  0.00    -0.285 C  
BRANCH   6   7
HETATM    7  N   UNL     1      -9.309  15.107  66.663  1.00  0.00    -0.249 NA 
HETATM    8  C   UNL     1      -9.919  13.992  66.053  1.00  0.00    -0.315 A  
HETATM    9  C   UNL     1     -10.357  14.089  64.723  1.00  0.00    -0.407 A  
HETATM   10  C   UNL     1     -10.909  12.990  64.060  1.00  0.00    -0.408 A  
HETATM   11  C   UNL     1     -11.055  11.781  64.731  1.00  0.00    -0.356 A  
HETATM   12  C   UNL     1     -10.631  11.669  66.053  1.00  0.00    -0.303 A  
HETATM   13  C   UNL     1     -10.055  12.767  66.717  1.00  0.00    -0.239 A  
HETATM   14  C   UNL     1      -9.522  12.606  68.110  1.00  0.00    -0.218 C  
HETATM   15  C   UNL     1      -8.002  12.710  68.127  1.00  0.00    -0.158 C  
HETATM   16  C   UNL     1      -7.365  14.050  67.818  1.00  0.00    -0.176 A  
HETATM   17  C   UNL     1      -6.007  14.164  68.193  1.00  0.00    -0.133 A  
HETATM   18  C   UNL     1      -5.282  15.332  67.978  1.00  0.00    -0.130 A  
HETATM   19  C   UNL     1      -5.903  16.417  67.384  1.00  0.00    -0.189 A  
HETATM   20  C   UNL     1      -7.242  16.322  67.001  1.00  0.00    -0.262 A  
HETATM   21  C   UNL     1      -8.003  15.146  67.195  1.00  0.00    -0.215 A  
ENDBRANCH   6   7
ENDBRANCH   5   6
ENDBRANCH   4   5
ENDBRANCH   2   4
TORSDOF 4
ENDMDL
MODEL       72
REMARK 921   NORMALIZED FREE ENERGY PREDICTED BY IDOCK:   -4.84 KCAL/MOL
REMARK 922        TOTAL FREE ENERGY PREDICTED BY IDOCK:   -6.27 KCAL/MOL
REMARK 923 INTER-LIGAND FREE ENERGY PREDICTED BY IDOCK:   -5.90 KCAL/MOL
REMARK 924 INTRA-LIGAND FREE ENERGY PREDICTED BY IDOCK:   -0.37 KCAL/MOL
REMARK 927      BINDING AFFINITY PREDICTED BY RF-SCORE:    0.00 PKD
ROOT
HETATM    1  C   UNL     1     -12.052  15.304  64.218  1.00  0.00    -0.208 C  
HETATM    2  N   UNL     1     -12.415  14.022  64.827  1.00  0.00    -0.609 NA 
HETATM    3  C   UNL     1     -12.181  12.941  63.865  1.00  0.00    -0.449 C  
ENDROOT
BRANCH   2   4
HETATM    4  C   UNL     1     -11.666  13.757  66.067  1.00  0.00    -0.363 C  
BRANCH   4   5
HETATM    5  C   UNL     1     -11.791  12.326  66.598  1.00  0.00    -0.362 C  
BRANCH   5   6
HETATM    6  C   UNL     1     -11.817  12.234  68.130  1.00  0.00    -0.311 C  
BRANCH   6   7
HETATM    7  N   UNL     1     -10.781  11.292  68.629  1.00  0.00    -0.194 NA 
HETATM    8  C   UNL     1      -9.565  11.337  67.917  1.00  0.00    -0.178 A  
HETATM    9  C   UNL     1      -8.685  12.410  68.125  1.00  0.00    -0.190 A  
HETATM   10  C   UNL     1      -7.442  12.461  67.489  1.00  0.00    -0.150 A  
HETATM   11  C   UNL     1      -7.073  11.449  66.611  1.00  0.00    -0.103 A  
HETATM   12  C   UNL     1      -7.937  10.378  66.389  1.00  0.00    -0.130 A  
HETATM   13  C   UNL     1      -9.178  10.312  67.045  1.00  0.00    -0.169 A  
HETATM   14  C   UNL     1     -10.059   9.110  66.863  1.00  0.00    -0.328 C  
HETATM   15  C   UNL     1     -10.142   8.298  68.150  1.00  0.00    -0.238 C  
HETATM   16  C   UNL     1     -10.862   8.901  69.340  1.00  0.00    -0.133 A  
HETATM   17  C   UNL     1     -11.207   7.980  70.356  1.00  0.00    -0.230 A  
HETATM   18  C   UNL     1     -11.873   8.377  71.512  1.00  0.00    -0.345 A  
HETATM   19  C   UNL     1     -12.211   9.709  71.676  1.00  0.00    -0.484 A  
HETATM   20  C   UNL     1     -11.871  10.635  70.688  1.00  0.00    -0.463 A  
HETATM   21  C   UNL     1     -11.186  10.265  69.508  1.00  0.00    -0.261 A  
ENDBRANCH   6   7
ENDBRANCH   5   6
ENDBRANCH   4   5
ENDBRANCH   2   4
TORSDOF 4
ENDMDL
MODEL       73
REMARK 921   NORMALIZED FREE ENERGY PREDICTED BY IDOCK:   -4.82 KCAL/MOL
REMARK 922        TOTAL FREE ENERGY PREDICTED BY IDOCK:   -6.25 KCAL/MOL
REMARK 923 INTER-LIGAND FREE ENERGY PREDICTED BY IDOCK:   -5.94 KCAL/MOL
REMARK 924 INTRA-LIGAND FREE ENERGY PREDICTED BY IDOCK:   -0.31 KCAL/MOL
REMARK 927      BINDING AFFINITY PREDICTED BY RF-SCORE:    0.00 PKD
ROOT
HETATM    1  C   UNL     1     -13.108  11.721  63.893  1.00  0.00     0.110 C  
HETATM    2  N   UNL     1     -11.769  12.274  64.119  1.00  0.00    -0.372 NA 
HETATM    3  C   UNL     1     -10.782  11.480  63.381  1.00  0.00    -0.373 C  
ENDROOT
BRANCH   2   4
HETATM    4  C   UNL     1     -11.672  13.689  63.721  1.00  0.00    -0.250 C  
BRANCH   4   5
HETATM    5  C   UNL     1     -12.020  14.690  64.826  1.00  0.00    -0.439 C  
BRANCH   5   6
HETATM    6  C   UNL     1     -10.973  15.797  65.012  1.00  0.00    -0.417 C  
BRANCH   6   7
HETATM    7  N   UNL     1     -10.343  15.719  66.356  1.00  0.00    -0.289 NA 
HETATM    8  C   UNL     1     -10.313  14.423  66.910  1.00  0.00    -0.265 A  
HETATM    9  C   UNL     1      -9.385  13.488  66.424  1.00  0.00    -0.191 A  
HETATM   10  C   UNL     1      -9.278  12.214  66.986  1.00  0.00    -0.202 A  
HETATM   11  C   UNL     1     -10.120  11.846  68.029  1.00  0.00    -0.199 A  
HETATM   12  C   UNL     1     -11.051  12.759  68.520  1.00  0.00    -0.300 A  
HETATM   13  C   UNL     1     -11.146  14.051  67.972  1.00  0.00    -0.282 A  
HETATM   14  C   UNL     1     -12.091  15.052  68.568  1.00  0.00    -0.177 C  
HETATM   15  C   UNL     1     -11.329  16.176  69.258  1.00  0.00    -0.328 C  
HETATM   16  C   UNL     1     -10.527  17.137  68.402  1.00  0.00    -0.376 A  
HETATM   17  C   UNL     1     -10.148  18.335  69.049  1.00  0.00    -0.283 A  
HETATM   18  C   UNL     1      -9.410  19.319  68.398  1.00  0.00    -0.422 A  
HETATM   19  C   UNL     1      -9.038  19.127  67.078  1.00  0.00    -0.329 A  
HETATM   20  C   UNL     1      -9.397  17.947  66.425  1.00  0.00    -0.268 A  
HETATM   21  C   UNL     1     -10.136  16.923  67.062  1.00  0.00    -0.289 A  
ENDBRANCH   6   7
ENDBRANCH   5   6
ENDBRANCH   4   5
ENDBRANCH   2   4
TORSDOF 4
ENDMDL
MODEL       74
REMARK 921   NORMALIZED FREE ENERGY PREDICTED BY IDOCK:   -4.82 KCAL/MOL
REMARK 922        TOTAL FREE ENERGY PREDICTED BY IDOCK:   -6.24 KCAL/MOL
REMARK 923 INTER-LIGAND FREE ENERGY PREDICTED BY IDOCK:   -5.63 KCAL/MOL
REMARK 924 INTRA-LIGAND FREE ENERGY PREDICTED BY IDOCK:   -0.61 KCAL/MOL
REMARK 927      BINDING AFFINITY PREDICTED BY RF-SCORE:    0.00 PKD
ROOT
HETATM    1  C   UNL     1     -11.627   9.746  70.973  1.00  0.00    -0.376 C  
HETATM    2  N   UNL     1     -12.509  10.790  70.443  1.00  0.00    -0.342 NA 
HETATM    3  C   UNL     1     -12.889  11.703  71.526  1.00  0.00    -0.364 C  
ENDROOT
BRANCH   2   4
HETATM    4  C   UNL     1     -11.885  11.549  69.346  1.00  0.00    -0.350 C  
BRANCH   4   5
HETATM    5  C   UNL     1     -10.624  10.906  68.761  1.00  0.00    -0.231 C  
BRANCH   5   6
HETATM    6  C   UNL     1     -10.751  10.530  67.278  1.00  0.00    -0.277 C  
BRANCH   6   7
HETATM    7  N   UNL     1     -10.023  11.496  66.415  1.00  0.00    -0.204 NA 
HETATM    8  C   UNL     1      -8.624  11.483  66.580  1.00  0.00    -0.176 A  
HETATM    9  C   UNL     1      -7.875  10.431  66.029  1.00  0.00    -0.142 A  
HETATM   10  C   UNL     1      -6.481  10.412  66.114  1.00  0.00    -0.111 A  
HETATM   11  C   UNL     1      -5.815  11.435  66.779  1.00  0.00    -0.135 A  
HETATM   12  C   UNL     1      -6.543  12.484  67.337  1.00  0.00    -0.152 A  
HETATM   13  C   UNL     1      -7.945  12.519  67.233  1.00  0.00    -0.173 A  
HETATM   14  C   UNL     1      -8.708  13.698  67.761  1.00  0.00    -0.184 C  
HETATM   15  C   UNL     1      -9.317  14.506  66.622  1.00  0.00    -0.301 C  
HETATM   16  C   UNL     1     -10.438  13.883  65.814  1.00  0.00    -0.313 A  
HETATM   17  C   UNL     1     -11.183  14.793  65.029  1.00  0.00    -0.399 A  
HETATM   18  C   UNL     1     -12.246  14.377  64.233  1.00  0.00    -0.450 A  
HETATM   19  C   UNL     1     -12.590  13.037  64.206  1.00  0.00    -0.326 A  
HETATM   20  C   UNL     1     -11.862  12.122  64.969  1.00  0.00    -0.357 A  
HETATM   21  C   UNL     1     -10.771  12.511  65.780  1.00  0.00    -0.269 A  
ENDBRANCH   6   7
ENDBRANCH   5   6
ENDBRANCH   4   5
ENDBRANCH   2   4
TORSDOF 4
ENDMDL
MODEL       75
REMARK 921   NORMALIZED FREE ENERGY PREDICTED BY IDOCK:   -4.80 KCAL/MOL
REMARK 922        TOTAL FREE ENERGY PREDICTED BY IDOCK:   -6.22 KCAL/MOL
REMARK 923 INTER-LIGAND FREE ENERGY PREDICTED BY IDOCK:   -5.57 KCAL/MOL
REMARK 924 INTRA-LIGAND FREE ENERGY PREDICTED BY IDOCK:   -0.65 KCAL/MOL
REMARK 927      BINDING AFFINITY PREDICTED BY RF-SCORE:    0.00 PKD
ROOT
HETATM    1  C   UNL     1     -10.613   6.561  68.500  1.00  0.00    -0.244 C  
HETATM    2  N   UNL     1      -9.938   7.740  67.950  1.00  0.00    -0.164 NA 
HETATM    3  C   UNL     1      -9.357   7.405  66.646  1.00  0.00    -0.170 C  
ENDROOT
BRANCH   2   4
HETATM    4  C   UNL     1     -10.844   8.892  67.813  1.00  0.00    -0.036 C  
BRANCH   4   5
HETATM    5  C   UNL     1     -10.454  10.116  68.647  1.00  0.00    -0.225 C  
BRANCH   5   6
HETATM    6  C   UNL     1      -9.193  10.833  68.144  1.00  0.00    -0.151 C  
BRANCH   6   7
HETATM    7  N   UNL     1      -9.542  12.066  67.390  1.00  0.00    -0.174 NA 
HETATM    8  C   UNL     1      -9.403  13.257  68.130  1.00  0.00    -0.220 A  
HETATM    9  C   UNL     1      -8.120  13.772  68.372  1.00  0.00    -0.148 A  
HETATM   10  C   UNL     1      -7.940  14.983  69.046  1.00  0.00    -0.180 A  
HETATM   11  C   UNL     1      -9.045  15.684  69.512  1.00  0.00    -0.240 A  
HETATM   12  C   UNL     1     -10.326  15.186  69.285  1.00  0.00    -0.258 A  
HETATM   13  C   UNL     1     -10.513  13.979  68.588  1.00  0.00    -0.249 A  
HETATM   14  C   UNL     1     -11.899  13.499  68.275  1.00  0.00    -0.401 C  
HETATM   15  C   UNL     1     -12.176  13.577  66.778  1.00  0.00    -0.392 C  
HETATM   16  C   UNL     1     -11.423  12.642  65.854  1.00  0.00    -0.407 A  
HETATM   17  C   UNL     1     -11.971  12.517  64.557  1.00  0.00    -0.472 A  
HETATM   18  C   UNL     1     -11.397  11.695  63.593  1.00  0.00    -0.485 A  
HETATM   19  C   UNL     1     -10.258  10.973  63.907  1.00  0.00    -0.425 A  
HETATM   20  C   UNL     1      -9.697  11.089  65.180  1.00  0.00    -0.302 A  
HETATM   21  C   UNL     1     -10.251  11.924  66.178  1.00  0.00    -0.226 A  
ENDBRANCH   6   7
ENDBRANCH   5   6
ENDBRANCH   4   5
ENDBRANCH   2   4
TORSDOF 4
ENDMDL
MODEL       76
REMARK 921   NORMALIZED FREE ENERGY PREDICTED BY IDOCK:   -4.76 KCAL/MOL
REMARK 922        TOTAL FREE ENERGY PREDICTED BY IDOCK:   -6.17 KCAL/MOL
REMARK 923 INTER-LIGAND FREE ENERGY PREDICTED BY IDOCK:   -5.86 KCAL/MOL
REMARK 924 INTRA-LIGAND FREE ENERGY PREDICTED BY IDOCK:   -0.31 KCAL/MOL
REMARK 927      BINDING AFFINITY PREDICTED BY RF-SCORE:    0.00 PKD
ROOT
HETATM    1  C   UNL     1     -10.446  19.862  67.259  1.00  0.00    -0.421 C  
HETATM    2  N   UNL     1      -9.821  18.537  67.238  1.00  0.00    -0.302 NA 
HETATM    3  C   UNL     1      -8.398  18.674  66.910  1.00  0.00    -0.264 C  
ENDROOT
BRANCH   2   4
HETATM    4  C   UNL     1      -9.972  17.825  68.518  1.00  0.00    -0.370 C  
BRANCH   4   5
HETATM    5  C   UNL     1      -9.127  16.554  68.648  1.00  0.00    -0.239 C  
BRANCH   5   6
HETATM    6  C   UNL     1      -9.948  15.292  68.947  1.00  0.00    -0.225 C  
BRANCH   6   7
HETATM    7  N   UNL     1      -9.718  14.246  67.916  1.00  0.00    -0.217 NA 
HETATM    8  C   UNL     1     -10.609  14.300  66.825  1.00  0.00    -0.278 A  
HETATM    9  C   UNL     1     -10.440  15.294  65.848  1.00  0.00    -0.345 A  
HETATM   10  C   UNL     1     -11.260  15.345  64.718  1.00  0.00    -0.404 A  
HETATM   11  C   UNL     1     -12.280  14.414  64.562  1.00  0.00    -0.483 A  
HETATM   12  C   UNL     1     -12.465  13.424  65.525  1.00  0.00    -0.534 A  
HETATM   13  C   UNL     1     -11.628  13.355  66.652  1.00  0.00    -0.399 A  
HETATM   14  C   UNL     1     -11.782  12.232  67.635  1.00  0.00    -0.403 C  
HETATM   15  C   UNL     1     -10.586  11.291  67.576  1.00  0.00    -0.257 C  
HETATM   16  C   UNL     1      -9.242  11.800  68.058  1.00  0.00    -0.181 A  
HETATM   17  C   UNL     1      -8.279  10.795  68.309  1.00  0.00    -0.124 A  
HETATM   18  C   UNL     1      -6.998  11.100  68.758  1.00  0.00    -0.088 A  
HETATM   19  C   UNL     1      -6.651  12.423  68.970  1.00  0.00    -0.100 A  
HETATM   20  C   UNL     1      -7.585  13.431  68.721  1.00  0.00    -0.047 A  
HETATM   21  C   UNL     1      -8.891  13.154  68.254  1.00  0.00    -0.175 A  
ENDBRANCH   6   7
ENDBRANCH   5   6
ENDBRANCH   4   5
ENDBRANCH   2   4
TORSDOF 4
ENDMDL
MODEL       77
REMARK 921   NORMALIZED FREE ENERGY PREDICTED BY IDOCK:   -4.75 KCAL/MOL
REMARK 922        TOTAL FREE ENERGY PREDICTED BY IDOCK:   -6.16 KCAL/MOL
REMARK 923 INTER-LIGAND FREE ENERGY PREDICTED BY IDOCK:   -5.82 KCAL/MOL
REMARK 924 INTRA-LIGAND FREE ENERGY PREDICTED BY IDOCK:   -0.34 KCAL/MOL
REMARK 927      BINDING AFFINITY PREDICTED BY RF-SCORE:    0.00 PKD
ROOT
HETATM    1  C   UNL     1     -10.050   4.349  65.478  1.00  0.00    -0.236 C  
HETATM    2  N   UNL     1      -9.795   5.174  66.662  1.00  0.00    -0.168 NA 
HETATM    3  C   UNL     1      -8.550   5.925  66.474  1.00  0.00    -0.123 C  
ENDROOT
BRANCH   2   4
HETATM    4  C   UNL     1     -10.901   6.103  66.947  1.00  0.00    -0.335 C  
BRANCH   4   5
HETATM    5  C   UNL     1     -11.030   6.513  68.417  1.00  0.00    -0.358 C  
BRANCH   5   6
HETATM    6  C   UNL     1     -10.579   7.954  68.700  1.00  0.00    -0.111 C  
BRANCH   6   7
HETATM    7  N   UNL     1     -10.790   8.311  70.127  1.00  0.00    -0.241 NA 
HETATM    8  C   UNL     1     -10.485   7.278  71.036  1.00  0.00    -0.215 A  
HETATM    9  C   UNL     1      -9.141   6.978  71.312  1.00  0.00    -0.152 A  
HETATM   10  C   UNL     1      -8.795   6.006  72.253  1.00  0.00    -0.138 A  
HETATM   11  C   UNL     1      -9.792   5.298  72.914  1.00  0.00    -0.179 A  
HETATM   12  C   UNL     1     -11.130   5.578  72.648  1.00  0.00    -0.334 A  
HETATM   13  C   UNL     1     -11.483   6.572  71.718  1.00  0.00    -0.346 A  
HETATM   14  C   UNL     1     -12.927   6.923  71.507  1.00  0.00    -0.362 C  
HETATM   15  C   UNL     1     -13.229   8.319  72.037  1.00  0.00    -0.342 C  
HETATM   16  C   UNL     1     -12.623   9.511  71.324  1.00  0.00    -0.425 A  
HETATM   17  C   UNL     1     -13.215  10.756  71.636  1.00  0.00    -0.487 A  
HETATM   18  C   UNL     1     -12.772  11.944  71.062  1.00  0.00    -0.354 A  
HETATM   19  C   UNL     1     -11.725  11.912  70.157  1.00  0.00    -0.337 A  
HETATM   20  C   UNL     1     -11.122  10.693  69.842  1.00  0.00    -0.364 A  
HETATM   21  C   UNL     1     -11.542   9.470  70.416  1.00  0.00    -0.212 A  
ENDBRANCH   6   7
ENDBRANCH   5   6
ENDBRANCH   4   5
ENDBRANCH   2   4
TORSDOF 4
ENDMDL
MODEL       78
REMARK 921   NORMALIZED FREE ENERGY PREDICTED BY IDOCK:   -4.74 KCAL/MOL
REMARK 922        TOTAL FREE ENERGY PREDICTED BY IDOCK:   -6.15 KCAL/MOL
REMARK 923 INTER-LIGAND FREE ENERGY PREDICTED BY IDOCK:   -5.97 KCAL/MOL
REMARK 924 INTRA-LIGAND FREE ENERGY PREDICTED BY IDOCK:   -0.18 KCAL/MOL
REMARK 927      BINDING AFFINITY PREDICTED BY RF-SCORE:    0.00 PKD
ROOT
HETATM    1  C   UNL     1     -11.294  10.114  70.611  1.00  0.00    -0.352 C  
HETATM    2  N   UNL     1     -12.512  10.928  70.660  1.00  0.00    -0.350 NA 
HETATM    3  C   UNL     1     -13.186  10.720  71.945  1.00  0.00    -0.419 C  
ENDROOT
BRANCH   2   4
HETATM    4  C   UNL     1     -12.236  12.362  70.467  1.00  0.00    -0.295 C  
BRANCH   4   5
HETATM    5  C   UNL     1     -11.299  12.682  69.299  1.00  0.00    -0.306 C  
BRANCH   5   6
HETATM    6  C   UNL     1     -11.618  14.007  68.594  1.00  0.00    -0.325 C  
BRANCH   6   7
HETATM    7  N   UNL     1     -10.780  14.184  67.379  1.00  0.00    -0.282 NA 
HETATM    8  C   UNL     1      -9.608  14.940  67.587  1.00  0.00    -0.200 A  
HETATM    9  C   UNL     1      -8.519  14.352  68.249  1.00  0.00    -0.165 A  
HETATM   10  C   UNL     1      -7.317  15.042  68.419  1.00  0.00    -0.112 A  
HETATM   11  C   UNL     1      -7.196  16.346  67.952  1.00  0.00    -0.150 A  
HETATM   12  C   UNL     1      -8.269  16.947  67.297  1.00  0.00    -0.205 A  
HETATM   13  C   UNL     1      -9.473  16.247  67.103  1.00  0.00    -0.231 A  
HETATM   14  C   UNL     1     -10.589  16.875  66.320  1.00  0.00    -0.191 C  
HETATM   15  C   UNL     1     -10.789  16.158  64.990  1.00  0.00    -0.380 C  
HETATM   16  C   UNL     1     -11.325  14.740  65.007  1.00  0.00    -0.391 A  
HETATM   17  C   UNL     1     -11.814  14.274  63.766  1.00  0.00     0.004 A  
HETATM   18  C   UNL     1     -12.341  12.994  63.617  1.00  0.00    -0.499 A  
HETATM   19  C   UNL     1     -12.392  12.150  64.713  1.00  0.00    -0.310 A  
HETATM   20  C   UNL     1     -11.906  12.590  65.946  1.00  0.00    -0.489 A  
HETATM   21  C   UNL     1     -11.355  13.880  66.127  1.00  0.00    -0.320 A  
ENDBRANCH   6   7
ENDBRANCH   5   6
ENDBRANCH   4   5
ENDBRANCH   2   4
TORSDOF 4
ENDMDL
MODEL       79
REMARK 921   NORMALIZED FREE ENERGY PREDICTED BY IDOCK:   -4.74 KCAL/MOL
REMARK 922        TOTAL FREE ENERGY PREDICTED BY IDOCK:   -6.15 KCAL/MOL
REMARK 923 INTER-LIGAND FREE ENERGY PREDICTED BY IDOCK:   -5.84 KCAL/MOL
REMARK 924 INTRA-LIGAND FREE ENERGY PREDICTED BY IDOCK:   -0.31 KCAL/MOL
REMARK 927      BINDING AFFINITY PREDICTED BY RF-SCORE:    0.00 PKD
ROOT
HETATM    1  C   UNL     1     -13.909   8.943  72.155  1.00  0.00    -0.473 C  
HETATM    2  N   UNL     1     -12.971   9.786  71.407  1.00  0.00    -0.370 NA 
HETATM    3  C   UNL     1     -13.094  11.174  71.863  1.00  0.00    -0.408 C  
ENDROOT
BRANCH   2   4
HETATM    4  C   UNL     1     -11.576   9.335  71.548  1.00  0.00    -0.382 C  
BRANCH   4   5
HETATM    5  C   UNL     1     -11.102   8.372  70.456  1.00  0.00    -0.267 C  
BRANCH   5   6
HETATM    6  C   UNL     1      -9.934   8.912  69.619  1.00  0.00    -0.191 C  
BRANCH   6   7
HETATM    7  N   UNL     1     -10.290   8.974  68.177  1.00  0.00    -0.208 NA 
HETATM    8  C   UNL     1     -10.036   7.784  67.465  1.00  0.00    -0.209 A  
HETATM    9  C   UNL     1     -10.898   6.688  67.628  1.00  0.00    -0.393 A  
HETATM   10  C   UNL     1     -10.721   5.513  66.893  1.00  0.00    -0.310 A  
HETATM   11  C   UNL     1      -9.659   5.408  66.003  1.00  0.00    -0.149 A  
HETATM   12  C   UNL     1      -8.791   6.484  65.833  1.00  0.00    -0.131 A  
HETATM   13  C   UNL     1      -8.979   7.677  66.553  1.00  0.00    -0.187 A  
HETATM   14  C   UNL     1      -8.090   8.858  66.295  1.00  0.00    -0.110 C  
HETATM   15  C   UNL     1      -8.863   9.983  65.618  1.00  0.00    -0.184 C  
HETATM   16  C   UNL     1      -9.934  10.704  66.413  1.00  0.00    -0.273 A  
HETATM   17  C   UNL     1     -10.352  11.938  65.865  1.00  0.00    -0.277 A  
HETATM   18  C   UNL     1     -11.326  12.721  66.477  1.00  0.00    -0.369 A  
HETATM   19  C   UNL     1     -11.903  12.286  67.658  1.00  0.00    -0.334 A  
HETATM   20  C   UNL     1     -11.509  11.066  68.210  1.00  0.00    -0.374 A  
HETATM   21  C   UNL     1     -10.530  10.243  67.607  1.00  0.00    -0.239 A  
ENDBRANCH   6   7
ENDBRANCH   5   6
ENDBRANCH   4   5
ENDBRANCH   2   4
TORSDOF 4
ENDMDL
MODEL       80
REMARK 921   NORMALIZED FREE ENERGY PREDICTED BY IDOCK:   -4.72 KCAL/MOL
REMARK 922        TOTAL FREE ENERGY PREDICTED BY IDOCK:   -6.12 KCAL/MOL
REMARK 923 INTER-LIGAND FREE ENERGY PREDICTED BY IDOCK:   -5.50 KCAL/MOL
REMARK 924 INTRA-LIGAND FREE ENERGY PREDICTED BY IDOCK:   -0.62 KCAL/MOL
REMARK 927      BINDING AFFINITY PREDICTED BY RF-SCORE:    0.00 PKD
ROOT
HETATM    1  C   UNL     1      -5.604  13.645  69.485  1.00  0.00    -0.091 C  
HETATM    2  N   UNL     1      -6.067  12.806  68.375  1.00  0.00    -0.064 NA 
HETATM    3  C   UNL     1      -5.212  11.620  68.271  1.00  0.00    -0.043 C  
ENDROOT
BRANCH   2   4
HETATM    4  C   UNL     1      -7.473  12.396  68.530  1.00  0.00    -0.112 C  
BRANCH   4   5
HETATM    5  C   UNL     1      -8.279  12.366  67.228  1.00  0.00    -0.184 C  
BRANCH   5   6
HETATM    6  C   UNL     1      -8.997  11.034  66.975  1.00  0.00    -0.148 C  
BRANCH   6   7
HETATM    7  N   UNL     1     -10.428  11.112  67.370  1.00  0.00    -0.209 NA 
HETATM    8  C   UNL     1     -11.204  11.978  66.573  1.00  0.00    -0.334 A  
HETATM    9  C   UNL     1     -11.585  11.572  65.285  1.00  0.00     0.001 A  
HETATM   10  C   UNL     1     -12.407  12.371  64.487  1.00  0.00    -0.519 A  
HETATM   11  C   UNL     1     -12.838  13.606  64.958  1.00  0.00    -0.325 A  
HETATM   12  C   UNL     1     -12.464  14.028  66.232  1.00  0.00    -0.439 A  
HETATM   13  C   UNL     1     -11.656  13.216  67.048  1.00  0.00    -0.408 A  
HETATM   14  C   UNL     1     -11.335  13.643  68.450  1.00  0.00    -0.329 C  
HETATM   15  C   UNL     1     -12.027  12.742  69.465  1.00  0.00    -0.338 C  
HETATM   16  C   UNL     1     -11.570  11.301  69.581  1.00  0.00    -0.401 A  
HETATM   17  C   UNL     1     -11.992  10.636  70.755  1.00  0.00    -0.477 A  
HETATM   18  C   UNL     1     -11.653   9.311  71.011  1.00  0.00    -0.380 A  
HETATM   19  C   UNL     1     -10.879   8.620  70.094  1.00  0.00    -0.242 A  
HETATM   20  C   UNL     1     -10.460   9.257  68.925  1.00  0.00    -0.235 A  
HETATM   21  C   UNL     1     -10.796  10.599  68.632  1.00  0.00    -0.227 A  
ENDBRANCH   6   7
ENDBRANCH   5   6
ENDBRANCH   4   5
ENDBRANCH   2   4
TORSDOF 4
ENDMDL
MODEL       81
REMARK 921   NORMALIZED FREE ENERGY PREDICTED BY IDOCK:   -4.67 KCAL/MOL
REMARK 922        TOTAL FREE ENERGY PREDICTED BY IDOCK:   -6.06 KCAL/MOL
REMARK 923 INTER-LIGAND FREE ENERGY PREDICTED BY IDOCK:   -5.25 KCAL/MOL
REMARK 924 INTRA-LIGAND FREE ENERGY PREDICTED BY IDOCK:   -0.82 KCAL/MOL
REMARK 927      BINDING AFFINITY PREDICTED BY RF-SCORE:    0.00 PKD
ROOT
HETATM    1  C   UNL     1     -12.248   6.109  72.223  1.00  0.00    -0.122 C  
HETATM    2  N   UNL     1     -12.689   7.343  71.567  1.00  0.00    -0.359 NA 
HETATM    3  C   UNL     1     -14.154   7.380  71.531  1.00  0.00    -0.409 C  
ENDROOT
BRANCH   2   4
HETATM    4  C   UNL     1     -12.175   8.549  72.238  1.00  0.00    -0.389 C  
BRANCH   4   5
HETATM    5  C   UNL     1     -11.305   9.450  71.357  1.00  0.00    -0.451 C  
BRANCH   5   6
HETATM    6  C   UNL     1      -9.829   9.032  71.309  1.00  0.00    -0.306 C  
BRANCH   6   7
HETATM    7  N   UNL     1      -9.337   8.958  69.908  1.00  0.00    -0.160 NA 
HETATM    8  C   UNL     1      -8.605  10.088  69.490  1.00  0.00    -0.186 A  
HETATM    9  C   UNL     1      -7.286  10.258  69.940  1.00  0.00    -0.162 A  
HETATM   10  C   UNL     1      -6.503  11.328  69.500  1.00  0.00    -0.119 A  
HETATM   11  C   UNL     1      -7.039  12.261  68.621  1.00  0.00    -0.103 A  
HETATM   12  C   UNL     1      -8.348  12.110  68.168  1.00  0.00    -0.170 A  
HETATM   13  C   UNL     1      -9.132  11.022  68.591  1.00  0.00    -0.174 A  
HETATM   14  C   UNL     1     -10.509  10.825  68.027  1.00  0.00    -0.225 C  
HETATM   15  C   UNL     1     -10.558   9.593  67.131  1.00  0.00    -0.298 C  
HETATM   16  C   UNL     1     -10.402   8.228  67.772  1.00  0.00    -0.296 A  
HETATM   17  C   UNL     1     -10.805   7.141  66.962  1.00  0.00    -0.382 A  
HETATM   18  C   UNL     1     -10.726   5.825  67.407  1.00  0.00    -0.332 A  
HETATM   19  C   UNL     1     -10.242   5.566  68.678  1.00  0.00    -0.261 A  
HETATM   20  C   UNL     1      -9.831   6.625  69.489  1.00  0.00    -0.162 A  
HETATM   21  C   UNL     1      -9.889   7.972  69.063  1.00  0.00    -0.178 A  
ENDBRANCH   6   7
ENDBRANCH   5   6
ENDBRANCH   4   5
ENDBRANCH   2   4
TORSDOF 4
ENDMDL
MODEL       82
REMARK 921   NORMALIZED FREE ENERGY PREDICTED BY IDOCK:   -4.67 KCAL/MOL
REMARK 922        TOTAL FREE ENERGY PREDICTED BY IDOCK:   -6.05 KCAL/MOL
REMARK 923 INTER-LIGAND FREE ENERGY PREDICTED BY IDOCK:   -5.40 KCAL/MOL
REMARK 924 INTRA-LIGAND FREE ENERGY PREDICTED BY IDOCK:   -0.66 KCAL/MOL
REMARK 927      BINDING AFFINITY PREDICTED BY RF-SCORE:    0.00 PKD
ROOT
HETATM    1  C   UNL     1      -8.389   3.991  67.180  1.00  0.00    -0.099 C  
HETATM    2  N   UNL     1      -8.353   5.457  67.201  1.00  0.00    -0.108 NA 
HETATM    3  C   UNL     1      -7.892   5.951  65.900  1.00  0.00    -0.105 C  
ENDROOT
BRANCH   2   4
HETATM    4  C   UNL     1      -9.664   6.045  67.524  1.00  0.00    -0.116 C  
BRANCH   4   5
HETATM    5  C   UNL     1      -9.836   6.458  68.989  1.00  0.00    -0.155 C  
BRANCH   5   6
HETATM    6  C   UNL     1     -11.093   5.877  69.652  1.00  0.00    -0.343 C  
BRANCH   6   7
HETATM    7  N   UNL     1     -11.171   6.265  71.085  1.00  0.00    -0.296 NA 
HETATM    8  C   UNL     1     -12.048   7.336  71.351  1.00  0.00    -0.335 A  
HETATM    9  C   UNL     1     -13.433   7.109  71.340  1.00  0.00    -0.374 A  
HETATM   10  C   UNL     1     -14.336   8.126  71.660  1.00  0.00    -0.570 A  
HETATM   11  C   UNL     1     -13.864   9.396  71.970  1.00  0.00    -0.409 A  
HETATM   12  C   UNL     1     -12.492   9.640  71.980  1.00  0.00    -0.412 A  
HETATM   13  C   UNL     1     -11.579   8.613  71.681  1.00  0.00    -0.379 A  
HETATM   14  C   UNL     1     -10.104   8.867  71.782  1.00  0.00    -0.407 C  
HETATM   15  C   UNL     1      -9.497   8.093  72.945  1.00  0.00    -0.345 C  
HETATM   16  C   UNL     1      -9.438   6.581  72.855  1.00  0.00    -0.151 A  
HETATM   17  C   UNL     1      -8.564   5.963  73.777  1.00  0.00    -0.121 A  
HETATM   18  C   UNL     1      -8.397   4.582  73.819  1.00  0.00    -0.104 A  
HETATM   19  C   UNL     1      -9.102   3.786  72.933  1.00  0.00    -0.116 A  
HETATM   20  C   UNL     1      -9.976   4.377  72.019  1.00  0.00    -0.252 A  
HETATM   21  C   UNL     1     -10.176   5.776  71.959  1.00  0.00    -0.201 A  
ENDBRANCH   6   7
ENDBRANCH   5   6
ENDBRANCH   4   5
ENDBRANCH   2   4
TORSDOF 4
ENDMDL
MODEL       83
REMARK 921   NORMALIZED FREE ENERGY PREDICTED BY IDOCK:   -4.62 KCAL/MOL
REMARK 922        TOTAL FREE ENERGY PREDICTED BY IDOCK:   -6.00 KCAL/MOL
REMARK 923 INTER-LIGAND FREE ENERGY PREDICTED BY IDOCK:   -5.34 KCAL/MOL
REMARK 924 INTRA-LIGAND FREE ENERGY PREDICTED BY IDOCK:   -0.66 KCAL/MOL
REMARK 927      BINDING AFFINITY PREDICTED BY RF-SCORE:    0.00 PKD
ROOT
HETATM    1  C   UNL     1      -8.963   9.467  70.132  1.00  0.00    -0.227 C  
HETATM    2  N   UNL     1      -9.797   8.295  69.848  1.00  0.00    -0.184 NA 
HETATM    3  C   UNL     1     -11.053   8.397  70.597  1.00  0.00    -0.256 C  
ENDROOT
BRANCH   2   4
HETATM    4  C   UNL     1     -10.083   8.145  68.411  1.00  0.00    -0.200 C  
BRANCH   4   5
HETATM    5  C   UNL     1     -10.583   9.418  67.721  1.00  0.00    -0.317 C  
BRANCH   5   6
HETATM    6  C   UNL     1     -10.049   9.599  66.294  1.00  0.00    -0.252 C  
BRANCH   6   7
HETATM    7  N   UNL     1      -9.707  11.020  66.025  1.00  0.00    -0.215 NA 
HETATM    8  C   UNL     1      -8.590  11.494  66.743  1.00  0.00    -0.170 A  
HETATM    9  C   UNL     1      -7.301  11.111  66.342  1.00  0.00    -0.099 A  
HETATM   10  C   UNL     1      -6.165  11.608  66.985  1.00  0.00    -0.144 A  
HETATM   11  C   UNL     1      -6.304  12.477  68.060  1.00  0.00    -0.087 A  
HETATM   12  C   UNL     1      -7.577  12.864  68.475  1.00  0.00    -0.120 A  
HETATM   13  C   UNL     1      -8.722  12.384  67.816  1.00  0.00    -0.176 A  
HETATM   14  C   UNL     1     -10.081  12.877  68.218  1.00  0.00    -0.242 C  
HETATM   15  C   UNL     1     -10.689  13.746  67.123  1.00  0.00    -0.283 C  
HETATM   16  C   UNL     1     -11.088  13.089  65.817  1.00  0.00    -0.302 A  
HETATM   17  C   UNL     1     -11.952  13.857  65.003  1.00  0.00    -0.403 A  
HETATM   18  C   UNL     1     -12.410  13.393  63.774  1.00  0.00    -0.418 A  
HETATM   19  C   UNL     1     -12.014  12.142  63.331  1.00  0.00    -0.578 A  
HETATM   20  C   UNL     1     -11.156  11.371  64.117  1.00  0.00    -0.382 A  
HETATM   21  C   UNL     1     -10.665  11.819  65.365  1.00  0.00    -0.283 A  
ENDBRANCH   6   7
ENDBRANCH   5   6
ENDBRANCH   4   5
ENDBRANCH   2   4
TORSDOF 4
ENDMDL
MODEL       84
REMARK 921   NORMALIZED FREE ENERGY PREDICTED BY IDOCK:   -4.61 KCAL/MOL
REMARK 922        TOTAL FREE ENERGY PREDICTED BY IDOCK:   -5.99 KCAL/MOL
REMARK 923 INTER-LIGAND FREE ENERGY PREDICTED BY IDOCK:   -5.22 KCAL/MOL
REMARK 924 INTRA-LIGAND FREE ENERGY PREDICTED BY IDOCK:   -0.76 KCAL/MOL
REMARK 927      BINDING AFFINITY PREDICTED BY RF-SCORE:    0.00 PKD
ROOT
HETATM    1  C   UNL     1     -12.053  14.280  69.795  1.00  0.00    -0.347 C  
HETATM    2  N   UNL     1     -11.435  14.434  68.475  1.00  0.00    -0.281 NA 
HETATM    3  C   UNL     1      -9.977  14.486  68.622  1.00  0.00    -0.237 C  
ENDROOT
BRANCH   2   4
HETATM    4  C   UNL     1     -11.805  13.348  67.552  1.00  0.00    -0.366 C  
BRANCH   4   5
HETATM    5  C   UNL     1     -11.532  11.937  68.081  1.00  0.00    -0.384 C  
BRANCH   5   6
HETATM    6  C   UNL     1     -11.000  10.968  67.016  1.00  0.00    -0.272 C  
BRANCH   6   7
HETATM    7  N   UNL     1      -9.925  10.103  67.568  1.00  0.00    -0.183 NA 
HETATM    8  C   UNL     1     -10.323   8.776  67.827  1.00  0.00    -0.237 A  
HETATM    9  C   UNL     1     -10.486   7.884  66.756  1.00  0.00    -0.317 A  
HETATM   10  C   UNL     1     -10.817   6.544  66.972  1.00  0.00    -0.465 A  
HETATM   11  C   UNL     1     -11.017   6.083  68.268  1.00  0.00    -0.347 A  
HETATM   12  C   UNL     1     -10.865   6.956  69.343  1.00  0.00    -0.283 A  
HETATM   13  C   UNL     1     -10.509   8.299  69.131  1.00  0.00    -0.217 A  
HETATM   14  C   UNL     1     -10.262   9.205  70.302  1.00  0.00    -0.253 C  
HETATM   15  C   UNL     1      -8.787   9.575  70.401  1.00  0.00    -0.279 C  
HETATM   16  C   UNL     1      -8.191  10.463  69.327  1.00  0.00    -0.163 A  
HETATM   17  C   UNL     1      -6.948  11.047  69.661  1.00  0.00    -0.110 A  
HETATM   18  C   UNL     1      -6.273  11.889  68.782  1.00  0.00    -0.058 A  
HETATM   19  C   UNL     1      -6.831  12.168  67.546  1.00  0.00    -0.127 A  
HETATM   20  C   UNL     1      -8.054  11.595  67.195  1.00  0.00    -0.166 A  
HETATM   21  C   UNL     1      -8.759  10.727  68.062  1.00  0.00    -0.132 A  
ENDBRANCH   6   7
ENDBRANCH   5   6
ENDBRANCH   4   5
ENDBRANCH   2   4
TORSDOF 4
ENDMDL
MODEL       85
REMARK 921   NORMALIZED FREE ENERGY PREDICTED BY IDOCK:   -4.60 KCAL/MOL
REMARK 922        TOTAL FREE ENERGY PREDICTED BY IDOCK:   -5.97 KCAL/MOL
REMARK 923 INTER-LIGAND FREE ENERGY PREDICTED BY IDOCK:   -5.65 KCAL/MOL
REMARK 924 INTRA-LIGAND FREE ENERGY PREDICTED BY IDOCK:   -0.32 KCAL/MOL
REMARK 927      BINDING AFFINITY PREDICTED BY RF-SCORE:    0.00 PKD
ROOT
HETATM    1  C   UNL     1     -10.714  19.878  65.487  1.00  0.00    -0.199 C  
HETATM    2  N   UNL     1      -9.915  19.402  66.620  1.00  0.00    -0.357 NA 
HETATM    3  C   UNL     1      -9.283  20.546  67.286  1.00  0.00    -0.366 C  
ENDROOT
BRANCH   2   4
HETATM    4  C   UNL     1     -10.717  18.639  67.591  1.00  0.00    -0.376 C  
BRANCH   4   5
HETATM    5  C   UNL     1      -9.940  18.142  68.813  1.00  0.00    -0.389 C  
BRANCH   5   6
HETATM    6  C   UNL     1     -10.470  16.821  69.389  1.00  0.00    -0.312 C  
BRANCH   6   7
HETATM    7  N   UNL     1      -9.749  15.656  68.812  1.00  0.00    -0.203 NA 
HETATM    8  C   UNL     1      -8.446  15.946  68.360  1.00  0.00    -0.176 A  
HETATM    9  C   UNL     1      -7.414  16.116  69.297  1.00  0.00    -0.222 A  
HETATM   10  C   UNL     1      -6.096  16.340  68.891  1.00  0.00    -0.131 A  
HETATM   11  C   UNL     1      -5.796  16.425  67.536  1.00  0.00    -0.182 A  
HETATM   12  C   UNL     1      -6.808  16.265  66.593  1.00  0.00     0.003 A  
HETATM   13  C   UNL     1      -8.132  16.016  66.997  1.00  0.00    -0.257 A  
HETATM   14  C   UNL     1      -9.195  15.757  65.970  1.00  0.00    -0.379 C  
HETATM   15  C   UNL     1      -9.662  14.308  66.023  1.00  0.00    -0.312 C  
HETATM   16  C   UNL     1     -10.437  13.843  67.240  1.00  0.00    -0.271 A  
HETATM   17  C   UNL     1     -11.133  12.624  67.073  1.00  0.00    -0.322 A  
HETATM   18  C   UNL     1     -11.892  12.065  68.096  1.00  0.00    -0.352 A  
HETATM   19  C   UNL     1     -11.975  12.718  69.314  1.00  0.00    -0.300 A  
HETATM   20  C   UNL     1     -11.289  13.920  69.501  1.00  0.00    -0.293 A  
HETATM   21  C   UNL     1     -10.501  14.507  68.485  1.00  0.00    -0.250 A  
ENDBRANCH   6   7
ENDBRANCH   5   6
ENDBRANCH   4   5
ENDBRANCH   2   4
TORSDOF 4
ENDMDL
MODEL       86
REMARK 921   NORMALIZED FREE ENERGY PREDICTED BY IDOCK:   -4.57 KCAL/MOL
REMARK 922        TOTAL FREE ENERGY PREDICTED BY IDOCK:   -5.93 KCAL/MOL
REMARK 923 INTER-LIGAND FREE ENERGY PREDICTED BY IDOCK:   -5.81 KCAL/MOL
REMARK 924 INTRA-LIGAND FREE ENERGY PREDICTED BY IDOCK:   -0.12 KCAL/MOL
REMARK 927      BINDING AFFINITY PREDICTED BY RF-SCORE:    0.00 PKD
ROOT
HETATM    1  C   UNL     1     -10.383  14.312  64.868  1.00  0.00    -0.401 C  
HETATM    2  N   UNL     1     -11.664  13.646  64.614  1.00  0.00    -0.371 NA 
HETATM    3  C   UNL     1     -11.490  12.640  63.561  1.00  0.00    -0.491 C  
ENDROOT
BRANCH   2   4
HETATM    4  C   UNL     1     -12.216  13.013  65.823  1.00  0.00    -0.453 C  
BRANCH   4   5
HETATM    5  C   UNL     1     -11.172  12.600  66.864  1.00  0.00    -0.348 C  
BRANCH   5   6
HETATM    6  C   UNL     1     -11.223  11.112  67.236  1.00  0.00    -0.277 C  
BRANCH   6   7
HETATM    7  N   UNL     1     -10.695  10.883  68.606  1.00  0.00    -0.188 NA 
HETATM    8  C   UNL     1      -9.513  10.115  68.653  1.00  0.00    -0.164 A  
HETATM    9  C   UNL     1      -8.294  10.705  68.285  1.00  0.00    -0.122 A  
HETATM   10  C   UNL     1      -7.091  10.001  68.377  1.00  0.00    -0.072 A  
HETATM   11  C   UNL     1      -7.095   8.682  68.815  1.00  0.00    -0.064 A  
HETATM   12  C   UNL     1      -8.297   8.078  69.178  1.00  0.00    -0.132 A  
HETATM   13  C   UNL     1      -9.507   8.791  69.109  1.00  0.00    -0.157 A  
HETATM   14  C   UNL     1     -10.781   8.157  69.587  1.00  0.00    -0.196 C  
HETATM   15  C   UNL     1     -11.281   8.835  70.857  1.00  0.00    -0.320 C  
HETATM   16  C   UNL     1     -11.786  10.261  70.764  1.00  0.00    -0.453 A  
HETATM   17  C   UNL     1     -12.549  10.696  71.871  1.00  0.00    -0.309 A  
HETATM   18  C   UNL     1     -13.085  11.979  71.936  1.00  0.00    -0.475 A  
HETATM   19  C   UNL     1     -12.869  12.858  70.888  1.00  0.00    -0.203 A  
HETATM   20  C   UNL     1     -12.111  12.450  69.790  1.00  0.00    -0.292 A  
HETATM   21  C   UNL     1     -11.545  11.157  69.699  1.00  0.00    -0.326 A  
ENDBRANCH   6   7
ENDBRANCH   5   6
ENDBRANCH   4   5
ENDBRANCH   2   4
TORSDOF 4
ENDMDL
MODEL       87
REMARK 921   NORMALIZED FREE ENERGY PREDICTED BY IDOCK:   -4.56 KCAL/MOL
REMARK 922        TOTAL FREE ENERGY PREDICTED BY IDOCK:   -5.93 KCAL/MOL
REMARK 923 INTER-LIGAND FREE ENERGY PREDICTED BY IDOCK:   -5.81 KCAL/MOL
REMARK 924 INTRA-LIGAND FREE ENERGY PREDICTED BY IDOCK:   -0.12 KCAL/MOL
REMARK 927      BINDING AFFINITY PREDICTED BY RF-SCORE:    0.00 PKD
ROOT
HETATM    1  C   UNL     1      -9.138  11.475  65.212  1.00  0.00    -0.017 C  
HETATM    2  N   UNL     1     -10.172  11.867  64.249  1.00  0.00    -0.291 NA 
HETATM    3  C   UNL     1     -10.369  10.785  63.279  1.00  0.00    -0.071 C  
ENDROOT
BRANCH   2   4
HETATM    4  C   UNL     1     -11.451  12.192  64.901  1.00  0.00    -0.325 C  
BRANCH   4   5
HETATM    5  C   UNL     1     -11.532  13.607  65.482  1.00  0.00    -0.317 C  
BRANCH   5   6
HETATM    6  C   UNL     1     -12.406  13.712  66.740  1.00  0.00    -0.305 C  
BRANCH   6   7
HETATM    7  N   UNL     1     -11.572  13.863  67.961  1.00  0.00    -0.313 NA 
HETATM    8  C   UNL     1     -11.683  12.797  68.876  1.00  0.00    -0.326 A  
HETATM    9  C   UNL     1     -11.043  11.580  68.595  1.00  0.00    -0.291 A  
HETATM   10  C   UNL     1     -11.074  10.519  69.504  1.00  0.00    -0.320 A  
HETATM   11  C   UNL     1     -11.770  10.653  70.699  1.00  0.00    -0.454 A  
HETATM   12  C   UNL     1     -12.415  11.853  70.992  1.00  0.00    -0.390 A  
HETATM   13  C   UNL     1     -12.368  12.931  70.090  1.00  0.00    -0.249 A  
HETATM   14  C   UNL     1     -12.992  14.245  70.458  1.00  0.00    -0.259 C  
HETATM   15  C   UNL     1     -11.925  15.310  70.678  1.00  0.00    -0.386 C  
HETATM   16  C   UNL     1     -11.126  15.791  69.483  1.00  0.00    -0.306 A  
HETATM   17  C   UNL     1     -10.425  17.002  69.684  1.00  0.00    -0.099 A  
HETATM   18  C   UNL     1      -9.647  17.575  68.683  1.00  0.00    -0.303 A  
HETATM   19  C   UNL     1      -9.557  16.949  67.452  1.00  0.00    -0.241 A  
HETATM   20  C   UNL     1     -10.236  15.749  67.236  1.00  0.00    -0.268 A  
HETATM   21  C   UNL     1     -11.026  15.135  68.237  1.00  0.00    -0.276 A  
ENDBRANCH   6   7
ENDBRANCH   5   6
ENDBRANCH   4   5
ENDBRANCH   2   4
TORSDOF 4
ENDMDL
MODEL       88
REMARK 921   NORMALIZED FREE ENERGY PREDICTED BY IDOCK:   -4.56 KCAL/MOL
REMARK 922        TOTAL FREE ENERGY PREDICTED BY IDOCK:   -5.92 KCAL/MOL
REMARK 923 INTER-LIGAND FREE ENERGY PREDICTED BY IDOCK:   -5.16 KCAL/MOL
REMARK 924 INTRA-LIGAND FREE ENERGY PREDICTED BY IDOCK:   -0.76 KCAL/MOL
REMARK 927      BINDING AFFINITY PREDICTED BY RF-SCORE:    0.00 PKD
ROOT
HETATM    1  C   UNL     1     -10.531  12.498  64.397  1.00  0.00    -0.359 C  
HETATM    2  N   UNL     1     -10.660  12.441  65.856  1.00  0.00    -0.252 NA 
HETATM    3  C   UNL     1     -11.979  12.946  66.249  1.00  0.00    -0.408 C  
ENDROOT
BRANCH   2   4
HETATM    4  C   UNL     1     -10.468  11.080  66.384  1.00  0.00    -0.258 C  
BRANCH   4   5
HETATM    5  C   UNL     1     -11.216  10.787  67.687  1.00  0.00    -0.370 C  
BRANCH   5   6
HETATM    6  C   UNL     1     -10.393  11.069  68.951  1.00  0.00    -0.205 C  
BRANCH   6   7
HETATM    7  N   UNL     1      -9.941   9.806  69.591  1.00  0.00    -0.209 NA 
HETATM    8  C   UNL     1      -8.624   9.426  69.260  1.00  0.00    -0.143 A  
HETATM    9  C   UNL     1      -7.544  10.106  69.847  1.00  0.00    -0.174 A  
HETATM   10  C   UNL     1      -6.225   9.721  69.597  1.00  0.00    -0.045 A  
HETATM   11  C   UNL     1      -5.965   8.665  68.732  1.00  0.00    -0.044 A  
HETATM   12  C   UNL     1      -7.024   7.983  68.137  1.00  0.00    -0.077 A  
HETATM   13  C   UNL     1      -8.355   8.352  68.403  1.00  0.00    -0.131 A  
HETATM   14  C   UNL     1      -9.486   7.554  67.825  1.00  0.00    -0.157 C  
HETATM   15  C   UNL     1     -10.230   6.795  68.917  1.00  0.00    -0.186 C  
HETATM   16  C   UNL     1     -11.035   7.588  69.927  1.00  0.00    -0.223 A  
HETATM   17  C   UNL     1     -11.966   6.829  70.674  1.00  0.00    -0.418 A  
HETATM   18  C   UNL     1     -12.782   7.411  71.639  1.00  0.00    -0.399 A  
HETATM   19  C   UNL     1     -12.687   8.772  71.877  1.00  0.00    -0.427 A  
HETATM   20  C   UNL     1     -11.768   9.536  71.156  1.00  0.00    -0.438 A  
HETATM   21  C   UNL     1     -10.918   8.973  70.176  1.00  0.00    -0.233 A  
ENDBRANCH   6   7
ENDBRANCH   5   6
ENDBRANCH   4   5
ENDBRANCH   2   4
TORSDOF 4
ENDMDL
MODEL       89
REMARK 921   NORMALIZED FREE ENERGY PREDICTED BY IDOCK:   -4.53 KCAL/MOL
REMARK 922        TOTAL FREE ENERGY PREDICTED BY IDOCK:   -5.89 KCAL/MOL
REMARK 923 INTER-LIGAND FREE ENERGY PREDICTED BY IDOCK:   -6.19 KCAL/MOL
REMARK 924 INTRA-LIGAND FREE ENERGY PREDICTED BY IDOCK:    0.30 KCAL/MOL
REMARK 927      BINDING AFFINITY PREDICTED BY RF-SCORE:    0.00 PKD
ROOT
HETATM    1  C   UNL     1     -14.208  15.273  72.227  1.00  0.00    -0.547 C  
HETATM    2  N   UNL     1     -12.880  15.854  72.450  1.00  0.00    -0.444 NA 
HETATM    3  C   UNL     1     -12.411  15.495  73.792  1.00  0.00    -0.619 C  
ENDROOT
BRANCH   2   4
HETATM    4  C   UNL     1     -11.899  15.414  71.444  1.00  0.00    -0.384 C  
BRANCH   4   5
HETATM    5  C   UNL     1     -12.250  15.788  70.001  1.00  0.00    -0.309 C  
BRANCH   5   6
HETATM    6  C   UNL     1     -12.495  14.578  69.089  1.00  0.00     0.010 C  
BRANCH   6   7
HETATM    7  N   UNL     1     -11.512  13.496  69.358  1.00  0.00    -0.284 NA 
HETATM    8  C   UNL     1     -10.261  13.679  68.735  1.00  0.00    -0.149 A  
HETATM    9  C   UNL     1      -9.362  14.622  69.259  1.00  0.00     0.013 A  
HETATM   10  C   UNL     1      -8.088  14.790  68.711  1.00  0.00    -0.158 A  
HETATM   11  C   UNL     1      -7.704  14.033  67.610  1.00  0.00    -0.188 A  
HETATM   12  C   UNL     1      -8.586  13.097  67.074  1.00  0.00    -0.168 A  
HETATM   13  C   UNL     1      -9.860  12.909  67.637  1.00  0.00    -0.211 A  
HETATM   14  C   UNL     1     -10.765  11.836  67.104  1.00  0.00    -0.283 C  
HETATM   15  C   UNL     1     -10.935  10.714  68.121  1.00  0.00    -0.321 C  
HETATM   16  C   UNL     1     -11.696  11.007  69.399  1.00  0.00    -0.394 A  
HETATM   17  C   UNL     1     -12.118   9.864  70.115  1.00  0.00    -0.095 A  
HETATM   18  C   UNL     1     -12.829   9.965  71.307  1.00  0.00    -0.486 A  
HETATM   19  C   UNL     1     -13.138  11.218  71.809  1.00  0.00    -0.527 A  
HETATM   20  C   UNL     1     -12.723  12.359  71.120  1.00  0.00    -0.336 A  
HETATM   21  C   UNL     1     -11.990  12.289  69.913  1.00  0.00    -0.306 A  
ENDBRANCH   6   7
ENDBRANCH   5   6
ENDBRANCH   4   5
ENDBRANCH   2   4
TORSDOF 4
ENDMDL
MODEL       90
REMARK 921   NORMALIZED FREE ENERGY PREDICTED BY IDOCK:   -4.52 KCAL/MOL
REMARK 922        TOTAL FREE ENERGY PREDICTED BY IDOCK:   -5.87 KCAL/MOL
REMARK 923 INTER-LIGAND FREE ENERGY PREDICTED BY IDOCK:   -5.21 KCAL/MOL
REMARK 924 INTRA-LIGAND FREE ENERGY PREDICTED BY IDOCK:   -0.67 KCAL/MOL
REMARK 927      BINDING AFFINITY PREDICTED BY RF-SCORE:    0.00 PKD
ROOT
HETATM    1  C   UNL     1     -12.417   9.803  71.596  1.00  0.00    -0.410 C  
HETATM    2  N   UNL     1     -12.864  11.039  70.948  1.00  0.00    -0.327 NA 
HETATM    3  C   UNL     1     -13.383  11.962  71.962  1.00  0.00    -0.320 C  
ENDROOT
BRANCH   2   4
HETATM    4  C   UNL     1     -11.787  11.692  70.184  1.00  0.00    -0.344 C  
BRANCH   4   5
HETATM    5  C   UNL     1     -11.221  10.854  69.033  1.00  0.00    -0.327 C  
BRANCH   5   6
HETATM    6  C   UNL     1     -11.763  11.250  67.653  1.00  0.00    -0.134 C  
BRANCH   6   7
HETATM    7  N   UNL     1     -10.773  12.066  66.902  1.00  0.00    -0.235 NA 
HETATM    8  C   UNL     1      -9.922  11.320  66.063  1.00  0.00    -0.231 A  
HETATM    9  C   UNL     1     -10.420  10.815  64.851  1.00  0.00    -0.324 A  
HETATM   10  C   UNL     1      -9.594  10.125  63.960  1.00  0.00    -0.320 A  
HETATM   11  C   UNL     1      -8.261   9.906  64.283  1.00  0.00    -0.161 A  
HETATM   12  C   UNL     1      -7.751  10.395  65.483  1.00  0.00    -0.147 A  
HETATM   13  C   UNL     1      -8.573  11.110  66.372  1.00  0.00    -0.172 A  
HETATM   14  C   UNL     1      -7.989  11.707  67.620  1.00  0.00    -0.136 C  
HETATM   15  C   UNL     1      -7.972  13.228  67.538  1.00  0.00    -0.186 C  
HETATM   16  C   UNL     1      -9.294  13.968  67.557  1.00  0.00    -0.209 A  
HETATM   17  C   UNL     1      -9.199  15.351  67.834  1.00  0.00    -0.180 A  
HETATM   18  C   UNL     1     -10.324  16.168  67.889  1.00  0.00    -0.277 A  
HETATM   19  C   UNL     1     -11.575  15.617  67.671  1.00  0.00    -0.089 A  
HETATM   20  C   UNL     1     -11.689  14.255  67.388  1.00  0.00    -0.422 A  
HETATM   21  C   UNL     1     -10.565  13.400  67.314  1.00  0.00    -0.255 A  
ENDBRANCH   6   7
ENDBRANCH   5   6
ENDBRANCH   4   5
ENDBRANCH   2   4
TORSDOF 4
ENDMDL
MODEL       91
REMARK 921   NORMALIZED FREE ENERGY PREDICTED BY IDOCK:   -4.52 KCAL/MOL
REMARK 922        TOTAL FREE ENERGY PREDICTED BY IDOCK:   -5.87 KCAL/MOL
REMARK 923 INTER-LIGAND FREE ENERGY PREDICTED BY IDOCK:   -5.16 KCAL/MOL
REMARK 924 INTRA-LIGAND FREE ENERGY PREDICTED BY IDOCK:   -0.71 KCAL/MOL
REMARK 927      BINDING AFFINITY PREDICTED BY RF-SCORE:    0.00 PKD
ROOT
HETATM    1  C   UNL     1      -9.100   6.515  66.863  1.00  0.00    -0.138 C  
HETATM    2  N   UNL     1      -9.122   7.974  67.004  1.00  0.00    -0.139 NA 
HETATM    3  C   UNL     1      -8.603   8.590  65.779  1.00  0.00    -0.168 C  
ENDROOT
BRANCH   2   4
HETATM    4  C   UNL     1     -10.472   8.490  67.290  1.00  0.00    -0.296 C  
BRANCH   4   5
HETATM    5  C   UNL     1     -10.508   9.706  68.221  1.00  0.00    -0.259 C  
BRANCH   5   6
HETATM    6  C   UNL     1      -9.428   9.684  69.311  1.00  0.00    -0.179 C  
BRANCH   6   7
HETATM    7  N   UNL     1      -9.896   8.948  70.515  1.00  0.00    -0.187 NA 
HETATM    8  C   UNL     1      -9.040   7.907  70.929  1.00  0.00    -0.151 A  
HETATM    9  C   UNL     1      -7.843   8.224  71.591  1.00  0.00    -0.139 A  
HETATM   10  C   UNL     1      -6.997   7.223  72.075  1.00  0.00    -0.063 A  
HETATM   11  C   UNL     1      -7.324   5.887  71.878  1.00  0.00    -0.094 A  
HETATM   12  C   UNL     1      -8.505   5.555  71.218  1.00  0.00    -0.127 A  
HETATM   13  C   UNL     1      -9.371   6.559  70.750  1.00  0.00    -0.162 A  
HETATM   14  C   UNL     1     -10.681   6.187  70.120  1.00  0.00    -0.366 C  
HETATM   15  C   UNL     1     -11.848   6.593  71.011  1.00  0.00    -0.427 C  
HETATM   16  C   UNL     1     -12.128   8.070  71.207  1.00  0.00    -0.314 A  
HETATM   17  C   UNL     1     -13.404   8.369  71.737  1.00  0.00    -0.378 A  
HETATM   18  C   UNL     1     -13.813   9.678  71.973  1.00  0.00    -0.312 A  
HETATM   19  C   UNL     1     -12.952  10.722  71.680  1.00  0.00    -0.581 A  
HETATM   20  C   UNL     1     -11.684  10.446  71.163  1.00  0.00    -0.387 A  
HETATM   21  C   UNL     1     -11.235   9.127  70.922  1.00  0.00    -0.295 A  
ENDBRANCH   6   7
ENDBRANCH   5   6
ENDBRANCH   4   5
ENDBRANCH   2   4
TORSDOF 4
ENDMDL
MODEL       92
REMARK 921   NORMALIZED FREE ENERGY PREDICTED BY IDOCK:   -4.49 KCAL/MOL
REMARK 922        TOTAL FREE ENERGY PREDICTED BY IDOCK:   -5.83 KCAL/MOL
REMARK 923 INTER-LIGAND FREE ENERGY PREDICTED BY IDOCK:   -5.69 KCAL/MOL
REMARK 924 INTRA-LIGAND FREE ENERGY PREDICTED BY IDOCK:   -0.14 KCAL/MOL
REMARK 927      BINDING AFFINITY PREDICTED BY RF-SCORE:    0.00 PKD
ROOT
HETATM    1  C   UNL     1     -11.241  13.347  67.024  1.00  0.00    -0.305 C  
HETATM    2  N   UNL     1      -9.901  13.024  66.526  1.00  0.00    -0.258 NA 
HETATM    3  C   UNL     1      -8.962  14.072  66.939  1.00  0.00    -0.227 C  
ENDROOT
BRANCH   2   4
HETATM    4  C   UNL     1      -9.427  11.713  66.999  1.00  0.00    -0.182 C  
BRANCH   4   5
HETATM    5  C   UNL     1      -9.262  11.602  68.518  1.00  0.00    -0.163 C  
BRANCH   5   6
HETATM    6  C   UNL     1      -8.986  10.174  69.008  1.00  0.00    -0.167 C  
BRANCH   6   7
HETATM    7  N   UNL     1     -10.236   9.370  69.048  1.00  0.00    -0.198 NA 
HETATM    8  C   UNL     1     -11.164   9.787  70.023  1.00  0.00    -0.251 A  
HETATM    9  C   UNL     1     -11.922  10.948  69.799  1.00  0.00    -0.423 A  
HETATM   10  C   UNL     1     -12.898  11.362  70.708  1.00  0.00    -0.255 A  
HETATM   11  C   UNL     1     -13.111  10.633  71.872  1.00  0.00    -0.563 A  
HETATM   12  C   UNL     1     -12.365   9.482  72.113  1.00  0.00    -0.332 A  
HETATM   13  C   UNL     1     -11.397   9.049  71.190  1.00  0.00    -0.375 A  
HETATM   14  C   UNL     1     -10.663   7.760  71.420  1.00  0.00    -0.250 C  
HETATM   15  C   UNL     1     -11.076   6.710  70.397  1.00  0.00    -0.374 C  
HETATM   16  C   UNL     1     -10.678   6.915  68.948  1.00  0.00    -0.254 A  
HETATM   17  C   UNL     1     -10.775   5.763  68.135  1.00  0.00    -0.288 A  
HETATM   18  C   UNL     1     -10.444   5.788  66.784  1.00  0.00    -0.350 A  
HETATM   19  C   UNL     1     -10.004   6.970  66.215  1.00  0.00     0.033 A  
HETATM   20  C   UNL     1      -9.909   8.121  66.999  1.00  0.00    -0.299 A  
HETATM   21  C   UNL     1     -10.248   8.131  68.373  1.00  0.00    -0.209 A  
ENDBRANCH   6   7
ENDBRANCH   5   6
ENDBRANCH   4   5
ENDBRANCH   2   4
TORSDOF 4
ENDMDL
MODEL       93
REMARK 921   NORMALIZED FREE ENERGY PREDICTED BY IDOCK:   -4.48 KCAL/MOL
REMARK 922        TOTAL FREE ENERGY PREDICTED BY IDOCK:   -5.82 KCAL/MOL
REMARK 923 INTER-LIGAND FREE ENERGY PREDICTED BY IDOCK:   -5.73 KCAL/MOL
REMARK 924 INTRA-LIGAND FREE ENERGY PREDICTED BY IDOCK:   -0.09 KCAL/MOL
REMARK 927      BINDING AFFINITY PREDICTED BY RF-SCORE:    0.00 PKD
ROOT
HETATM    1  C   UNL     1     -13.819   9.027  71.821  1.00  0.00    -0.399 C  
HETATM    2  N   UNL     1     -12.534   9.666  71.520  1.00  0.00    -0.359 NA 
HETATM    3  C   UNL     1     -11.543   8.636  71.192  1.00  0.00    -0.281 C  
ENDROOT
BRANCH   2   4
HETATM    4  C   UNL     1     -12.634  10.634  70.415  1.00  0.00    -0.316 C  
BRANCH   4   5
HETATM    5  C   UNL     1     -11.322  10.886  69.665  1.00  0.00    -0.362 C  
BRANCH   5   6
HETATM    6  C   UNL     1     -11.354  10.444  68.196  1.00  0.00    -0.213 C  
BRANCH   6   7
HETATM    7  N   UNL     1     -10.467  11.295  67.360  1.00  0.00    -0.203 NA 
HETATM    8  C   UNL     1     -11.151  12.211  66.535  1.00  0.00    -0.307 A  
HETATM    9  C   UNL     1     -11.714  13.364  67.106  1.00  0.00    -0.424 A  
HETATM   10  C   UNL     1     -12.343  14.329  66.316  1.00  0.00    -0.399 A  
HETATM   11  C   UNL     1     -12.443  14.141  64.943  1.00  0.00    -0.419 A  
HETATM   12  C   UNL     1     -11.894  13.000  64.361  1.00  0.00    -0.443 A  
HETATM   13  C   UNL     1     -11.240  12.037  65.148  1.00  0.00    -0.368 A  
HETATM   14  C   UNL     1     -10.577  10.858  64.497  1.00  0.00    -0.335 C  
HETATM   15  C   UNL     1      -9.061  10.951  64.620  1.00  0.00    -0.189 C  
HETATM   16  C   UNL     1      -8.437  10.802  65.993  1.00  0.00    -0.169 A  
HETATM   17  C   UNL     1      -7.047  10.544  65.991  1.00  0.00    -0.137 A  
HETATM   18  C   UNL     1      -6.328  10.381  67.171  1.00  0.00    -0.067 A  
HETATM   19  C   UNL     1      -6.987  10.470  68.385  1.00  0.00    -0.066 A  
HETATM   20  C   UNL     1      -8.358  10.732  68.408  1.00  0.00    -0.132 A  
HETATM   21  C   UNL     1      -9.115  10.913  67.227  1.00  0.00    -0.141 A  
ENDBRANCH   6   7
ENDBRANCH   5   6
ENDBRANCH   4   5
ENDBRANCH   2   4
TORSDOF 4
ENDMDL
MODEL       94
REMARK 921   NORMALIZED FREE ENERGY PREDICTED BY IDOCK:   -4.48 KCAL/MOL
REMARK 922        TOTAL FREE ENERGY PREDICTED BY IDOCK:   -5.82 KCAL/MOL
REMARK 923 INTER-LIGAND FREE ENERGY PREDICTED BY IDOCK:   -5.59 KCAL/MOL
REMARK 924 INTRA-LIGAND FREE ENERGY PREDICTED BY IDOCK:   -0.23 KCAL/MOL
REMARK 927      BINDING AFFINITY PREDICTED BY RF-SCORE:    0.00 PKD
ROOT
HETATM    1  C   UNL     1      -8.170  18.595  66.746  1.00  0.00    -0.267 C  
HETATM    2  N   UNL     1      -7.491  18.027  67.914  1.00  0.00    -0.218 NA 
HETATM    3  C   UNL     1      -7.569  18.973  69.032  1.00  0.00    -0.275 C  
ENDROOT
BRANCH   2   4
HETATM    4  C   UNL     1      -8.058  16.729  68.317  1.00  0.00    -0.202 C  
BRANCH   4   5
HETATM    5  C   UNL     1      -8.571  15.868  67.159  1.00  0.00    -0.221 C  
BRANCH   5   6
HETATM    6  C   UNL     1      -8.625  14.368  67.480  1.00  0.00    -0.191 C  
BRANCH   6   7
HETATM    7  N   UNL     1      -9.997  13.827  67.287  1.00  0.00    -0.237 NA 
HETATM    8  C   UNL     1     -10.828  13.935  68.421  1.00  0.00    -0.254 A  
HETATM    9  C   UNL     1     -11.371  15.185  68.759  1.00  0.00    -0.313 A  
HETATM   10  C   UNL     1     -12.250  15.324  69.836  1.00  0.00    -0.357 A  
HETATM   11  C   UNL     1     -12.578  14.217  70.608  1.00  0.00    -0.421 A  
HETATM   12  C   UNL     1     -12.043  12.970  70.290  1.00  0.00    -0.388 A  
HETATM   13  C   UNL     1     -11.176  12.821  69.193  1.00  0.00    -0.294 A  
HETATM   14  C   UNL     1     -10.679  11.458  68.810  1.00  0.00    -0.240 C  
HETATM   15  C   UNL     1     -11.280  11.014  67.482  1.00  0.00    -0.372 C  
HETATM   16  C   UNL     1     -10.866  11.745  66.220  1.00  0.00    -0.325 A  
HETATM   17  C   UNL     1     -11.172  11.072  65.015  1.00  0.00     0.099 A  
HETATM   18  C   UNL     1     -10.855  11.612  63.772  1.00  0.00    -0.493 A  
HETATM   19  C   UNL     1     -10.218  12.840  63.708  1.00  0.00    -0.166 A  
HETATM   20  C   UNL     1      -9.915  13.523  64.887  1.00  0.00    -0.176 A  
HETATM   21  C   UNL     1     -10.234  13.006  66.164  1.00  0.00    -0.284 A  
ENDBRANCH   6   7
ENDBRANCH   5   6
ENDBRANCH   4   5
ENDBRANCH   2   4
TORSDOF 4
ENDMDL
MODEL       95
REMARK 921   NORMALIZED FREE ENERGY PREDICTED BY IDOCK:   -4.45 KCAL/MOL
REMARK 922        TOTAL FREE ENERGY PREDICTED BY IDOCK:   -5.79 KCAL/MOL
REMARK 923 INTER-LIGAND FREE ENERGY PREDICTED BY IDOCK:   -4.97 KCAL/MOL
REMARK 924 INTRA-LIGAND FREE ENERGY PREDICTED BY IDOCK:   -0.82 KCAL/MOL
REMARK 927      BINDING AFFINITY PREDICTED BY RF-SCORE:    0.00 PKD
ROOT
HETATM    1  C   UNL     1      -7.951  18.796  66.389  1.00  0.00    -0.282 C  
HETATM    2  N   UNL     1      -9.376  18.910  66.712  1.00  0.00    -0.310 NA 
HETATM    3  C   UNL     1      -9.980  19.963  65.890  1.00  0.00    -0.393 C  
ENDROOT
BRANCH   2   4
HETATM    4  C   UNL     1     -10.100  17.643  66.512  1.00  0.00    -0.350 C  
BRANCH   4   5
HETATM    5  C   UNL     1     -10.952  17.197  67.704  1.00  0.00    -0.148 C  
BRANCH   5   6
HETATM    6  C   UNL     1     -10.178  17.133  69.028  1.00  0.00    -0.315 C  
BRANCH   6   7
HETATM    7  N   UNL     1      -9.695  15.754  69.301  1.00  0.00    -0.247 NA 
HETATM    8  C   UNL     1      -8.344  15.535  68.962  1.00  0.00    -0.227 A  
HETATM    9  C   UNL     1      -7.335  16.049  69.791  1.00  0.00     0.094 A  
HETATM   10  C   UNL     1      -5.985  15.801  69.528  1.00  0.00    -0.141 A  
HETATM   11  C   UNL     1      -5.625  15.055  68.412  1.00  0.00    -0.108 A  
HETATM   12  C   UNL     1      -6.614  14.541  67.576  1.00  0.00    -0.106 A  
HETATM   13  C   UNL     1      -7.974  14.769  67.850  1.00  0.00    -0.147 A  
HETATM   14  C   UNL     1      -9.029  14.136  66.991  1.00  0.00    -0.251 C  
HETATM   15  C   UNL     1      -9.789  13.065  67.764  1.00  0.00    -0.224 C  
HETATM   16  C   UNL     1     -10.687  13.498  68.906  1.00  0.00    -0.228 A  
HETATM   17  C   UNL     1     -11.614  12.522  69.337  1.00  0.00    -0.368 A  
HETATM   18  C   UNL     1     -12.510  12.767  70.374  1.00  0.00    -0.231 A  
HETATM   19  C   UNL     1     -12.499  14.000  71.003  1.00  0.00    -0.444 A  
HETATM   20  C   UNL     1     -11.586  14.974  70.597  1.00  0.00    -0.358 A  
HETATM   21  C   UNL     1     -10.656  14.753  69.554  1.00  0.00    -0.185 A  
ENDBRANCH   6   7
ENDBRANCH   5   6
ENDBRANCH   4   5
ENDBRANCH   2   4
TORSDOF 4
ENDMDL
MODEL       96
REMARK 921   NORMALIZED FREE ENERGY PREDICTED BY IDOCK:   -4.44 KCAL/MOL
REMARK 922        TOTAL FREE ENERGY PREDICTED BY IDOCK:   -5.77 KCAL/MOL
REMARK 923 INTER-LIGAND FREE ENERGY PREDICTED BY IDOCK:   -5.84 KCAL/MOL
REMARK 924 INTRA-LIGAND FREE ENERGY PREDICTED BY IDOCK:    0.07 KCAL/MOL
REMARK 927      BINDING AFFINITY PREDICTED BY RF-SCORE:    0.00 PKD
ROOT
HETATM    1  C   UNL     1     -10.112  11.809  68.513  1.00  0.00    -0.207 C  
HETATM    2  N   UNL     1     -11.499  12.186  68.804  1.00  0.00    -0.281 NA 
HETATM    3  C   UNL     1     -12.209  11.035  69.371  1.00  0.00    -0.259 C  
ENDROOT
BRANCH   2   4
HETATM    4  C   UNL     1     -11.587  13.332  69.725  1.00  0.00    -0.227 C  
BRANCH   4   5
HETATM    5  C   UNL     1     -11.360  14.698  69.071  1.00  0.00    -0.299 C  
BRANCH   5   6
HETATM    6  C   UNL     1      -9.979  15.302  69.361  1.00  0.00    -0.255 C  
BRANCH   6   7
HETATM    7  N   UNL     1      -9.480  16.081  68.198  1.00  0.00    -0.206 NA 
HETATM    8  C   UNL     1      -8.670  17.182  68.541  1.00  0.00    -0.261 A  
HETATM    9  C   UNL     1      -7.347  16.960  68.955  1.00  0.00    -0.236 A  
HETATM   10  C   UNL     1      -6.490  18.025  69.243  1.00  0.00    -0.246 A  
HETATM   11  C   UNL     1      -6.954  19.331  69.146  1.00  0.00    -0.375 A  
HETATM   12  C   UNL     1      -8.266  19.570  68.742  1.00  0.00    -0.348 A  
HETATM   13  C   UNL     1      -9.125  18.502  68.429  1.00  0.00    -0.345 A  
HETATM   14  C   UNL     1     -10.506  18.776  67.911  1.00  0.00    -0.448 C  
HETATM   15  C   UNL     1     -10.630  18.367  66.449  1.00  0.00    -0.342 C  
HETATM   16  C   UNL     1     -10.572  16.892  66.104  1.00  0.00    -0.195 A  
HETATM   17  C   UNL     1     -11.040  16.564  64.811  1.00  0.00    -0.197 A  
HETATM   18  C   UNL     1     -11.053  15.253  64.345  1.00  0.00    -0.134 A  
HETATM   19  C   UNL     1     -10.599  14.236  65.167  1.00  0.00    -0.423 A  
HETATM   20  C   UNL     1     -10.126  14.540  66.445  1.00  0.00    -0.293 A  
HETATM   21  C   UNL     1     -10.090  15.864  66.943  1.00  0.00    -0.266 A  
ENDBRANCH   6   7
ENDBRANCH   5   6
ENDBRANCH   4   5
ENDBRANCH   2   4
TORSDOF 4
ENDMDL
MODEL       97
REMARK 921   NORMALIZED FREE ENERGY PREDICTED BY IDOCK:   -4.43 KCAL/MOL
REMARK 922        TOTAL FREE ENERGY PREDICTED BY IDOCK:   -5.76 KCAL/MOL
REMARK 923 INTER-LIGAND FREE ENERGY PREDICTED BY IDOCK:   -5.62 KCAL/MOL
REMARK 924 INTRA-LIGAND FREE ENERGY PREDICTED BY IDOCK:   -0.15 KCAL/MOL
REMARK 927      BINDING AFFINITY PREDICTED BY RF-SCORE:    0.00 PKD
ROOT
HETATM    1  C   UNL     1     -10.391  19.210  68.342  1.00  0.00    -0.327 C  
HETATM    2  N   UNL     1     -10.420  18.259  67.227  1.00  0.00    -0.392 NA 
HETATM    3  C   UNL     1      -9.135  18.295  66.522  1.00  0.00    -0.282 C  
ENDROOT
BRANCH   2   4
HETATM    4  C   UNL     1     -10.708  16.884  67.670  1.00  0.00    -0.290 C  
BRANCH   4   5
HETATM    5  C   UNL     1     -10.031  15.789  66.842  1.00  0.00    -0.247 C  
BRANCH   5   6
HETATM    6  C   UNL     1     -10.798  14.460  66.827  1.00  0.00    -0.301 C  
BRANCH   6   7
HETATM    7  N   UNL     1     -10.254  13.515  67.837  1.00  0.00    -0.241 NA 
HETATM    8  C   UNL     1      -9.046  12.893  67.461  1.00  0.00    -0.191 A  
HETATM    9  C   UNL     1      -7.851  13.627  67.509  1.00  0.00    -0.185 A  
HETATM   10  C   UNL     1      -6.623  13.033  67.206  1.00  0.00    -0.004 A  
HETATM   11  C   UNL     1      -6.578  11.697  66.823  1.00  0.00    -0.094 A  
HETATM   12  C   UNL     1      -7.756  10.955  66.765  1.00  0.00    -0.141 A  
HETATM   13  C   UNL     1      -8.991  11.544  67.091  1.00  0.00    -0.166 A  
HETATM   14  C   UNL     1     -10.238  10.710  67.110  1.00  0.00    -0.261 C  
HETATM   15  C   UNL     1     -10.756  10.537  68.532  1.00  0.00    -0.259 C  
HETATM   16  C   UNL     1     -11.310  11.750  69.252  1.00  0.00    -0.348 A  
HETATM   17  C   UNL     1     -12.082  11.459  70.400  1.00  0.00    -0.473 A  
HETATM   18  C   UNL     1     -12.662  12.464  71.169  1.00  0.00    -0.336 A  
HETATM   19  C   UNL     1     -12.484  13.787  70.803  1.00  0.00    -0.441 A  
HETATM   20  C   UNL     1     -11.719  14.095  69.676  1.00  0.00    -0.372 A  
HETATM   21  C   UNL     1     -11.108  13.097  68.881  1.00  0.00    -0.266 A  
ENDBRANCH   6   7
ENDBRANCH   5   6
ENDBRANCH   4   5
ENDBRANCH   2   4
TORSDOF 4
ENDMDL
MODEL       98
REMARK 921   NORMALIZED FREE ENERGY PREDICTED BY IDOCK:   -4.43 KCAL/MOL
REMARK 922        TOTAL FREE ENERGY PREDICTED BY IDOCK:   -5.76 KCAL/MOL
REMARK 923 INTER-LIGAND FREE ENERGY PREDICTED BY IDOCK:   -5.44 KCAL/MOL
REMARK 924 INTRA-LIGAND FREE ENERGY PREDICTED BY IDOCK:   -0.31 KCAL/MOL
REMARK 927      BINDING AFFINITY PREDICTED BY RF-SCORE:    0.00 PKD
ROOT
HETATM    1  C   UNL     1      -7.366  20.842  67.389  1.00  0.00    -0.339 C  
HETATM    2  N   UNL     1      -8.553  19.996  67.544  1.00  0.00    -0.332 NA 
HETATM    3  C   UNL     1      -9.752  20.839  67.570  1.00  0.00    -0.304 C  
ENDROOT
BRANCH   2   4
HETATM    4  C   UNL     1      -8.670  18.991  66.474  1.00  0.00    -0.322 C  
BRANCH   4   5
HETATM    5  C   UNL     1      -9.730  17.914  66.721  1.00  0.00    -0.314 C  
BRANCH   5   6
HETATM    6  C   UNL     1      -9.826  16.871  65.599  1.00  0.00    -0.036 C  
BRANCH   6   7
HETATM    7  N   UNL     1      -9.665  15.493  66.132  1.00  0.00    -0.293 NA 
HETATM    8  C   UNL     1     -10.673  14.593  65.729  1.00  0.00    -0.315 A  
HETATM    9  C   UNL     1     -10.659  14.085  64.421  1.00  0.00    -0.196 A  
HETATM   10  C   UNL     1     -11.601  13.142  64.000  1.00  0.00    -0.481 A  
HETATM   11  C   UNL     1     -12.589  12.714  64.878  1.00  0.00    -0.525 A  
HETATM   12  C   UNL     1     -12.621  13.212  66.179  1.00  0.00    -0.116 A  
HETATM   13  C   UNL     1     -11.661  14.143  66.613  1.00  0.00    -0.422 A  
HETATM   14  C   UNL     1     -11.654  14.604  68.042  1.00  0.00    -0.366 C  
HETATM   15  C   UNL     1     -10.430  14.074  68.778  1.00  0.00    -0.238 C  
HETATM   16  C   UNL     1      -9.065  14.604  68.386  1.00  0.00    -0.192 A  
HETATM   17  C   UNL     1      -8.037  14.350  69.322  1.00  0.00     0.092 A  
HETATM   18  C   UNL     1      -6.729  14.774  69.109  1.00  0.00    -0.123 A  
HETATM   19  C   UNL     1      -6.420  15.468  67.951  1.00  0.00    -0.171 A  
HETATM   20  C   UNL     1      -7.421  15.722  67.011  1.00  0.00    -0.242 A  
HETATM   21  C   UNL     1      -8.757  15.295  67.193  1.00  0.00    -0.211 A  
ENDBRANCH   6   7
ENDBRANCH   5   6
ENDBRANCH   4   5
ENDBRANCH   2   4
TORSDOF 4
ENDMDL
MODEL       99
REMARK 921   NORMALIZED FREE ENERGY PREDICTED BY IDOCK:   -4.39 KCAL/MOL
REMARK 922        TOTAL FREE ENERGY PREDICTED BY IDOCK:   -5.71 KCAL/MOL
REMARK 923 INTER-LIGAND FREE ENERGY PREDICTED BY IDOCK:   -5.49 KCAL/MOL
REMARK 924 INTRA-LIGAND FREE ENERGY PREDICTED BY IDOCK:   -0.22 KCAL/MOL
REMARK 927      BINDING AFFINITY PREDICTED BY RF-SCORE:    0.00 PKD
ROOT
HETATM    1  C   UNL     1      -6.101  11.109  67.179  1.00  0.00    -0.082 C  
HETATM    2  N   UNL     1      -6.308  11.996  68.328  1.00  0.00    -0.050 NA 
HETATM    3  C   UNL     1      -7.341  12.984  68.001  1.00  0.00    -0.123 C  
ENDROOT
BRANCH   2   4
HETATM    4  C   UNL     1      -6.689  11.258  69.544  1.00  0.00    -0.128 C  
BRANCH   4   5
HETATM    5  C   UNL     1      -7.356   9.903  69.289  1.00  0.00    -0.084 C  
BRANCH   5   6
HETATM    6  C   UNL     1      -8.426   9.534  70.325  1.00  0.00    -0.207 C  
BRANCH   6   7
HETATM    7  N   UNL     1      -9.772   9.450  69.700  1.00  0.00    -0.179 NA 
HETATM    8  C   UNL     1      -9.775   9.622  68.301  1.00  0.00    -0.146 A  
HETATM    9  C   UNL     1      -9.331   8.574  67.479  1.00  0.00    -0.169 A  
HETATM   10  C   UNL     1      -9.377   8.678  66.086  1.00  0.00    -0.291 A  
HETATM   11  C   UNL     1      -9.843   9.846  65.495  1.00  0.00    -0.381 A  
HETATM   12  C   UNL     1     -10.282  10.898  66.297  1.00  0.00    -0.300 A  
HETATM   13  C   UNL     1     -10.260  10.789  67.698  1.00  0.00    -0.221 A  
HETATM   14  C   UNL     1     -10.817  11.894  68.547  1.00  0.00    -0.257 C  
HETATM   15  C   UNL     1     -12.095  11.450  69.247  1.00  0.00    -0.356 C  
HETATM   16  C   UNL     1     -11.997  10.392  70.328  1.00  0.00    -0.387 A  
HETATM   17  C   UNL     1     -13.132  10.288  71.164  1.00  0.00    -0.481 A  
HETATM   18  C   UNL     1     -13.196   9.366  72.205  1.00  0.00    -0.541 A  
HETATM   19  C   UNL     1     -12.119   8.528  72.435  1.00  0.00    -0.436 A  
HETATM   20  C   UNL     1     -10.992   8.610  71.616  1.00  0.00    -0.378 A  
HETATM   21  C   UNL     1     -10.901   9.529  70.544  1.00  0.00    -0.292 A  
ENDBRANCH   6   7
ENDBRANCH   5   6
ENDBRANCH   4   5
ENDBRANCH   2   4
TORSDOF 4
ENDMDL
MODEL      100
REMARK 921   NORMALIZED FREE ENERGY PREDICTED BY IDOCK:   -4.38 KCAL/MOL
REMARK 922        TOTAL FREE ENERGY PREDICTED BY IDOCK:   -5.70 KCAL/MOL
REMARK 923 INTER-LIGAND FREE ENERGY PREDICTED BY IDOCK:   -4.95 KCAL/MOL
REMARK 924 INTRA-LIGAND FREE ENERGY PREDICTED BY IDOCK:   -0.75 KCAL/MOL
REMARK 927      BINDING AFFINITY PREDICTED BY RF-SCORE:    0.00 PKD
ROOT
HETATM    1  C   UNL     1      -9.749  10.957  65.156  1.00  0.00    -0.262 C  
HETATM    2  N   UNL     1      -9.765  12.027  64.154  1.00  0.00    -0.154 NA 
HETATM    3  C   UNL     1      -9.775  11.439  62.811  1.00  0.00    -0.219 C  
ENDROOT
BRANCH   2   4
HETATM    4  C   UNL     1     -10.919  12.928  64.314  1.00  0.00    -0.388 C  
BRANCH   4   5
HETATM    5  C   UNL     1     -10.582  14.301  64.903  1.00  0.00    -0.452 C  
BRANCH   5   6
HETATM    6  C   UNL     1     -11.275  14.586  66.243  1.00  0.00    -0.342 C  
BRANCH   6   7
HETATM    7  N   UNL     1     -10.283  14.721  67.342  1.00  0.00    -0.236 NA 
HETATM    8  C   UNL     1      -9.894  16.049  67.614  1.00  0.00    -0.235 A  
HETATM    9  C   UNL     1     -10.773  16.895  68.308  1.00  0.00    -0.377 A  
HETATM   10  C   UNL     1     -10.403  18.197  68.654  1.00  0.00    -0.315 A  
HETATM   11  C   UNL     1      -9.154  18.681  68.285  1.00  0.00    -0.347 A  
HETATM   12  C   UNL     1      -8.271  17.857  67.591  1.00  0.00    -0.232 A  
HETATM   13  C   UNL     1      -8.630  16.538  67.261  1.00  0.00    -0.202 A  
HETATM   14  C   UNL     1      -7.637  15.634  66.591  1.00  0.00     0.007 C  
HETATM   15  C   UNL     1      -7.196  14.520  67.531  1.00  0.00    -0.210 C  
HETATM   16  C   UNL     1      -8.208  13.459  67.919  1.00  0.00    -0.162 A  
HETATM   17  C   UNL     1      -7.655  12.289  68.488  1.00  0.00    -0.118 A  
HETATM   18  C   UNL     1      -8.451  11.223  68.894  1.00  0.00    -0.062 A  
HETATM   19  C   UNL     1      -9.824  11.304  68.738  1.00  0.00    -0.194 A  
HETATM   20  C   UNL     1     -10.390  12.454  68.186  1.00  0.00    -0.231 A  
HETATM   21  C   UNL     1      -9.609  13.559  67.773  1.00  0.00    -0.219 A  
ENDBRANCH   6   7
ENDBRANCH   5   6
ENDBRANCH   4   5
ENDBRANCH   2   4
TORSDOF 4
ENDMDL
MODEL      101
REMARK 921   NORMALIZED FREE ENERGY PREDICTED BY IDOCK:   -4.36 KCAL/MOL
REMARK 922        TOTAL FREE ENERGY PREDICTED BY IDOCK:   -5.68 KCAL/MOL
REMARK 923 INTER-LIGAND FREE ENERGY PREDICTED BY IDOCK:   -5.04 KCAL/MOL
REMARK 924 INTRA-LIGAND FREE ENERGY PREDICTED BY IDOCK:   -0.64 KCAL/MOL
REMARK 927      BINDING AFFINITY PREDICTED BY RF-SCORE:    0.00 PKD
ROOT
HETATM    1  C   UNL     1      -8.412  17.690  66.040  1.00  0.00    -0.043 C  
HETATM    2  N   UNL     1      -9.823  17.499  66.390  1.00  0.00    -0.302 NA 
HETATM    3  C   UNL     1     -10.507  18.796  66.382  1.00  0.00    -0.429 C  
ENDROOT
BRANCH   2   4
HETATM    4  C   UNL     1     -10.506  16.568  65.476  1.00  0.00    -0.301 C  
BRANCH   4   5
HETATM    5  C   UNL     1     -10.028  15.116  65.567  1.00  0.00    -0.384 C  
BRANCH   5   6
HETATM    6  C   UNL     1     -10.974  14.201  66.357  1.00  0.00    -0.311 C  
BRANCH   6   7
HETATM    7  N   UNL     1     -10.365  13.787  67.649  1.00  0.00    -0.237 NA 
HETATM    8  C   UNL     1     -11.016  14.301  68.789  1.00  0.00    -0.255 A  
HETATM    9  C   UNL     1     -12.240  13.743  69.191  1.00  0.00    -0.289 A  
HETATM   10  C   UNL     1     -12.887  14.178  70.351  1.00  0.00    -0.256 A  
HETATM   11  C   UNL     1     -12.330  15.199  71.111  1.00  0.00    -0.404 A  
HETATM   12  C   UNL     1     -11.118  15.767  70.723  1.00  0.00    -0.371 A  
HETATM   13  C   UNL     1     -10.452  15.317  69.570  1.00  0.00    -0.265 A  
HETATM   14  C   UNL     1      -9.106  15.876  69.213  1.00  0.00    -0.253 C  
HETATM   15  C   UNL     1      -8.017  14.824  69.385  1.00  0.00    -0.065 C  
HETATM   16  C   UNL     1      -8.002  13.639  68.441  1.00  0.00    -0.147 A  
HETATM   17  C   UNL     1      -6.792  12.908  68.422  1.00  0.00    -0.096 A  
HETATM   18  C   UNL     1      -6.620  11.794  67.606  1.00  0.00    -0.085 A  
HETATM   19  C   UNL     1      -7.657  11.386  66.785  1.00  0.00    -0.143 A  
HETATM   20  C   UNL     1      -8.863  12.090  66.796  1.00  0.00    -0.198 A  
HETATM   21  C   UNL     1      -9.073  13.220  67.621  1.00  0.00    -0.204 A  
ENDBRANCH   6   7
ENDBRANCH   5   6
ENDBRANCH   4   5
ENDBRANCH   2   4
TORSDOF 4
ENDMDL
MODEL      102
REMARK 921   NORMALIZED FREE ENERGY PREDICTED BY IDOCK:   -4.36 KCAL/MOL
REMARK 922        TOTAL FREE ENERGY PREDICTED BY IDOCK:   -5.68 KCAL/MOL
REMARK 923 INTER-LIGAND FREE ENERGY PREDICTED BY IDOCK:   -5.03 KCAL/MOL
REMARK 924 INTRA-LIGAND FREE ENERGY PREDICTED BY IDOCK:   -0.64 KCAL/MOL
REMARK 927      BINDING AFFINITY PREDICTED BY RF-SCORE:    0.00 PKD
ROOT
HETATM    1  C   UNL     1      -8.907   3.654  67.644  1.00  0.00    -0.121 C  
HETATM    2  N   UNL     1      -9.433   4.701  66.764  1.00  0.00    -0.149 NA 
HETATM    3  C   UNL     1      -9.508   4.192  65.391  1.00  0.00    -0.173 C  
ENDROOT
BRANCH   2   4
HETATM    4  C   UNL     1     -10.757   5.181  67.192  1.00  0.00     0.014 C  
BRANCH   4   5
HETATM    5  C   UNL     1     -10.735   6.473  68.016  1.00  0.00    -0.351 C  
BRANCH   5   6
HETATM    6  C   UNL     1     -11.409   6.344  69.389  1.00  0.00    -0.377 C  
BRANCH   6   7
HETATM    7  N   UNL     1     -10.759   7.228  70.391  1.00  0.00    -0.230 NA 
HETATM    8  C   UNL     1     -11.574   8.281  70.852  1.00  0.00    -0.262 A  
HETATM    9  C   UNL     1     -12.602   8.005  71.767  1.00  0.00    -0.353 A  
HETATM   10  C   UNL     1     -13.392   9.028  72.299  1.00  0.00    -0.523 A  
HETATM   11  C   UNL     1     -13.181  10.342  71.900  1.00  0.00    -0.535 A  
HETATM   12  C   UNL     1     -12.169  10.633  70.988  1.00  0.00    -0.498 A  
HETATM   13  C   UNL     1     -11.357   9.610  70.468  1.00  0.00    -0.360 A  
HETATM   14  C   UNL     1     -10.215   9.949  69.555  1.00  0.00    -0.243 C  
HETATM   15  C   UNL     1      -8.878   9.686  70.237  1.00  0.00    -0.253 C  
HETATM   16  C   UNL     1      -8.486   8.251  70.530  1.00  0.00    -0.129 A  
HETATM   17  C   UNL     1      -7.117   8.057  70.827  1.00  0.00    -0.048 A  
HETATM   18  C   UNL     1      -6.600   6.798  71.116  1.00  0.00    -0.053 A  
HETATM   19  C   UNL     1      -7.444   5.700  71.112  1.00  0.00    -0.090 A  
HETATM   20  C   UNL     1      -8.800   5.873  70.830  1.00  0.00    -0.140 A  
HETATM   21  C   UNL     1      -9.358   7.141  70.542  1.00  0.00    -0.158 A  
ENDBRANCH   6   7
ENDBRANCH   5   6
ENDBRANCH   4   5
ENDBRANCH   2   4
TORSDOF 4
ENDMDL
MODEL      103
REMARK 921   NORMALIZED FREE ENERGY PREDICTED BY IDOCK:   -4.35 KCAL/MOL
REMARK 922        TOTAL FREE ENERGY PREDICTED BY IDOCK:   -5.67 KCAL/MOL
REMARK 923 INTER-LIGAND FREE ENERGY PREDICTED BY IDOCK:   -4.73 KCAL/MOL
REMARK 924 INTRA-LIGAND FREE ENERGY PREDICTED BY IDOCK:   -0.93 KCAL/MOL
REMARK 927      BINDING AFFINITY PREDICTED BY RF-SCORE:    0.00 PKD
ROOT
HETATM    1  C   UNL     1     -11.690  15.441  64.319  1.00  0.00    -0.206 C  
HETATM    2  N   UNL     1     -11.735  14.081  64.864  1.00  0.00    -0.361 NA 
HETATM    3  C   UNL     1     -13.084  13.803  65.368  1.00  0.00    -0.164 C  
ENDROOT
BRANCH   2   4
HETATM    4  C   UNL     1     -11.353  13.064  63.870  1.00  0.00    -0.410 C  
BRANCH   4   5
HETATM    5  C   UNL     1     -10.131  12.223  64.251  1.00  0.00    -0.311 C  
BRANCH   5   6
HETATM    6  C   UNL     1     -10.435  11.115  65.269  1.00  0.00    -0.263 C  
BRANCH   6   7
HETATM    7  N   UNL     1      -9.684  11.328  66.534  1.00  0.00    -0.198 NA 
HETATM    8  C   UNL     1     -10.429  11.954  67.554  1.00  0.00    -0.209 A  
HETATM    9  C   UNL     1     -11.393  11.213  68.255  1.00  0.00    -0.365 A  
HETATM   10  C   UNL     1     -12.108  11.776  69.315  1.00  0.00    -0.292 A  
HETATM   11  C   UNL     1     -11.887  13.101  69.672  1.00  0.00    -0.390 A  
HETATM   12  C   UNL     1     -10.938  13.852  68.983  1.00  0.00    -0.281 A  
HETATM   13  C   UNL     1     -10.199  13.283  67.930  1.00  0.00    -0.233 A  
HETATM   14  C   UNL     1      -9.119  14.077  67.256  1.00  0.00    -0.224 C  
HETATM   15  C   UNL     1      -7.744  13.507  67.579  1.00  0.00    -0.182 C  
HETATM   16  C   UNL     1      -7.376  12.147  67.020  1.00  0.00    -0.072 A  
HETATM   17  C   UNL     1      -5.996  11.843  67.054  1.00  0.00    -0.153 A  
HETATM   18  C   UNL     1      -5.498  10.634  66.576  1.00  0.00    -0.070 A  
HETATM   19  C   UNL     1      -6.374   9.700  66.049  1.00  0.00    -0.073 A  
HETATM   20  C   UNL     1      -7.741   9.979  66.014  1.00  0.00    -0.110 A  
HETATM   21  C   UNL     1      -8.279  11.193  66.501  1.00  0.00    -0.167 A  
ENDBRANCH   6   7
ENDBRANCH   5   6
ENDBRANCH   4   5
ENDBRANCH   2   4
TORSDOF 4
ENDMDL
MODEL      104
REMARK 921   NORMALIZED FREE ENERGY PREDICTED BY IDOCK:   -4.28 KCAL/MOL
REMARK 922        TOTAL FREE ENERGY PREDICTED BY IDOCK:   -5.58 KCAL/MOL
REMARK 923 INTER-LIGAND FREE ENERGY PREDICTED BY IDOCK:   -4.90 KCAL/MOL
REMARK 924 INTRA-LIGAND FREE ENERGY PREDICTED BY IDOCK:   -0.68 KCAL/MOL
REMARK 927      BINDING AFFINITY PREDICTED BY RF-SCORE:    0.00 PKD
ROOT
HETATM    1  C   UNL     1      -5.373   9.422  67.825  1.00  0.00    -0.037 C  
HETATM    2  N   UNL     1      -6.156  10.481  67.181  1.00  0.00    -0.054 NA 
HETATM    3  C   UNL     1      -5.323  11.677  67.023  1.00  0.00    -0.116 C  
ENDROOT
BRANCH   2   4
HETATM    4  C   UNL     1      -6.690  10.067  65.873  1.00  0.00    -0.103 C  
BRANCH   4   5
HETATM    5  C   UNL     1      -7.801   9.015  65.938  1.00  0.00    -0.102 C  
BRANCH   5   6
HETATM    6  C   UNL     1      -9.160   9.517  65.431  1.00  0.00    -0.221 C  
BRANCH   6   7
HETATM    7  N   UNL     1     -10.111   9.718  66.556  1.00  0.00    -0.236 NA 
HETATM    8  C   UNL     1     -10.447  11.065  66.799  1.00  0.00    -0.251 A  
HETATM    9  C   UNL     1     -11.338  11.719  65.933  1.00  0.00    -0.324 A  
HETATM   10  C   UNL     1     -11.747  13.033  66.172  1.00  0.00    -0.445 A  
HETATM   11  C   UNL     1     -11.248  13.723  67.270  1.00  0.00    -0.329 A  
HETATM   12  C   UNL     1     -10.359  13.091  68.137  1.00  0.00    -0.244 A  
HETATM   13  C   UNL     1      -9.962  11.761  67.913  1.00  0.00    -0.187 A  
HETATM   14  C   UNL     1      -9.073  11.066  68.902  1.00  0.00    -0.132 C  
HETATM   15  C   UNL     1      -9.831   9.964  69.632  1.00  0.00    -0.255 C  
HETATM   16  C   UNL     1     -10.260   8.740  68.848  1.00  0.00    -0.221 A  
HETATM   17  C   UNL     1     -10.630   7.627  69.637  1.00  0.00    -0.243 A  
HETATM   18  C   UNL     1     -11.046   6.428  69.066  1.00  0.00    -0.424 A  
HETATM   19  C   UNL     1     -11.098   6.314  67.687  1.00  0.00    -0.368 A  
HETATM   20  C   UNL     1     -10.745   7.405  66.891  1.00  0.00    -0.324 A  
HETATM   21  C   UNL     1     -10.328   8.640  67.441  1.00  0.00    -0.284 A  
ENDBRANCH   6   7
ENDBRANCH   5   6
ENDBRANCH   4   5
ENDBRANCH   2   4
TORSDOF 4
ENDMDL
MODEL      105
REMARK 921   NORMALIZED FREE ENERGY PREDICTED BY IDOCK:   -4.28 KCAL/MOL
REMARK 922        TOTAL FREE ENERGY PREDICTED BY IDOCK:   -5.57 KCAL/MOL
REMARK 923 INTER-LIGAND FREE ENERGY PREDICTED BY IDOCK:   -5.13 KCAL/MOL
REMARK 924 INTRA-LIGAND FREE ENERGY PREDICTED BY IDOCK:   -0.44 KCAL/MOL
REMARK 927      BINDING AFFINITY PREDICTED BY RF-SCORE:    0.00 PKD
ROOT
HETATM    1  C   UNL     1     -10.005  11.357  64.262  1.00  0.00    -0.283 C  
HETATM    2  N   UNL     1     -11.100  12.328  64.357  1.00  0.00    -0.311 NA 
HETATM    3  C   UNL     1     -12.145  11.980  63.390  1.00  0.00    -0.493 C  
ENDROOT
BRANCH   2   4
HETATM    4  C   UNL     1     -11.674  12.394  65.711  1.00  0.00    -0.414 C  
BRANCH   4   5
HETATM    5  C   UNL     1     -11.062  13.470  66.613  1.00  0.00    -0.309 C  
BRANCH   5   6
HETATM    6  C   UNL     1     -12.088  14.463  67.176  1.00  0.00    -0.333 C  
BRANCH   6   7
HETATM    7  N   UNL     1     -11.445  15.430  68.105  1.00  0.00    -0.346 NA 
HETATM    8  C   UNL     1     -10.351  16.126  67.553  1.00  0.00    -0.286 A  
HETATM    9  C   UNL     1     -10.586  17.165  66.640  1.00  0.00    -0.179 A  
HETATM   10  C   UNL     1      -9.535  17.923  66.118  1.00  0.00    -0.169 A  
HETATM   11  C   UNL     1      -8.226  17.632  66.483  1.00  0.00    -0.307 A  
HETATM   12  C   UNL     1      -7.974  16.600  67.385  1.00  0.00    -0.186 A  
HETATM   13  C   UNL     1      -9.031  15.850  67.930  1.00  0.00    -0.181 A  
HETATM   14  C   UNL     1      -8.751  14.801  68.966  1.00  0.00    -0.139 C  
HETATM   15  C   UNL     1      -9.295  15.222  70.326  1.00  0.00     0.543 C  
HETATM   16  C   UNL     1     -10.797  15.297  70.512  1.00  0.00    -0.287 A  
HETATM   17  C   UNL     1     -11.229  15.341  71.857  1.00  0.00    -0.350 A  
HETATM   18  C   UNL     1     -12.577  15.410  72.194  1.00  0.00    -0.449 A  
HETATM   19  C   UNL     1     -13.528  15.432  71.188  1.00  0.00    -0.565 A  
HETATM   20  C   UNL     1     -13.121  15.397  69.853  1.00  0.00     0.254 A  
HETATM   21  C   UNL     1     -11.758  15.338  69.478  1.00  0.00    -0.339 A  
ENDBRANCH   6   7
ENDBRANCH   5   6
ENDBRANCH   4   5
ENDBRANCH   2   4
TORSDOF 4
ENDMDL
MODEL      106
REMARK 921   NORMALIZED FREE ENERGY PREDICTED BY IDOCK:   -4.27 KCAL/MOL
REMARK 922        TOTAL FREE ENERGY PREDICTED BY IDOCK:   -5.56 KCAL/MOL
REMARK 923 INTER-LIGAND FREE ENERGY PREDICTED BY IDOCK:   -4.67 KCAL/MOL
REMARK 924 INTRA-LIGAND FREE ENERGY PREDICTED BY IDOCK:   -0.89 KCAL/MOL
REMARK 927      BINDING AFFINITY PREDICTED BY RF-SCORE:    0.00 PKD
ROOT
HETATM    1  C   UNL     1      -8.659   5.682  68.213  1.00  0.00    -0.107 C  
HETATM    2  N   UNL     1     -10.116   5.541  68.304  1.00  0.00    -0.162 NA 
HETATM    3  C   UNL     1     -10.511   5.467  69.714  1.00  0.00    -0.319 C  
ENDROOT
BRANCH   2   4
HETATM    4  C   UNL     1     -10.828   6.647  67.642  1.00  0.00    -0.315 C  
BRANCH   4   5
HETATM    5  C   UNL     1      -9.995   7.917  67.443  1.00  0.00    -0.261 C  
BRANCH   5   6
HETATM    6  C   UNL     1     -10.749   9.211  67.779  1.00  0.00    -0.179 C  
BRANCH   6   7
HETATM    7  N   UNL     1     -10.200   9.849  69.004  1.00  0.00    -0.189 NA 
HETATM    8  C   UNL     1      -9.321  10.923  68.756  1.00  0.00    -0.185 A  
HETATM    9  C   UNL     1      -9.845  12.161  68.350  1.00  0.00    -0.200 A  
HETATM   10  C   UNL     1      -9.016  13.268  68.155  1.00  0.00    -0.195 A  
HETATM   11  C   UNL     1      -7.644  13.145  68.338  1.00  0.00    -0.133 A  
HETATM   12  C   UNL     1      -7.107  11.923  68.736  1.00  0.00    -0.111 A  
HETATM   13  C   UNL     1      -7.940  10.812  68.956  1.00  0.00    -0.137 A  
HETATM   14  C   UNL     1      -7.358   9.527  69.468  1.00  0.00    -0.077 C  
HETATM   15  C   UNL     1      -7.819   9.253  70.895  1.00  0.00    -0.148 C  
HETATM   16  C   UNL     1      -9.280   8.925  71.132  1.00  0.00    -0.324 A  
HETATM   17  C   UNL     1      -9.563   8.344  72.390  1.00  0.00    -0.373 A  
HETATM   18  C   UNL     1     -10.855   7.984  72.758  1.00  0.00    -0.438 A  
HETATM   19  C   UNL     1     -11.897   8.195  71.872  1.00  0.00    -0.366 A  
HETATM   20  C   UNL     1     -11.639   8.775  70.628  1.00  0.00    -0.236 A  
HETATM   21  C   UNL     1     -10.339   9.161  70.228  1.00  0.00    -0.214 A  
ENDBRANCH   6   7
ENDBRANCH   5   6
ENDBRANCH   4   5
ENDBRANCH   2   4
TORSDOF 4
ENDMDL
MODEL      107
REMARK 921   NORMALIZED FREE ENERGY PREDICTED BY IDOCK:   -4.26 KCAL/MOL
REMARK 922        TOTAL FREE ENERGY PREDICTED BY IDOCK:   -5.55 KCAL/MOL
REMARK 923 INTER-LIGAND FREE ENERGY PREDICTED BY IDOCK:   -5.19 KCAL/MOL
REMARK 924 INTRA-LIGAND FREE ENERGY PREDICTED BY IDOCK:   -0.36 KCAL/MOL
REMARK 927      BINDING AFFINITY PREDICTED BY RF-SCORE:    0.00 PKD
ROOT
HETATM    1  C   UNL     1      -5.177  11.608  67.892  1.00  0.00    -0.048 C  
HETATM    2  N   UNL     1      -5.879  12.413  68.896  1.00  0.00    -0.063 NA 
HETATM    3  C   UNL     1      -5.476  13.817  68.764  1.00  0.00    -0.081 C  
ENDROOT
BRANCH   2   4
HETATM    4  C   UNL     1      -7.343  12.301  68.780  1.00  0.00    -0.083 C  
BRANCH   4   5
HETATM    5  C   UNL     1      -8.016  13.455  68.031  1.00  0.00    -0.148 C  
BRANCH   5   6
HETATM    6  C   UNL     1      -8.299  13.151  66.553  1.00  0.00     0.372 C  
BRANCH   6   7
HETATM    7  N   UNL     1      -9.424  13.977  66.041  1.00  0.00    -0.196 NA 
HETATM    8  C   UNL     1      -9.465  15.288  66.559  1.00  0.00    -0.283 A  
HETATM    9  C   UNL     1      -8.553  16.243  66.084  1.00  0.00    -0.342 A  
HETATM   10  C   UNL     1      -8.599  17.569  66.522  1.00  0.00    -0.293 A  
HETATM   11  C   UNL     1      -9.546  17.952  67.465  1.00  0.00    -0.269 A  
HETATM   12  C   UNL     1     -10.456  17.015  67.951  1.00  0.00    -0.354 A  
HETATM   13  C   UNL     1     -10.427  15.685  67.495  1.00  0.00    -0.285 A  
HETATM   14  C   UNL     1     -11.468  14.710  67.961  1.00  0.00    -0.346 C  
HETATM   15  C   UNL     1     -12.403  14.328  66.820  1.00  0.00    -0.280 C  
HETATM   16  C   UNL     1     -11.848  13.503  65.676  1.00  0.00    -0.397 A  
HETATM   17  C   UNL     1     -12.823  12.894  64.853  1.00  0.00    -0.370 A  
HETATM   18  C   UNL     1     -12.474  12.104  63.762  1.00  0.00    -0.620 A  
HETATM   19  C   UNL     1     -11.136  11.902  63.471  1.00  0.00    -0.506 A  
HETATM   20  C   UNL     1     -10.158  12.502  64.267  1.00  0.00    -0.298 A  
HETATM   21  C   UNL     1     -10.480  13.318  65.376  1.00  0.00    -0.297 A  
ENDBRANCH   6   7
ENDBRANCH   5   6
ENDBRANCH   4   5
ENDBRANCH   2   4
TORSDOF 4
ENDMDL
MODEL      108
REMARK 921   NORMALIZED FREE ENERGY PREDICTED BY IDOCK:   -4.24 KCAL/MOL
REMARK 922        TOTAL FREE ENERGY PREDICTED BY IDOCK:   -5.53 KCAL/MOL
REMARK 923 INTER-LIGAND FREE ENERGY PREDICTED BY IDOCK:   -5.24 KCAL/MOL
REMARK 924 INTRA-LIGAND FREE ENERGY PREDICTED BY IDOCK:   -0.29 KCAL/MOL
REMARK 927      BINDING AFFINITY PREDICTED BY RF-SCORE:    0.00 PKD
ROOT
HETATM    1  C   UNL     1     -13.395   9.557  71.957  1.00  0.00    -0.452 C  
HETATM    2  N   UNL     1     -12.377   8.515  72.124  1.00  0.00    -0.359 NA 
HETATM    3  C   UNL     1     -12.724   7.358  71.293  1.00  0.00    -0.331 C  
ENDROOT
BRANCH   2   4
HETATM    4  C   UNL     1     -11.026   8.990  71.782  1.00  0.00    -0.372 C  
BRANCH   4   5
HETATM    5  C   UNL     1     -10.694   8.951  70.287  1.00  0.00    -0.248 C  
BRANCH   5   6
HETATM    6  C   UNL     1      -9.578   9.921  69.876  1.00  0.00    -0.227 C  
BRANCH   6   7
HETATM    7  N   UNL     1      -9.967  10.711  68.678  1.00  0.00    -0.173 NA 
HETATM    8  C   UNL     1      -9.432  10.230  67.466  1.00  0.00    -0.152 A  
HETATM    9  C   UNL     1      -9.980   9.078  66.881  1.00  0.00    -0.313 A  
HETATM   10  C   UNL     1      -9.523   8.604  65.649  1.00  0.00    -0.114 A  
HETATM   11  C   UNL     1      -8.488   9.264  64.996  1.00  0.00    -0.178 A  
HETATM   12  C   UNL     1      -7.929  10.406  65.565  1.00  0.00    -0.153 A  
HETATM   13  C   UNL     1      -8.402  10.899  66.794  1.00  0.00    -0.138 A  
HETATM   14  C   UNL     1      -7.851  12.179  67.351  1.00  0.00    -0.168 C  
HETATM   15  C   UNL     1      -8.900  13.283  67.319  1.00  0.00    -0.216 C  
HETATM   16  C   UNL     1     -10.104  13.163  68.233  1.00  0.00    -0.247 A  
HETATM   17  C   UNL     1     -10.836  14.359  68.412  1.00  0.00    -0.256 A  
HETATM   18  C   UNL     1     -11.965  14.414  69.223  1.00  0.00    -0.362 A  
HETATM   19  C   UNL     1     -12.387  13.270  69.878  1.00  0.00    -0.228 A  
HETATM   20  C   UNL     1     -11.681  12.077  69.707  1.00  0.00    -0.390 A  
HETATM   21  C   UNL     1     -10.537  11.986  68.882  1.00  0.00    -0.159 A  
ENDBRANCH   6   7
ENDBRANCH   5   6
ENDBRANCH   4   5
ENDBRANCH   2   4
TORSDOF 4
ENDMDL
MODEL      109
REMARK 921   NORMALIZED FREE ENERGY PREDICTED BY IDOCK:   -4.23 KCAL/MOL
REMARK 922        TOTAL FREE ENERGY PREDICTED BY IDOCK:   -5.51 KCAL/MOL
REMARK 923 INTER-LIGAND FREE ENERGY PREDICTED BY IDOCK:   -5.22 KCAL/MOL
REMARK 924 INTRA-LIGAND FREE ENERGY PREDICTED BY IDOCK:   -0.29 KCAL/MOL
REMARK 927      BINDING AFFINITY PREDICTED BY RF-SCORE:    0.00 PKD
ROOT
HETATM    1  C   UNL     1     -10.934  13.790  64.462  1.00  0.00    -0.391 C  
HETATM    2  N   UNL     1     -11.327  12.380  64.391  1.00  0.00    -0.322 NA 
HETATM    3  C   UNL     1     -12.488  12.241  63.507  1.00  0.00    -0.534 C  
ENDROOT
BRANCH   2   4
HETATM    4  C   UNL     1     -10.232  11.516  63.918  1.00  0.00    -0.362 C  
BRANCH   4   5
HETATM    5  C   UNL     1      -9.908  10.333  64.835  1.00  0.00    -0.404 C  
BRANCH   5   6
HETATM    6  C   UNL     1     -10.201  10.601  66.318  1.00  0.00    -0.245 C  
BRANCH   6   7
HETATM    7  N   UNL     1      -9.326   9.777  67.194  1.00  0.00    -0.141 NA 
HETATM    8  C   UNL     1      -9.920   8.583  67.650  1.00  0.00    -0.198 A  
HETATM    9  C   UNL     1     -10.051   7.499  66.768  1.00  0.00    -0.313 A  
HETATM   10  C   UNL     1     -10.575   6.277  67.195  1.00  0.00    -0.380 A  
HETATM   11  C   UNL     1     -11.002   6.130  68.510  1.00  0.00    -0.404 A  
HETATM   12  C   UNL     1     -10.885   7.197  69.397  1.00  0.00    -0.225 A  
HETATM   13  C   UNL     1     -10.337   8.422  68.977  1.00  0.00    -0.231 A  
HETATM   14  C   UNL     1     -10.135   9.533  69.966  1.00  0.00    -0.279 C  
HETATM   15  C   UNL     1      -8.652   9.773  70.219  1.00  0.00    -0.169 C  
HETATM   16  C   UNL     1      -7.811  10.345  69.095  1.00  0.00    -0.134 A  
HETATM   17  C   UNL     1      -6.559  10.867  69.495  1.00  0.00    -0.109 A  
HETATM   18  C   UNL     1      -5.672  11.428  68.581  1.00  0.00    -0.042 A  
HETATM   19  C   UNL     1      -6.021  11.484  67.243  1.00  0.00    -0.100 A  
HETATM   20  C   UNL     1      -7.250  10.967  66.827  1.00  0.00    -0.134 A  
HETATM   21  C   UNL     1      -8.168  10.380  67.729  1.00  0.00    -0.110 A  
ENDBRANCH   6   7
ENDBRANCH   5   6
ENDBRANCH   4   5
ENDBRANCH   2   4
TORSDOF 4
ENDMDL
MODEL      110
REMARK 921   NORMALIZED FREE ENERGY PREDICTED BY IDOCK:   -4.22 KCAL/MOL
REMARK 922        TOTAL FREE ENERGY PREDICTED BY IDOCK:   -5.50 KCAL/MOL
REMARK 923 INTER-LIGAND FREE ENERGY PREDICTED BY IDOCK:   -4.74 KCAL/MOL
REMARK 924 INTRA-LIGAND FREE ENERGY PREDICTED BY IDOCK:   -0.76 KCAL/MOL
REMARK 927      BINDING AFFINITY PREDICTED BY RF-SCORE:    0.00 PKD
ROOT
HETATM    1  C   UNL     1     -10.419  15.328  67.136  1.00  0.00    -0.280 C  
HETATM    2  N   UNL     1     -11.263  14.503  66.266  1.00  0.00    -0.336 NA 
HETATM    3  C   UNL     1     -10.439  13.906  65.211  1.00  0.00    -0.371 C  
ENDROOT
BRANCH   2   4
HETATM    4  C   UNL     1     -11.968  13.445  67.009  1.00  0.00    -0.379 C  
BRANCH   4   5
HETATM    5  C   UNL     1     -11.053  12.460  67.743  1.00  0.00    -0.292 C  
BRANCH   5   6
HETATM    6  C   UNL     1     -11.478  10.993  67.597  1.00  0.00    -0.224 C  
BRANCH   6   7
HETATM    7  N   UNL     1     -10.294  10.097  67.520  1.00  0.00    -0.214 NA 
HETATM    8  C   UNL     1      -9.973   9.453  68.732  1.00  0.00    -0.179 A  
HETATM    9  C   UNL     1     -10.758   8.373  69.167  1.00  0.00    -0.123 A  
HETATM   10  C   UNL     1     -10.437   7.666  70.328  1.00  0.00    -0.224 A  
HETATM   11  C   UNL     1      -9.338   8.049  71.088  1.00  0.00    -0.176 A  
HETATM   12  C   UNL     1      -8.552   9.121  70.675  1.00  0.00    -0.266 A  
HETATM   13  C   UNL     1      -8.857   9.821  69.494  1.00  0.00    -0.202 A  
HETATM   14  C   UNL     1      -7.951  10.917  69.014  1.00  0.00    -0.131 C  
HETATM   15  C   UNL     1      -7.230  10.506  67.737  1.00  0.00    -0.085 C  
HETATM   16  C   UNL     1      -8.044  10.344  66.468  1.00  0.00    -0.122 A  
HETATM   17  C   UNL     1      -7.287  10.315  65.275  1.00  0.00    -0.139 A  
HETATM   18  C   UNL     1      -7.887  10.174  64.027  1.00  0.00    -0.149 A  
HETATM   19  C   UNL     1      -9.264  10.062  63.945  1.00  0.00    -0.317 A  
HETATM   20  C   UNL     1     -10.029  10.080  65.113  1.00  0.00    -0.350 A  
HETATM   21  C   UNL     1      -9.448  10.212  66.396  1.00  0.00    -0.176 A  
ENDBRANCH   6   7
ENDBRANCH   5   6
ENDBRANCH   4   5
ENDBRANCH   2   4
TORSDOF 4
ENDMDL
MODEL      111
REMARK 921   NORMALIZED FREE ENERGY PREDICTED BY IDOCK:   -4.21 KCAL/MOL
REMARK 922        TOTAL FREE ENERGY PREDICTED BY IDOCK:   -5.49 KCAL/MOL
REMARK 923 INTER-LIGAND FREE ENERGY PREDICTED BY IDOCK:   -5.78 KCAL/MOL
REMARK 924 INTRA-LIGAND FREE ENERGY PREDICTED BY IDOCK:    0.29 KCAL/MOL
REMARK 927      BINDING AFFINITY PREDICTED BY RF-SCORE:    0.00 PKD
ROOT
HETATM    1  C   UNL     1     -12.613  11.902  63.433  1.00  0.00    -0.431 C  
HETATM    2  N   UNL     1     -11.318  11.939  64.118  1.00  0.00    -0.368 NA 
HETATM    3  C   UNL     1     -10.361  11.093  63.397  1.00  0.00    -0.360 C  
ENDROOT
BRANCH   2   4
HETATM    4  C   UNL     1     -10.785  13.306  64.239  1.00  0.00    -0.387 C  
BRANCH   4   5
HETATM    5  C   UNL     1     -10.342  13.698  65.652  1.00  0.00    -0.309 C  
BRANCH   5   6
HETATM    6  C   UNL     1      -9.614  15.048  65.720  1.00  0.00    -0.292 C  
BRANCH   6   7
HETATM    7  N   UNL     1      -9.377  15.459  67.129  1.00  0.00    -0.208 NA 
HETATM    8  C   UNL     1     -10.367  15.027  68.035  1.00  0.00    -0.236 A  
HETATM    9  C   UNL     1     -10.394  13.682  68.435  1.00  0.00    -0.248 A  
HETATM   10  C   UNL     1     -11.318  13.225  69.378  1.00  0.00    -0.280 A  
HETATM   11  C   UNL     1     -12.248  14.106  69.917  1.00  0.00    -0.416 A  
HETATM   12  C   UNL     1     -12.239  15.444  69.527  1.00  0.00    -0.277 A  
HETATM   13  C   UNL     1     -11.297  15.912  68.594  1.00  0.00    -0.376 A  
HETATM   14  C   UNL     1     -11.242  17.372  68.251  1.00  0.00     0.174 C  
HETATM   15  C   UNL     1      -9.966  18.009  68.787  1.00  0.00    -0.380 C  
HETATM   16  C   UNL     1      -8.642  17.605  68.171  1.00  0.00    -0.261 A  
HETATM   17  C   UNL     1      -7.563  18.472  68.457  1.00  0.00    -0.328 A  
HETATM   18  C   UNL     1      -6.283  18.239  67.963  1.00  0.00    -0.181 A  
HETATM   19  C   UNL     1      -6.054  17.131  67.166  1.00  0.00    -0.195 A  
HETATM   20  C   UNL     1      -7.105  16.258  66.879  1.00  0.00    -0.246 A  
HETATM   21  C   UNL     1      -8.414  16.461  67.374  1.00  0.00    -0.178 A  
ENDBRANCH   6   7
ENDBRANCH   5   6
ENDBRANCH   4   5
ENDBRANCH   2   4
TORSDOF 4
ENDMDL
MODEL      112
REMARK 921   NORMALIZED FREE ENERGY PREDICTED BY IDOCK:   -4.21 KCAL/MOL
REMARK 922        TOTAL FREE ENERGY PREDICTED BY IDOCK:   -5.49 KCAL/MOL
REMARK 923 INTER-LIGAND FREE ENERGY PREDICTED BY IDOCK:   -4.60 KCAL/MOL
REMARK 924 INTRA-LIGAND FREE ENERGY PREDICTED BY IDOCK:   -0.89 KCAL/MOL
REMARK 927      BINDING AFFINITY PREDICTED BY RF-SCORE:    0.00 PKD
ROOT
HETATM    1  C   UNL     1      -7.203   8.385  66.185  1.00  0.00    -0.077 C  
HETATM    2  N   UNL     1      -8.082   9.451  65.697  1.00  0.00    -0.109 NA 
HETATM    3  C   UNL     1      -7.598   9.924  64.396  1.00  0.00    -0.143 C  
ENDROOT
BRANCH   2   4
HETATM    4  C   UNL     1      -9.483   9.015  65.581  1.00  0.00    -0.203 C  
BRANCH   4   5
HETATM    5  C   UNL     1     -10.318   9.197  66.851  1.00  0.00    -0.321 C  
BRANCH   5   6
HETATM    6  C   UNL     1     -10.472  10.662  67.286  1.00  0.00    -0.246 C  
BRANCH   6   7
HETATM    7  N   UNL     1     -10.006  10.859  68.683  1.00  0.00    -0.182 NA 
HETATM    8  C   UNL     1      -8.662  11.269  68.794  1.00  0.00    -0.103 A  
HETATM    9  C   UNL     1      -8.322  12.598  68.497  1.00  0.00    -0.060 A  
HETATM   10  C   UNL     1      -7.014  13.064  68.655  1.00  0.00    -0.102 A  
HETATM   11  C   UNL     1      -6.019  12.195  69.089  1.00  0.00    -0.075 A  
HETATM   12  C   UNL     1      -6.338  10.872  69.383  1.00  0.00    -0.070 A  
HETATM   13  C   UNL     1      -7.658  10.405  69.248  1.00  0.00    -0.132 A  
HETATM   14  C   UNL     1      -8.003   9.002  69.652  1.00  0.00    -0.093 C  
HETATM   15  C   UNL     1      -8.887   8.996  70.893  1.00  0.00    -0.294 C  
HETATM   16  C   UNL     1     -10.302   9.529  70.775  1.00  0.00    -0.377 A  
HETATM   17  C   UNL     1     -11.162   9.173  71.839  1.00  0.00    -0.400 A  
HETATM   18  C   UNL     1     -12.492   9.583  71.876  1.00  0.00    -0.465 A  
HETATM   19  C   UNL     1     -12.992  10.358  70.844  1.00  0.00    -0.475 A  
HETATM   20  C   UNL     1     -12.156  10.725  69.788  1.00  0.00    -0.389 A  
HETATM   21  C   UNL     1     -10.798  10.334  69.727  1.00  0.00    -0.287 A  
ENDBRANCH   6   7
ENDBRANCH   5   6
ENDBRANCH   4   5
ENDBRANCH   2   4
TORSDOF 4
ENDMDL
MODEL      113
REMARK 921   NORMALIZED FREE ENERGY PREDICTED BY IDOCK:   -4.20 KCAL/MOL
REMARK 922        TOTAL FREE ENERGY PREDICTED BY IDOCK:   -5.47 KCAL/MOL
REMARK 923 INTER-LIGAND FREE ENERGY PREDICTED BY IDOCK:   -5.55 KCAL/MOL
REMARK 924 INTRA-LIGAND FREE ENERGY PREDICTED BY IDOCK:    0.08 KCAL/MOL
REMARK 927      BINDING AFFINITY PREDICTED BY RF-SCORE:    0.00 PKD
ROOT
HETATM    1  C   UNL     1     -10.900  10.835  69.693  1.00  0.00    -0.241 C  
HETATM    2  N   UNL     1     -12.226  11.306  70.104  1.00  0.00    -0.328 NA 
HETATM    3  C   UNL     1     -12.710  10.486  71.219  1.00  0.00    -0.428 C  
ENDROOT
BRANCH   2   4
HETATM    4  C   UNL     1     -12.221  12.726  70.493  1.00  0.00    -0.307 C  
BRANCH   4   5
HETATM    5  C   UNL     1     -11.943  13.702  69.346  1.00  0.00    -0.394 C  
BRANCH   5   6
HETATM    6  C   UNL     1     -11.110  14.923  69.760  1.00  0.00    -0.274 C  
BRANCH   6   7
HETATM    7  N   UNL     1     -10.064  15.228  68.748  1.00  0.00    -0.212 NA 
HETATM    8  C   UNL     1      -9.510  14.091  68.126  1.00  0.00    -0.215 A  
HETATM    9  C   UNL     1     -10.254  13.411  67.148  1.00  0.00    -0.247 A  
HETATM   10  C   UNL     1      -9.718  12.319  66.461  1.00  0.00    -0.242 A  
HETATM   11  C   UNL     1      -8.436  11.874  66.762  1.00  0.00    -0.167 A  
HETATM   12  C   UNL     1      -7.686  12.534  67.733  1.00  0.00    -0.142 A  
HETATM   13  C   UNL     1      -8.213  13.648  68.411  1.00  0.00    -0.146 A  
HETATM   14  C   UNL     1      -7.362  14.402  69.391  1.00  0.00    -0.060 C  
HETATM   15  C   UNL     1      -7.019  15.787  68.858  1.00  0.00    -0.135 C  
HETATM   16  C   UNL     1      -8.132  16.808  68.727  1.00  0.00    -0.252 A  
HETATM   17  C   UNL     1      -7.699  18.145  68.574  1.00  0.00    -0.307 A  
HETATM   18  C   UNL     1      -8.599  19.198  68.442  1.00  0.00    -0.387 A  
HETATM   19  C   UNL     1      -9.958  18.936  68.465  1.00  0.00    -0.463 A  
HETATM   20  C   UNL     1     -10.405  17.621  68.608  1.00  0.00    -0.359 A  
HETATM   21  C   UNL     1      -9.516  16.528  68.733  1.00  0.00    -0.246 A  
ENDBRANCH   6   7
ENDBRANCH   5   6
ENDBRANCH   4   5
ENDBRANCH   2   4
TORSDOF 4
ENDMDL
MODEL      114
REMARK 921   NORMALIZED FREE ENERGY PREDICTED BY IDOCK:   -4.19 KCAL/MOL
REMARK 922        TOTAL FREE ENERGY PREDICTED BY IDOCK:   -5.46 KCAL/MOL
REMARK 923 INTER-LIGAND FREE ENERGY PREDICTED BY IDOCK:   -4.68 KCAL/MOL
REMARK 924 INTRA-LIGAND FREE ENERGY PREDICTED BY IDOCK:   -0.79 KCAL/MOL
REMARK 927      BINDING AFFINITY PREDICTED BY RF-SCORE:    0.00 PKD
ROOT
HETATM    1  C   UNL     1     -10.302   2.514  72.643  1.00  0.00    -0.150 C  
HETATM    2  N   UNL     1     -10.313   3.949  72.348  1.00  0.00    -0.158 NA 
HETATM    3  C   UNL     1     -11.070   4.655  73.386  1.00  0.00    -0.337 C  
ENDROOT
BRANCH   2   4
HETATM    4  C   UNL     1      -8.956   4.512  72.249  1.00  0.00    -0.125 C  
BRANCH   4   5
HETATM    5  C   UNL     1      -8.674   5.282  70.955  1.00  0.00    -0.138 C  
BRANCH   5   6
HETATM    6  C   UNL     1      -9.846   5.275  69.963  1.00  0.00    -0.218 C  
BRANCH   6   7
HETATM    7  N   UNL     1     -10.182   6.654  69.521  1.00  0.00    -0.176 NA 
HETATM    8  C   UNL     1      -9.389   7.133  68.460  1.00  0.00    -0.136 A  
HETATM    9  C   UNL     1      -9.623   6.662  67.158  1.00  0.00    -0.168 A  
HETATM   10  C   UNL     1      -8.904   7.158  66.068  1.00  0.00    -0.154 A  
HETATM   11  C   UNL     1      -7.917   8.116  66.270  1.00  0.00    -0.101 A  
HETATM   12  C   UNL     1      -7.667   8.591  67.556  1.00  0.00    -0.098 A  
HETATM   13  C   UNL     1      -8.405   8.111  68.652  1.00  0.00    -0.126 A  
HETATM   14  C   UNL     1      -8.186   8.695  70.017  1.00  0.00    -0.122 C  
HETATM   15  C   UNL     1      -9.400   9.499  70.465  1.00  0.00    -0.296 C  
HETATM   16  C   UNL     1     -10.688   8.758  70.764  1.00  0.00    -0.277 A  
HETATM   17  C   UNL     1     -11.643   9.497  71.500  1.00  0.00    -0.465 A  
HETATM   18  C   UNL     1     -12.875   8.957  71.855  1.00  0.00    -0.437 A  
HETATM   19  C   UNL     1     -13.179   7.658  71.483  1.00  0.00    -0.380 A  
HETATM   20  C   UNL     1     -12.252   6.915  70.750  1.00  0.00    -0.364 A  
HETATM   21  C   UNL     1     -10.997   7.440  70.364  1.00  0.00    -0.251 A  
ENDBRANCH   6   7
ENDBRANCH   5   6
ENDBRANCH   4   5
ENDBRANCH   2   4
TORSDOF 4
ENDMDL
MODEL      115
REMARK 921   NORMALIZED FREE ENERGY PREDICTED BY IDOCK:   -4.18 KCAL/MOL
REMARK 922        TOTAL FREE ENERGY PREDICTED BY IDOCK:   -5.45 KCAL/MOL
REMARK 923 INTER-LIGAND FREE ENERGY PREDICTED BY IDOCK:   -5.38 KCAL/MOL
REMARK 924 INTRA-LIGAND FREE ENERGY PREDICTED BY IDOCK:   -0.07 KCAL/MOL
REMARK 927      BINDING AFFINITY PREDICTED BY RF-SCORE:    0.00 PKD
ROOT
HETATM    1  C   UNL     1     -10.888   5.475  73.443  1.00  0.00    -0.288 C  
HETATM    2  N   UNL     1     -11.002   6.479  72.380  1.00  0.00    -0.236 NA 
HETATM    3  C   UNL     1     -12.368   6.471  71.846  1.00  0.00    -0.288 C  
ENDROOT
BRANCH   2   4
HETATM    4  C   UNL     1     -10.656   7.832  72.846  1.00  0.00    -0.366 C  
BRANCH   4   5
HETATM    5  C   UNL     1     -10.790   8.929  71.786  1.00  0.00    -0.436 C  
BRANCH   5   6
HETATM    6  C   UNL     1      -9.700   8.884  70.707  1.00  0.00    -0.227 C  
BRANCH   6   7
HETATM    7  N   UNL     1     -10.275   9.102  69.354  1.00  0.00    -0.203 NA 
HETATM    8  C   UNL     1     -10.072   8.033  68.458  1.00  0.00    -0.199 A  
HETATM    9  C   UNL     1     -10.840   6.866  68.593  1.00  0.00    -0.236 A  
HETATM   10  C   UNL     1     -10.717   5.808  67.689  1.00  0.00    -0.313 A  
HETATM   11  C   UNL     1      -9.800   5.893  66.648  1.00  0.00    -0.197 A  
HETATM   12  C   UNL     1      -9.025   7.041  66.502  1.00  0.00    -0.165 A  
HETATM   13  C   UNL     1      -9.162   8.117  67.396  1.00  0.00    -0.159 A  
HETATM   14  C   UNL     1      -8.385   9.382  67.175  1.00  0.00    -0.124 C  
HETATM   15  C   UNL     1      -9.310  10.525  66.776  1.00  0.00    -0.180 C  
HETATM   16  C   UNL     1     -10.282  11.062  67.807  1.00  0.00    -0.210 A  
HETATM   17  C   UNL     1     -10.843  12.322  67.498  1.00  0.00    -0.271 A  
HETATM   18  C   UNL     1     -11.751  12.949  68.345  1.00  0.00    -0.382 A  
HETATM   19  C   UNL     1     -12.118  12.329  69.527  1.00  0.00    -0.260 A  
HETATM   20  C   UNL     1     -11.581  11.080  69.846  1.00  0.00    -0.416 A  
HETATM   21  C   UNL     1     -10.664  10.412  69.002  1.00  0.00    -0.228 A  
ENDBRANCH   6   7
ENDBRANCH   5   6
ENDBRANCH   4   5
ENDBRANCH   2   4
TORSDOF 4
ENDMDL
MODEL      116
REMARK 921   NORMALIZED FREE ENERGY PREDICTED BY IDOCK:   -4.17 KCAL/MOL
REMARK 922        TOTAL FREE ENERGY PREDICTED BY IDOCK:   -5.45 KCAL/MOL
REMARK 923 INTER-LIGAND FREE ENERGY PREDICTED BY IDOCK:   -5.16 KCAL/MOL
REMARK 924 INTRA-LIGAND FREE ENERGY PREDICTED BY IDOCK:   -0.28 KCAL/MOL
REMARK 927      BINDING AFFINITY PREDICTED BY RF-SCORE:    0.00 PKD
ROOT
HETATM    1  C   UNL     1     -11.017  14.904  68.601  1.00  0.00    -0.257 C  
HETATM    2  N   UNL     1     -11.990  13.810  68.532  1.00  0.00    -0.370 NA 
HETATM    3  C   UNL     1     -11.804  13.070  67.280  1.00  0.00    -0.363 C  
ENDROOT
BRANCH   2   4
HETATM    4  C   UNL     1     -11.882  12.890  69.677  1.00  0.00    -0.320 C  
BRANCH   4   5
HETATM    5  C   UNL     1     -11.127  11.590  69.385  1.00  0.00    -0.287 C  
BRANCH   5   6
HETATM    6  C   UNL     1     -11.854  10.328  69.870  1.00  0.00    -0.193 C  
BRANCH   6   7
HETATM    7  N   UNL     1     -11.035   9.111  69.630  1.00  0.00    -0.198 NA 
HETATM    8  C   UNL     1     -10.999   8.212  70.715  1.00  0.00    -0.244 A  
HETATM    9  C   UNL     1     -12.117   7.404  70.976  1.00  0.00    -0.330 A  
HETATM   10  C   UNL     1     -12.100   6.455  72.001  1.00  0.00    -0.353 A  
HETATM   11  C   UNL     1     -10.971   6.320  72.799  1.00  0.00    -0.291 A  
HETATM   12  C   UNL     1      -9.854   7.117  72.558  1.00  0.00    -0.183 A  
HETATM   13  C   UNL     1      -9.858   8.058  71.513  1.00  0.00    -0.217 A  
HETATM   14  C   UNL     1      -8.619   8.847  71.208  1.00  0.00    -0.259 C  
HETATM   15  C   UNL     1      -8.022   8.427  69.871  1.00  0.00    -0.107 C  
HETATM   16  C   UNL     1      -8.787   8.753  68.603  1.00  0.00    -0.138 A  
HETATM   17  C   UNL     1      -8.033   8.662  67.412  1.00  0.00    -0.102 A  
HETATM   18  C   UNL     1      -8.591   8.932  66.166  1.00  0.00    -0.155 A  
HETATM   19  C   UNL     1      -9.922   9.303  66.085  1.00  0.00    -0.348 A  
HETATM   20  C   UNL     1     -10.686   9.391  67.250  1.00  0.00    -0.258 A  
HETATM   21  C   UNL     1     -10.151   9.113  68.530  1.00  0.00    -0.191 A  
ENDBRANCH   6   7
ENDBRANCH   5   6
ENDBRANCH   4   5
ENDBRANCH   2   4
TORSDOF 4
ENDMDL
MODEL      117
REMARK 921   NORMALIZED FREE ENERGY PREDICTED BY IDOCK:   -4.17 KCAL/MOL
REMARK 922        TOTAL FREE ENERGY PREDICTED BY IDOCK:   -5.44 KCAL/MOL
REMARK 923 INTER-LIGAND FREE ENERGY PREDICTED BY IDOCK:   -5.22 KCAL/MOL
REMARK 924 INTRA-LIGAND FREE ENERGY PREDICTED BY IDOCK:   -0.22 KCAL/MOL
REMARK 927      BINDING AFFINITY PREDICTED BY RF-SCORE:    0.00 PKD
ROOT
HETATM    1  C   UNL     1      -8.253   9.396  64.255  1.00  0.00    -0.153 C  
HETATM    2  N   UNL     1      -9.006  10.644  64.106  1.00  0.00    -0.201 NA 
HETATM    3  C   UNL     1      -9.528  10.739  62.739  1.00  0.00    -0.331 C  
ENDROOT
BRANCH   2   4
HETATM    4  C   UNL     1     -10.113  10.751  65.072  1.00  0.00    -0.313 C  
BRANCH   4   5
HETATM    5  C   UNL     1      -9.887  10.002  66.389  1.00  0.00    -0.283 C  
BRANCH   5   6
HETATM    6  C   UNL     1      -8.653  10.478  67.168  1.00  0.00    -0.127 C  
BRANCH   6   7
HETATM    7  N   UNL     1      -9.045  11.191  68.412  1.00  0.00    -0.162 NA 
HETATM    8  C   UNL     1      -9.547  10.354  69.428  1.00  0.00    -0.192 A  
HETATM    9  C   UNL     1      -8.657   9.560  70.168  1.00  0.00    -0.250 A  
HETATM   10  C   UNL     1      -9.104   8.764  71.226  1.00  0.00    -0.300 A  
HETATM   11  C   UNL     1     -10.457   8.731  71.541  1.00  0.00    -0.373 A  
HETATM   12  C   UNL     1     -11.356   9.509  70.813  1.00  0.00    -0.387 A  
HETATM   13  C   UNL     1     -10.907  10.328  69.763  1.00  0.00    -0.332 A  
HETATM   14  C   UNL     1     -11.872  11.226  69.046  1.00  0.00    -0.421 C  
HETATM   15  C   UNL     1     -11.586  12.690  69.358  1.00  0.00    -0.369 C  
HETATM   16  C   UNL     1     -10.305  13.305  68.830  1.00  0.00    -0.154 A  
HETATM   17  C   UNL     1     -10.273  14.718  68.845  1.00  0.00    -0.237 A  
HETATM   18  C   UNL     1      -9.168  15.432  68.392  1.00  0.00    -0.192 A  
HETATM   19  C   UNL     1      -8.068  14.745  67.908  1.00  0.00    -0.146 A  
HETATM   20  C   UNL     1      -8.078  13.349  67.892  1.00  0.00    -0.162 A  
HETATM   21  C   UNL     1      -9.180  12.595  68.355  1.00  0.00    -0.135 A  
ENDBRANCH   6   7
ENDBRANCH   5   6
ENDBRANCH   4   5
ENDBRANCH   2   4
TORSDOF 4
ENDMDL
MODEL      118
REMARK 921   NORMALIZED FREE ENERGY PREDICTED BY IDOCK:   -4.16 KCAL/MOL
REMARK 922        TOTAL FREE ENERGY PREDICTED BY IDOCK:   -5.43 KCAL/MOL
REMARK 923 INTER-LIGAND FREE ENERGY PREDICTED BY IDOCK:   -5.18 KCAL/MOL
REMARK 924 INTRA-LIGAND FREE ENERGY PREDICTED BY IDOCK:   -0.26 KCAL/MOL
REMARK 927      BINDING AFFINITY PREDICTED BY RF-SCORE:    0.00 PKD
ROOT
HETATM    1  C   UNL     1     -10.173  11.261  64.110  1.00  0.00    -0.335 C  
HETATM    2  N   UNL     1      -9.527  10.695  65.298  1.00  0.00    -0.204 NA 
HETATM    3  C   UNL     1      -8.157  10.295  64.964  1.00  0.00    -0.146 C  
ENDROOT
BRANCH   2   4
HETATM    4  C   UNL     1      -9.511  11.637  66.430  1.00  0.00    -0.217 C  
BRANCH   4   5
HETATM    5  C   UNL     1      -9.084  11.025  67.767  1.00  0.00    -0.147 C  
BRANCH   5   6
HETATM    6  C   UNL     1     -10.006   9.900  68.255  1.00  0.00    -0.151 C  
BRANCH   6   7
HETATM    7  N   UNL     1     -10.144   9.923  69.735  1.00  0.00    -0.229 NA 
HETATM    8  C   UNL     1      -9.340   8.982  70.409  1.00  0.00    -0.208 A  
HETATM    9  C   UNL     1      -7.962   9.220  70.536  1.00  0.00    -0.188 A  
HETATM   10  C   UNL     1      -7.139   8.346  71.250  1.00  0.00    -0.070 A  
HETATM   11  C   UNL     1      -7.680   7.203  71.826  1.00  0.00    -0.092 A  
HETATM   12  C   UNL     1      -9.045   6.948  71.705  1.00  0.00    -0.139 A  
HETATM   13  C   UNL     1      -9.880   7.837  71.006  1.00  0.00    -0.186 A  
HETATM   14  C   UNL     1     -11.361   7.595  70.959  1.00  0.00    -0.289 C  
HETATM   15  C   UNL     1     -12.109   8.650  71.764  1.00  0.00    -0.403 C  
HETATM   16  C   UNL     1     -12.119  10.077  71.254  1.00  0.00    -0.487 A  
HETATM   17  C   UNL     1     -13.102  10.910  71.835  1.00  0.00    -0.537 A  
HETATM   18  C   UNL     1     -13.241  12.247  71.471  1.00  0.00    -0.268 A  
HETATM   19  C   UNL     1     -12.398  12.780  70.512  1.00  0.00    -0.355 A  
HETATM   20  C   UNL     1     -11.415  11.975  69.932  1.00  0.00    -0.239 A  
HETATM   21  C   UNL     1     -11.242  10.617  70.288  1.00  0.00    -0.285 A  
ENDBRANCH   6   7
ENDBRANCH   5   6
ENDBRANCH   4   5
ENDBRANCH   2   4
TORSDOF 4
ENDMDL
MODEL      119
REMARK 921   NORMALIZED FREE ENERGY PREDICTED BY IDOCK:   -4.16 KCAL/MOL
REMARK 922        TOTAL FREE ENERGY PREDICTED BY IDOCK:   -5.43 KCAL/MOL
REMARK 923 INTER-LIGAND FREE ENERGY PREDICTED BY IDOCK:   -5.16 KCAL/MOL
REMARK 924 INTRA-LIGAND FREE ENERGY PREDICTED BY IDOCK:   -0.27 KCAL/MOL
REMARK 927      BINDING AFFINITY PREDICTED BY RF-SCORE:    0.00 PKD
ROOT
HETATM    1  C   UNL     1      -9.972   3.403  74.550  1.00  0.00    -0.150 C  
HETATM    2  N   UNL     1     -10.287   4.376  73.499  1.00  0.00    -0.166 NA 
HETATM    3  C   UNL     1     -11.735   4.393  73.269  1.00  0.00    -0.034 C  
ENDROOT
BRANCH   2   4
HETATM    4  C   UNL     1      -9.818   5.732  73.831  1.00  0.00    -0.183 C  
BRANCH   4   5
HETATM    5  C   UNL     1     -10.773   6.857  73.422  1.00  0.00    -0.352 C  
BRANCH   5   6
HETATM    6  C   UNL     1     -10.068   8.072  72.801  1.00  0.00    -0.308 C  
BRANCH   6   7
HETATM    7  N   UNL     1     -10.592   8.356  71.439  1.00  0.00    -0.221 NA 
HETATM    8  C   UNL     1     -10.035   7.553  70.423  1.00  0.00    -0.184 A  
HETATM    9  C   UNL     1     -10.448   6.217  70.299  1.00  0.00    -0.288 A  
HETATM   10  C   UNL     1      -9.971   5.404  69.268  1.00  0.00    -0.277 A  
HETATM   11  C   UNL     1      -9.049   5.910  68.360  1.00  0.00    -0.115 A  
HETATM   12  C   UNL     1      -8.624   7.233  68.471  1.00  0.00    -0.124 A  
HETATM   13  C   UNL     1      -9.120   8.061  69.494  1.00  0.00    -0.152 A  
HETATM   14  C   UNL     1      -8.720   9.506  69.549  1.00  0.00    -0.178 C  
HETATM   15  C   UNL     1      -9.903  10.409  69.223  1.00  0.00    -0.243 C  
HETATM   16  C   UNL     1     -11.054  10.478  70.207  1.00  0.00    -0.359 A  
HETATM   17  C   UNL     1     -11.927  11.575  70.027  1.00  0.00    -0.435 A  
HETATM   18  C   UNL     1     -13.030  11.778  70.851  1.00  0.00    -0.114 A  
HETATM   19  C   UNL     1     -13.282  10.888  71.880  1.00  0.00    -0.508 A  
HETATM   20  C   UNL     1     -12.435   9.794  72.070  1.00  0.00    -0.390 A  
HETATM   21  C   UNL     1     -11.313   9.553  71.243  1.00  0.00    -0.376 A  
ENDBRANCH   6   7
ENDBRANCH   5   6
ENDBRANCH   4   5
ENDBRANCH   2   4
TORSDOF 4
ENDMDL
MODEL      120
REMARK 921   NORMALIZED FREE ENERGY PREDICTED BY IDOCK:   -4.14 KCAL/MOL
REMARK 922        TOTAL FREE ENERGY PREDICTED BY IDOCK:   -5.41 KCAL/MOL
REMARK 923 INTER-LIGAND FREE ENERGY PREDICTED BY IDOCK:   -5.23 KCAL/MOL
REMARK 924 INTRA-LIGAND FREE ENERGY PREDICTED BY IDOCK:   -0.18 KCAL/MOL
REMARK 927      BINDING AFFINITY PREDICTED BY RF-SCORE:    0.00 PKD
ROOT
HETATM    1  C   UNL     1     -10.881   5.858  73.154  1.00  0.00    -0.266 C  
HETATM    2  N   UNL     1      -9.537   6.441  73.112  1.00  0.00    -0.149 NA 
HETATM    3  C   UNL     1      -8.674   5.617  72.259  1.00  0.00    -0.132 C  
ENDROOT
BRANCH   2   4
HETATM    4  C   UNL     1      -9.544   7.830  72.622  1.00  0.00    -0.202 C  
BRANCH   4   5
HETATM    5  C   UNL     1      -9.747   7.975  71.111  1.00  0.00    -0.190 C  
BRANCH   5   6
HETATM    6  C   UNL     1      -9.271   9.322  70.549  1.00  0.00    -0.261 C  
BRANCH   6   7
HETATM    7  N   UNL     1     -10.321   9.952  69.706  1.00  0.00    -0.229 NA 
HETATM    8  C   UNL     1     -10.064   9.898  68.321  1.00  0.00    -0.161 A  
HETATM    9  C   UNL     1     -10.243   8.687  67.634  1.00  0.00    -0.300 A  
HETATM   10  C   UNL     1     -10.062   8.605  66.252  1.00  0.00    -0.215 A  
HETATM   11  C   UNL     1      -9.669   9.731  65.538  1.00  0.00    -0.382 A  
HETATM   12  C   UNL     1      -9.481  10.940  66.205  1.00  0.00    -0.230 A  
HETATM   13  C   UNL     1      -9.686  11.033  67.592  1.00  0.00    -0.184 A  
HETATM   14  C   UNL     1      -9.565  12.360  68.282  1.00  0.00    -0.211 C  
HETATM   15  C   UNL     1     -10.925  12.844  68.771  1.00  0.00    -0.292 C  
HETATM   16  C   UNL     1     -11.598  12.088  69.899  1.00  0.00    -0.315 A  
HETATM   17  C   UNL     1     -12.657  12.781  70.530  1.00  0.00    -0.191 A  
HETATM   18  C   UNL     1     -13.374  12.222  71.584  1.00  0.00    -0.252 A  
HETATM   19  C   UNL     1     -13.044  10.956  72.034  1.00  0.00    -0.462 A  
HETATM   20  C   UNL     1     -12.007  10.253  71.418  1.00  0.00    -0.419 A  
HETATM   21  C   UNL     1     -11.266  10.788  70.338  1.00  0.00    -0.186 A  
ENDBRANCH   6   7
ENDBRANCH   5   6
ENDBRANCH   4   5
ENDBRANCH   2   4
TORSDOF 4
ENDMDL
MODEL      121
REMARK 921   NORMALIZED FREE ENERGY PREDICTED BY IDOCK:   -4.13 KCAL/MOL
REMARK 922        TOTAL FREE ENERGY PREDICTED BY IDOCK:   -5.39 KCAL/MOL
REMARK 923 INTER-LIGAND FREE ENERGY PREDICTED BY IDOCK:   -5.28 KCAL/MOL
REMARK 924 INTRA-LIGAND FREE ENERGY PREDICTED BY IDOCK:   -0.12 KCAL/MOL
REMARK 927      BINDING AFFINITY PREDICTED BY RF-SCORE:    0.00 PKD
ROOT
HETATM    1  C   UNL     1     -10.388   4.903  66.462  1.00  0.00    -0.270 C  
HETATM    2  N   UNL     1      -9.653   6.138  66.750  1.00  0.00    -0.144 NA 
HETATM    3  C   UNL     1      -8.678   6.386  65.683  1.00  0.00    -0.099 C  
ENDROOT
BRANCH   2   4
HETATM    4  C   UNL     1     -10.544   7.301  66.893  1.00  0.00    -0.305 C  
BRANCH   4   5
HETATM    5  C   UNL     1      -9.830   8.656  66.911  1.00  0.00    -0.305 C  
BRANCH   5   6
HETATM    6  C   UNL     1     -10.775   9.852  67.093  1.00  0.00    -0.207 C  
BRANCH   6   7
HETATM    7  N   UNL     1     -10.322  10.730  68.204  1.00  0.00    -0.164 NA 
HETATM    8  C   UNL     1     -11.154  10.704  69.341  1.00  0.00    -0.260 A  
HETATM    9  C   UNL     1     -11.107   9.596  70.202  1.00  0.00    -0.314 A  
HETATM   10  C   UNL     1     -11.867   9.557  71.374  1.00  0.00    -0.464 A  
HETATM   11  C   UNL     1     -12.708  10.618  71.688  1.00  0.00    -0.531 A  
HETATM   12  C   UNL     1     -12.770  11.723  70.842  1.00  0.00    -0.328 A  
HETATM   13  C   UNL     1     -11.990  11.777  69.673  1.00  0.00    -0.378 A  
HETATM   14  C   UNL     1     -12.001  13.010  68.818  1.00  0.00    -0.302 C  
HETATM   15  C   UNL     1     -10.662  13.733  68.889  1.00  0.00    -0.249 C  
HETATM   16  C   UNL     1      -9.448  13.067  68.271  1.00  0.00    -0.208 A  
HETATM   17  C   UNL     1      -8.344  13.924  68.057  1.00  0.00    -0.166 A  
HETATM   18  C   UNL     1      -7.156  13.465  67.496  1.00  0.00    -0.154 A  
HETATM   19  C   UNL     1      -7.047  12.133  67.133  1.00  0.00    -0.120 A  
HETATM   20  C   UNL     1      -8.124  11.270  67.343  1.00  0.00    -0.135 A  
HETATM   21  C   UNL     1      -9.340  11.703  67.920  1.00  0.00    -0.174 A  
ENDBRANCH   6   7
ENDBRANCH   5   6
ENDBRANCH   4   5
ENDBRANCH   2   4
TORSDOF 4
ENDMDL
MODEL      122
REMARK 921   NORMALIZED FREE ENERGY PREDICTED BY IDOCK:   -4.13 KCAL/MOL
REMARK 922        TOTAL FREE ENERGY PREDICTED BY IDOCK:   -5.39 KCAL/MOL
REMARK 923 INTER-LIGAND FREE ENERGY PREDICTED BY IDOCK:   -4.84 KCAL/MOL
REMARK 924 INTRA-LIGAND FREE ENERGY PREDICTED BY IDOCK:   -0.55 KCAL/MOL
REMARK 927      BINDING AFFINITY PREDICTED BY RF-SCORE:    0.00 PKD
ROOT
HETATM    1  C   UNL     1     -10.587  19.212  66.415  1.00  0.00    -0.435 C  
HETATM    2  N   UNL     1     -10.825  18.553  67.703  1.00  0.00    -0.363 NA 
HETATM    3  C   UNL     1     -10.626  17.108  67.555  1.00  0.00    -0.323 C  
ENDROOT
BRANCH   2   4
HETATM    4  C   UNL     1      -9.951  19.072  68.768  1.00  0.00    -0.411 C  
BRANCH   4   5
HETATM    5  C   UNL     1      -8.868  20.044  68.291  1.00  0.00    -0.201 C  
BRANCH   5   6
HETATM    6  C   UNL     1      -7.561  19.957  69.092  1.00  0.00    -0.106 C  
BRANCH   6   7
HETATM    7  N   UNL     1      -6.542  19.149  68.371  1.00  0.00    -0.245 NA 
HETATM    8  C   UNL     1      -6.278  19.586  67.057  1.00  0.00    -0.187 A  
HETATM    9  C   UNL     1      -5.500  20.738  66.859  1.00  0.00    -0.228 A  
HETATM   10  C   UNL     1      -5.160  21.170  65.574  1.00  0.00    -0.232 A  
HETATM   11  C   UNL     1      -5.619  20.468  64.466  1.00  0.00    -0.258 A  
HETATM   12  C   UNL     1      -6.396  19.326  64.644  1.00  0.00    -0.140 A  
HETATM   13  C   UNL     1      -6.721  18.875  65.936  1.00  0.00    -0.290 A  
HETATM   14  C   UNL     1      -7.485  17.595  66.114  1.00  0.00    -0.334 C  
HETATM   15  C   UNL     1      -6.603  16.519  66.735  1.00  0.00    -0.167 C  
HETATM   16  C   UNL     1      -6.156  16.691  68.173  1.00  0.00    -0.129 A  
HETATM   17  C   UNL     1      -5.655  15.520  68.785  1.00  0.00    -0.093 A  
HETATM   18  C   UNL     1      -5.206  15.514  70.102  1.00  0.00    -0.120 A  
HETATM   19  C   UNL     1      -5.251  16.684  70.840  1.00  0.00    -0.165 A  
HETATM   20  C   UNL     1      -5.735  17.854  70.250  1.00  0.00    -0.198 A  
HETATM   21  C   UNL     1      -6.188  17.895  68.911  1.00  0.00    -0.214 A  
ENDBRANCH   6   7
ENDBRANCH   5   6
ENDBRANCH   4   5
ENDBRANCH   2   4
TORSDOF 4
ENDMDL
MODEL      123
REMARK 921   NORMALIZED FREE ENERGY PREDICTED BY IDOCK:   -4.13 KCAL/MOL
REMARK 922        TOTAL FREE ENERGY PREDICTED BY IDOCK:   -5.39 KCAL/MOL
REMARK 923 INTER-LIGAND FREE ENERGY PREDICTED BY IDOCK:   -5.15 KCAL/MOL
REMARK 924 INTRA-LIGAND FREE ENERGY PREDICTED BY IDOCK:   -0.25 KCAL/MOL
REMARK 927      BINDING AFFINITY PREDICTED BY RF-SCORE:    0.00 PKD
ROOT
HETATM    1  C   UNL     1      -9.551   3.262  64.804  1.00  0.00    -0.149 C  
HETATM    2  N   UNL     1      -9.138   4.448  65.560  1.00  0.00    -0.133 NA 
HETATM    3  C   UNL     1      -8.419   5.367  64.672  1.00  0.00    -0.126 C  
ENDROOT
BRANCH   2   4
HETATM    4  C   UNL     1     -10.279   5.143  66.180  1.00  0.00    -0.222 C  
BRANCH   4   5
HETATM    5  C   UNL     1     -10.046   5.594  67.625  1.00  0.00    -0.208 C  
BRANCH   5   6
HETATM    6  C   UNL     1     -11.094   6.590  68.140  1.00  0.00    -0.240 C  
BRANCH   6   7
HETATM    7  N   UNL     1     -10.457   7.854  68.593  1.00  0.00    -0.194 NA 
HETATM    8  C   UNL     1     -10.150   7.889  69.968  1.00  0.00    -0.199 A  
HETATM    9  C   UNL     1      -9.045   7.166  70.445  1.00  0.00    -0.156 A  
HETATM   10  C   UNL     1      -8.667   7.224  71.789  1.00  0.00    -0.123 A  
HETATM   11  C   UNL     1      -9.408   7.989  72.683  1.00  0.00    -0.314 A  
HETATM   12  C   UNL     1     -10.510   8.709  72.227  1.00  0.00    -0.376 A  
HETATM   13  C   UNL     1     -10.880   8.671  70.871  1.00  0.00    -0.288 A  
HETATM   14  C   UNL     1     -12.015   9.521  70.379  1.00  0.00    -0.123 C  
HETATM   15  C   UNL     1     -11.506  10.634  69.471  1.00  0.00    -0.360 C  
HETATM   16  C   UNL     1     -10.931  10.259  68.120  1.00  0.00    -0.328 A  
HETATM   17  C   UNL     1     -10.813  11.329  67.205  1.00  0.00    -0.321 A  
HETATM   18  C   UNL     1     -10.305  11.147  65.922  1.00  0.00    -0.314 A  
HETATM   19  C   UNL     1      -9.905   9.883  65.524  1.00  0.00    -0.381 A  
HETATM   20  C   UNL     1     -10.007   8.814  66.416  1.00  0.00    -0.346 A  
HETATM   21  C   UNL     1     -10.509   8.969  67.729  1.00  0.00    -0.245 A  
ENDBRANCH   6   7
ENDBRANCH   5   6
ENDBRANCH   4   5
ENDBRANCH   2   4
TORSDOF 4
ENDMDL
MODEL      124
REMARK 921   NORMALIZED FREE ENERGY PREDICTED BY IDOCK:   -4.13 KCAL/MOL
REMARK 922        TOTAL FREE ENERGY PREDICTED BY IDOCK:   -5.39 KCAL/MOL
REMARK 923 INTER-LIGAND FREE ENERGY PREDICTED BY IDOCK:   -4.69 KCAL/MOL
REMARK 924 INTRA-LIGAND FREE ENERGY PREDICTED BY IDOCK:   -0.70 KCAL/MOL
REMARK 927      BINDING AFFINITY PREDICTED BY RF-SCORE:    0.00 PKD
ROOT
HETATM    1  C   UNL     1      -7.626   4.493  66.698  1.00  0.00    -0.086 C  
HETATM    2  N   UNL     1      -8.684   5.457  67.019  1.00  0.00    -0.109 NA 
HETATM    3  C   UNL     1      -9.910   5.092  66.302  1.00  0.00    -0.200 C  
ENDROOT
BRANCH   2   4
HETATM    4  C   UNL     1      -8.953   5.534  68.464  1.00  0.00    -0.110 C  
BRANCH   4   5
HETATM    5  C   UNL     1      -9.765   6.757  68.900  1.00  0.00    -0.137 C  
BRANCH   5   6
HETATM    6  C   UNL     1      -8.908   7.993  69.204  1.00  0.00    -0.145 C  
BRANCH   6   7
HETATM    7  N   UNL     1      -9.293   8.608  70.501  1.00  0.00    -0.166 NA 
HETATM    8  C   UNL     1      -8.509   8.193  71.596  1.00  0.00    -0.136 A  
HETATM    9  C   UNL     1      -7.209   8.702  71.745  1.00  0.00    -0.103 A  
HETATM   10  C   UNL     1      -6.422   8.367  72.849  1.00  0.00    -0.104 A  
HETATM   11  C   UNL     1      -6.916   7.493  73.810  1.00  0.00    -0.099 A  
HETATM   12  C   UNL     1      -8.201   6.973  73.675  1.00  0.00    -0.134 A  
HETATM   13  C   UNL     1      -9.006   7.326  72.577  1.00  0.00    -0.152 A  
HETATM   14  C   UNL     1     -10.419   6.828  72.492  1.00  0.00    -0.235 C  
HETATM   15  C   UNL     1     -11.409   7.972  72.673  1.00  0.00    -0.469 C  
HETATM   16  C   UNL     1     -11.499   9.029  71.591  1.00  0.00    -0.431 A  
HETATM   17  C   UNL     1     -12.656   9.840  71.645  1.00  0.00    -0.509 A  
HETATM   18  C   UNL     1     -12.886  10.855  70.721  1.00  0.00    -0.378 A  
HETATM   19  C   UNL     1     -11.961  11.079  69.715  1.00  0.00    -0.428 A  
HETATM   20  C   UNL     1     -10.809  10.293  69.649  1.00  0.00    -0.311 A  
HETATM   21  C   UNL     1     -10.541   9.262  70.580  1.00  0.00    -0.252 A  
ENDBRANCH   6   7
ENDBRANCH   5   6
ENDBRANCH   4   5
ENDBRANCH   2   4
TORSDOF 4
ENDMDL
MODEL      125
REMARK 921   NORMALIZED FREE ENERGY PREDICTED BY IDOCK:   -4.12 KCAL/MOL
REMARK 922        TOTAL FREE ENERGY PREDICTED BY IDOCK:   -5.38 KCAL/MOL
REMARK 923 INTER-LIGAND FREE ENERGY PREDICTED BY IDOCK:   -5.03 KCAL/MOL
REMARK 924 INTRA-LIGAND FREE ENERGY PREDICTED BY IDOCK:   -0.36 KCAL/MOL
REMARK 927      BINDING AFFINITY PREDICTED BY RF-SCORE:    0.00 PKD
ROOT
HETATM    1  C   UNL     1      -7.840  11.937  66.715  1.00  0.00    -0.070 C  
HETATM    2  N   UNL     1      -9.230  11.999  66.252  1.00  0.00    -0.224 NA 
HETATM    3  C   UNL     1      -9.951  10.809  66.713  1.00  0.00    -0.206 C  
ENDROOT
BRANCH   2   4
HETATM    4  C   UNL     1      -9.922  13.214  66.715  1.00  0.00    -0.250 C  
BRANCH   4   5
HETATM    5  C   UNL     1      -9.935  14.367  65.707  1.00  0.00    -0.354 C  
BRANCH   5   6
HETATM    6  C   UNL     1     -11.006  15.428  65.994  1.00  0.00    -0.286 C  
BRANCH   6   7
HETATM    7  N   UNL     1     -10.651  16.239  67.188  1.00  0.00    -0.310 NA 
HETATM    8  C   UNL     1      -9.847  17.363  66.909  1.00  0.00    -0.289 A  
HETATM    9  C   UNL     1     -10.430  18.496  66.318  1.00  0.00    -0.441 A  
HETATM   10  C   UNL     1      -9.686  19.654  66.083  1.00  0.00    -0.489 A  
HETATM   11  C   UNL     1      -8.336  19.686  66.413  1.00  0.00    -0.376 A  
HETATM   12  C   UNL     1      -7.740  18.570  66.995  1.00  0.00    -0.235 A  
HETATM   13  C   UNL     1      -8.491  17.410  67.255  1.00  0.00    -0.220 A  
HETATM   14  C   UNL     1      -7.858  16.248  67.962  1.00  0.00    -0.154 C  
HETATM   15  C   UNL     1      -8.444  16.077  69.358  1.00  0.00    -0.146 C  
HETATM   16  C   UNL     1      -9.888  15.632  69.486  1.00  0.00    -0.289 A  
HETATM   17  C   UNL     1     -10.253  15.157  70.767  1.00  0.00     0.395 A  
HETATM   18  C   UNL     1     -11.541  14.710  71.045  1.00  0.00    -0.277 A  
HETATM   19  C   UNL     1     -12.496  14.726  70.042  1.00  0.00    -0.327 A  
HETATM   20  C   UNL     1     -12.157  15.199  68.773  1.00  0.00    -0.199 A  
HETATM   21  C   UNL     1     -10.860  15.669  68.462  1.00  0.00    -0.282 A  
ENDBRANCH   6   7
ENDBRANCH   5   6
ENDBRANCH   4   5
ENDBRANCH   2   4
TORSDOF 4
ENDMDL
MODEL      126
REMARK 921   NORMALIZED FREE ENERGY PREDICTED BY IDOCK:   -4.12 KCAL/MOL
REMARK 922        TOTAL FREE ENERGY PREDICTED BY IDOCK:   -5.38 KCAL/MOL
REMARK 923 INTER-LIGAND FREE ENERGY PREDICTED BY IDOCK:   -4.70 KCAL/MOL
REMARK 924 INTRA-LIGAND FREE ENERGY PREDICTED BY IDOCK:   -0.68 KCAL/MOL
REMARK 927      BINDING AFFINITY PREDICTED BY RF-SCORE:    0.00 PKD
ROOT
HETATM    1  C   UNL     1      -6.162  14.686  69.941  1.00  0.00    -0.150 C  
HETATM    2  N   UNL     1      -7.144  14.406  68.889  1.00  0.00    -0.110 NA 
HETATM    3  C   UNL     1      -7.635  15.670  68.331  1.00  0.00    -0.121 C  
ENDROOT
BRANCH   2   4
HETATM    4  C   UNL     1      -6.589  13.567  67.814  1.00  0.00    -0.170 C  
BRANCH   4   5
HETATM    5  C   UNL     1      -7.528  12.465  67.313  1.00  0.00    -0.135 C  
BRANCH   5   6
HETATM    6  C   UNL     1      -8.696  12.168  68.264  1.00  0.00    -0.178 C  
BRANCH   6   7
HETATM    7  N   UNL     1      -9.987  12.627  67.687  1.00  0.00    -0.212 NA 
HETATM    8  C   UNL     1     -10.156  12.319  66.322  1.00  0.00    -0.234 A  
HETATM    9  C   UNL     1     -10.461  11.001  65.947  1.00  0.00    -0.300 A  
HETATM   10  C   UNL     1     -10.699  10.665  64.612  1.00  0.00    -0.031 A  
HETATM   11  C   UNL     1     -10.609  11.642  63.627  1.00  0.00    -0.493 A  
HETATM   12  C   UNL     1     -10.302  12.954  63.981  1.00  0.00    -0.346 A  
HETATM   13  C   UNL     1     -10.084  13.301  65.326  1.00  0.00    -0.254 A  
HETATM   14  C   UNL     1      -9.841  14.733  65.702  1.00  0.00    -0.361 C  
HETATM   15  C   UNL     1     -11.017  15.294  66.492  1.00  0.00    -0.295 C  
HETATM   16  C   UNL     1     -11.273  14.757  67.887  1.00  0.00    -0.318 A  
HETATM   17  C   UNL     1     -12.132  15.550  68.681  1.00  0.00    -0.107 A  
HETATM   18  C   UNL     1     -12.463  15.194  69.985  1.00  0.00    -0.316 A  
HETATM   19  C   UNL     1     -11.937  14.033  70.526  1.00  0.00    -0.390 A  
HETATM   20  C   UNL     1     -11.093  13.233  69.754  1.00  0.00     0.083 A  
HETATM   21  C   UNL     1     -10.746  13.562  68.423  1.00  0.00    -0.259 A  
ENDBRANCH   6   7
ENDBRANCH   5   6
ENDBRANCH   4   5
ENDBRANCH   2   4
TORSDOF 4
ENDMDL
MODEL      127
REMARK 921   NORMALIZED FREE ENERGY PREDICTED BY IDOCK:   -4.08 KCAL/MOL
REMARK 922        TOTAL FREE ENERGY PREDICTED BY IDOCK:   -5.33 KCAL/MOL
REMARK 923 INTER-LIGAND FREE ENERGY PREDICTED BY IDOCK:   -4.61 KCAL/MOL
REMARK 924 INTRA-LIGAND FREE ENERGY PREDICTED BY IDOCK:   -0.72 KCAL/MOL
REMARK 927      BINDING AFFINITY PREDICTED BY RF-SCORE:    0.00 PKD
ROOT
HETATM    1  C   UNL     1     -11.501  15.321  67.811  1.00  0.00    -0.303 C  
HETATM    2  N   UNL     1     -11.438  14.443  68.983  1.00  0.00    -0.265 NA 
HETATM    3  C   UNL     1     -12.207  15.038  70.080  1.00  0.00    -0.343 C  
ENDROOT
BRANCH   2   4
HETATM    4  C   UNL     1     -11.943  13.089  68.697  1.00  0.00    -0.263 C  
BRANCH   4   5
HETATM    5  C   UNL     1     -11.040  12.248  67.790  1.00  0.00    -0.304 C  
BRANCH   5   6
HETATM    6  C   UNL     1      -9.606  12.093  68.315  1.00  0.00    -0.210 C  
BRANCH   6   7
HETATM    7  N   UNL     1      -9.103  10.710  68.102  1.00  0.00    -0.143 NA 
HETATM    8  C   UNL     1      -8.241  10.570  66.995  1.00  0.00    -0.125 A  
HETATM    9  C   UNL     1      -6.919  11.033  67.090  1.00  0.00    -0.103 A  
HETATM   10  C   UNL     1      -6.014  10.857  66.041  1.00  0.00    -0.133 A  
HETATM   11  C   UNL     1      -6.427  10.237  64.868  1.00  0.00    -0.113 A  
HETATM   12  C   UNL     1      -7.737   9.776  64.755  1.00  0.00    -0.128 A  
HETATM   13  C   UNL     1      -8.646   9.931  65.817  1.00  0.00    -0.151 A  
HETATM   14  C   UNL     1     -10.026   9.352  65.715  1.00  0.00    -0.278 C  
HETATM   15  C   UNL     1     -10.199   8.185  66.679  1.00  0.00    -0.329 C  
HETATM   16  C   UNL     1     -10.208   8.473  68.167  1.00  0.00    -0.254 A  
HETATM   17  C   UNL     1     -10.719   7.429  68.972  1.00  0.00    -0.164 A  
HETATM   18  C   UNL     1     -10.795   7.540  70.357  1.00  0.00    -0.255 A  
HETATM   19  C   UNL     1     -10.364   8.704  70.970  1.00  0.00    -0.275 A  
HETATM   20  C   UNL     1      -9.850   9.744  70.192  1.00  0.00    -0.306 A  
HETATM   21  C   UNL     1      -9.749   9.657  68.784  1.00  0.00    -0.163 A  
ENDBRANCH   6   7
ENDBRANCH   5   6
ENDBRANCH   4   5
ENDBRANCH   2   4
TORSDOF 4
ENDMDL
MODEL      128
REMARK 921   NORMALIZED FREE ENERGY PREDICTED BY IDOCK:   -4.03 KCAL/MOL
REMARK 922        TOTAL FREE ENERGY PREDICTED BY IDOCK:   -5.26 KCAL/MOL
REMARK 923 INTER-LIGAND FREE ENERGY PREDICTED BY IDOCK:   -4.75 KCAL/MOL
REMARK 924 INTRA-LIGAND FREE ENERGY PREDICTED BY IDOCK:   -0.52 KCAL/MOL
REMARK 927      BINDING AFFINITY PREDICTED BY RF-SCORE:    0.00 PKD
ROOT
HETATM    1  C   UNL     1      -8.615  17.314  65.987  1.00  0.00    -0.092 C  
HETATM    2  N   UNL     1      -9.838  16.784  66.597  1.00  0.00    -0.264 NA 
HETATM    3  C   UNL     1     -10.539  17.863  67.301  1.00  0.00    -0.332 C  
ENDROOT
BRANCH   2   4
HETATM    4  C   UNL     1     -10.736  16.166  65.608  1.00  0.00    -0.310 C  
BRANCH   4   5
HETATM    5  C   UNL     1     -11.248  14.774  65.989  1.00  0.00    -0.341 C  
BRANCH   5   6
HETATM    6  C   UNL     1     -10.138  13.723  66.127  1.00  0.00    -0.307 C  
BRANCH   6   7
HETATM    7  N   UNL     1      -9.728  13.559  67.546  1.00  0.00    -0.222 NA 
HETATM    8  C   UNL     1     -10.679  12.903  68.354  1.00  0.00    -0.255 A  
HETATM    9  C   UNL     1     -10.834  11.512  68.242  1.00  0.00    -0.257 A  
HETATM   10  C   UNL     1     -11.719  10.814  69.067  1.00  0.00    -0.357 A  
HETATM   11  C   UNL     1     -12.483  11.503  70.001  1.00  0.00    -0.192 A  
HETATM   12  C   UNL     1     -12.346  12.884  70.122  1.00  0.00    -0.249 A  
HETATM   13  C   UNL     1     -11.440  13.588  69.309  1.00  0.00    -0.345 A  
HETATM   14  C   UNL     1     -11.238  15.061  69.511  1.00  0.00    -0.294 C  
HETATM   15  C   UNL     1      -9.852  15.348  70.073  1.00  0.00    -0.110 C  
HETATM   16  C   UNL     1      -8.646  15.097  69.189  1.00  0.00    -0.218 A  
HETATM   17  C   UNL     1      -7.448  15.705  69.628  1.00  0.00    -0.134 A  
HETATM   18  C   UNL     1      -6.255  15.570  68.924  1.00  0.00    -0.104 A  
HETATM   19  C   UNL     1      -6.236  14.823  67.759  1.00  0.00    -0.157 A  
HETATM   20  C   UNL     1      -7.407  14.208  67.313  1.00  0.00    -0.035 A  
HETATM   21  C   UNL     1      -8.632  14.317  68.011  1.00  0.00    -0.169 A  
ENDBRANCH   6   7
ENDBRANCH   5   6
ENDBRANCH   4   5
ENDBRANCH   2   4
TORSDOF 4
ENDMDL
MODEL      129
REMARK 921   NORMALIZED FREE ENERGY PREDICTED BY IDOCK:   -3.99 KCAL/MOL
REMARK 922        TOTAL FREE ENERGY PREDICTED BY IDOCK:   -5.21 KCAL/MOL
REMARK 923 INTER-LIGAND FREE ENERGY PREDICTED BY IDOCK:   -4.40 KCAL/MOL
REMARK 924 INTRA-LIGAND FREE ENERGY PREDICTED BY IDOCK:   -0.82 KCAL/MOL
REMARK 927      BINDING AFFINITY PREDICTED BY RF-SCORE:    0.00 PKD
ROOT
HETATM    1  C   UNL     1     -11.664   5.996  72.363  1.00  0.00    -0.271 C  
HETATM    2  N   UNL     1     -12.100   7.133  71.547  1.00  0.00    -0.321 NA 
HETATM    3  C   UNL     1     -13.564   7.220  71.574  1.00  0.00    -0.356 C  
ENDROOT
BRANCH   2   4
HETATM    4  C   UNL     1     -11.516   8.407  72.001  1.00  0.00    -0.349 C  
BRANCH   4   5
HETATM    5  C   UNL     1     -10.658   9.126  70.955  1.00  0.00    -0.362 C  
BRANCH   5   6
HETATM    6  C   UNL     1      -9.160   8.804  71.056  1.00  0.00    -0.218 C  
BRANCH   6   7
HETATM    7  N   UNL     1      -8.759   7.795  70.042  1.00  0.00    -0.140 NA 
HETATM    8  C   UNL     1      -8.900   8.225  68.707  1.00  0.00    -0.137 A  
HETATM    9  C   UNL     1      -7.968   9.128  68.172  1.00  0.00    -0.100 A  
HETATM   10  C   UNL     1      -8.033   9.530  66.836  1.00  0.00    -0.109 A  
HETATM   11  C   UNL     1      -9.052   9.054  66.020  1.00  0.00    -0.257 A  
HETATM   12  C   UNL     1      -9.989   8.161  66.536  1.00  0.00    -0.302 A  
HETATM   13  C   UNL     1      -9.914   7.736  67.874  1.00  0.00    -0.212 A  
HETATM   14  C   UNL     1     -10.877   6.707  68.390  1.00  0.00    -0.320 C  
HETATM   15  C   UNL     1     -10.164   5.392  68.679  1.00  0.00    -0.246 C  
HETATM   16  C   UNL     1      -9.177   5.343  69.829  1.00  0.00    -0.169 A  
HETATM   17  C   UNL     1      -8.830   4.042  70.260  1.00  0.00    -0.141 A  
HETATM   18  C   UNL     1      -7.938   3.829  71.306  1.00  0.00    -0.064 A  
HETATM   19  C   UNL     1      -7.373   4.917  71.949  1.00  0.00    -0.080 A  
HETATM   20  C   UNL     1      -7.697   6.209  71.532  1.00  0.00    -0.101 A  
HETATM   21  C   UNL     1      -8.592   6.459  70.466  1.00  0.00    -0.143 A  
ENDBRANCH   6   7
ENDBRANCH   5   6
ENDBRANCH   4   5
ENDBRANCH   2   4
TORSDOF 4
ENDMDL
MODEL      130
REMARK 921   NORMALIZED FREE ENERGY PREDICTED BY IDOCK:   -3.97 KCAL/MOL
REMARK 922        TOTAL FREE ENERGY PREDICTED BY IDOCK:   -5.20 KCAL/MOL
REMARK 923 INTER-LIGAND FREE ENERGY PREDICTED BY IDOCK:   -4.64 KCAL/MOL
REMARK 924 INTRA-LIGAND FREE ENERGY PREDICTED BY IDOCK:   -0.56 KCAL/MOL
REMARK 927      BINDING AFFINITY PREDICTED BY RF-SCORE:    0.00 PKD
ROOT
HETATM    1  C   UNL     1      -8.065   7.617  64.419  1.00  0.00    -0.084 C  
HETATM    2  N   UNL     1      -7.572   8.871  63.844  1.00  0.00    -0.116 NA 
HETATM    3  C   UNL     1      -8.161   9.063  62.515  1.00  0.00    -0.152 C  
ENDROOT
BRANCH   2   4
HETATM    4  C   UNL     1      -7.870  10.035  64.695  1.00  0.00    -0.145 C  
BRANCH   4   5
HETATM    5  C   UNL     1      -9.079  10.862  64.248  1.00  0.00    -0.168 C  
BRANCH   5   6
HETATM    6  C   UNL     1     -10.401  10.428  64.897  1.00  0.00    -0.168 C  
BRANCH   6   7
HETATM    7  N   UNL     1     -10.489  10.901  66.304  1.00  0.00    -0.256 NA 
HETATM    8  C   UNL     1     -10.688  12.290  66.438  1.00  0.00    -0.251 A  
HETATM    9  C   UNL     1     -11.958  12.831  66.180  1.00  0.00    -0.476 A  
HETATM   10  C   UNL     1     -12.216  14.192  66.363  1.00  0.00    -0.473 A  
HETATM   11  C   UNL     1     -11.196  15.038  66.781  1.00  0.00    -0.322 A  
HETATM   12  C   UNL     1      -9.928  14.519  67.036  1.00  0.00    -0.255 A  
HETATM   13  C   UNL     1      -9.670  13.146  66.876  1.00  0.00    -0.243 A  
HETATM   14  C   UNL     1      -8.326  12.588  67.239  1.00  0.00    -0.185 C  
HETATM   15  C   UNL     1      -8.422  11.697  68.471  1.00  0.00    -0.135 C  
HETATM   16  C   UNL     1      -9.165  10.381  68.355  1.00  0.00    -0.147 A  
HETATM   17  C   UNL     1      -8.916   9.463  69.401  1.00  0.00    -0.157 A  
HETATM   18  C   UNL     1      -9.521   8.210  69.438  1.00  0.00    -0.162 A  
HETATM   19  C   UNL     1     -10.389   7.845  68.423  1.00  0.00    -0.235 A  
HETATM   20  C   UNL     1     -10.654   8.741  67.385  1.00  0.00    -0.304 A  
HETATM   21  C   UNL     1     -10.063  10.025  67.325  1.00  0.00    -0.209 A  
ENDBRANCH   6   7
ENDBRANCH   5   6
ENDBRANCH   4   5
ENDBRANCH   2   4
TORSDOF 4
ENDMDL
MODEL      131
REMARK 921   NORMALIZED FREE ENERGY PREDICTED BY IDOCK:   -3.97 KCAL/MOL
REMARK 922        TOTAL FREE ENERGY PREDICTED BY IDOCK:   -5.19 KCAL/MOL
REMARK 923 INTER-LIGAND FREE ENERGY PREDICTED BY IDOCK:   -4.40 KCAL/MOL
REMARK 924 INTRA-LIGAND FREE ENERGY PREDICTED BY IDOCK:   -0.80 KCAL/MOL
REMARK 927      BINDING AFFINITY PREDICTED BY RF-SCORE:    0.00 PKD
ROOT
HETATM    1  C   UNL     1     -10.605   8.602  70.393  1.00  0.00    -0.220 C  
HETATM    2  N   UNL     1     -11.240   9.841  69.932  1.00  0.00    -0.242 NA 
HETATM    3  C   UNL     1     -12.143  10.342  70.973  1.00  0.00    -0.386 C  
ENDROOT
BRANCH   2   4
HETATM    4  C   UNL     1     -10.257  10.879  69.582  1.00  0.00     0.021 C  
BRANCH   4   5
HETATM    5  C   UNL     1      -9.778  10.842  68.127  1.00  0.00    -0.169 C  
BRANCH   5   6
HETATM    6  C   UNL     1     -10.777  10.185  67.163  1.00  0.00    -0.221 C  
BRANCH   6   7
HETATM    7  N   UNL     1     -10.083   9.285  66.204  1.00  0.00    -0.276 NA 
HETATM    8  C   UNL     1      -9.819   7.995  66.706  1.00  0.00    -0.257 A  
HETATM    9  C   UNL     1     -10.869   7.069  66.811  1.00  0.00    -0.228 A  
HETATM   10  C   UNL     1     -10.639   5.760  67.242  1.00  0.00    -0.353 A  
HETATM   11  C   UNL     1      -9.356   5.366  67.601  1.00  0.00    -0.122 A  
HETATM   12  C   UNL     1      -8.303   6.274  67.509  1.00  0.00    -0.113 A  
HETATM   13  C   UNL     1      -8.526   7.585  67.053  1.00  0.00    -0.122 A  
HETATM   14  C   UNL     1      -7.369   8.524  66.875  1.00  0.00    -0.083 C  
HETATM   15  C   UNL     1      -7.128   8.816  65.399  1.00  0.00    -0.083 C  
HETATM   16  C   UNL     1      -8.165   9.623  64.643  1.00  0.00    -0.149 A  
HETATM   17  C   UNL     1      -7.724  10.151  63.408  1.00  0.00    -0.153 A  
HETATM   18  C   UNL     1      -8.557  10.916  62.597  1.00  0.00    -0.272 A  
HETATM   19  C   UNL     1      -9.854  11.173  63.007  1.00  0.00    -0.368 A  
HETATM   20  C   UNL     1     -10.310  10.654  64.220  1.00  0.00    -0.325 A  
HETATM   21  C   UNL     1      -9.492   9.865  65.061  1.00  0.00    -0.280 A  
ENDBRANCH   6   7
ENDBRANCH   5   6
ENDBRANCH   4   5
ENDBRANCH   2   4
TORSDOF 4
ENDMDL
MODEL      132
REMARK 921   NORMALIZED FREE ENERGY PREDICTED BY IDOCK:   -3.96 KCAL/MOL
REMARK 922        TOTAL FREE ENERGY PREDICTED BY IDOCK:   -5.19 KCAL/MOL
REMARK 923 INTER-LIGAND FREE ENERGY PREDICTED BY IDOCK:   -4.47 KCAL/MOL
REMARK 924 INTRA-LIGAND FREE ENERGY PREDICTED BY IDOCK:   -0.71 KCAL/MOL
REMARK 927      BINDING AFFINITY PREDICTED BY RF-SCORE:    0.00 PKD
ROOT
HETATM    1  C   UNL     1     -12.911  10.078  71.002  1.00  0.00    -0.365 C  
HETATM    2  N   UNL     1     -12.326   8.798  71.413  1.00  0.00    -0.304 NA 
HETATM    3  C   UNL     1     -13.387   7.913  71.904  1.00  0.00    -0.282 C  
ENDROOT
BRANCH   2   4
HETATM    4  C   UNL     1     -11.593   8.140  70.318  1.00  0.00     0.013 C  
BRANCH   4   5
HETATM    5  C   UNL     1     -11.537   6.612  70.413  1.00  0.00    -0.457 C  
BRANCH   5   6
HETATM    6  C   UNL     1     -10.146   6.025  70.138  1.00  0.00    -0.194 C  
BRANCH   6   7
HETATM    7  N   UNL     1      -9.507   5.549  71.393  1.00  0.00    -0.147 NA 
HETATM    8  C   UNL     1      -9.875   4.243  71.774  1.00  0.00    -0.180 A  
HETATM    9  C   UNL     1      -9.331   3.147  71.085  1.00  0.00    -0.211 A  
HETATM   10  C   UNL     1      -9.619   1.835  71.471  1.00  0.00    -0.200 A  
HETATM   11  C   UNL     1     -10.479   1.601  72.537  1.00  0.00    -0.229 A  
HETATM   12  C   UNL     1     -11.032   2.677  73.228  1.00  0.00    -0.263 A  
HETATM   13  C   UNL     1     -10.727   3.999  72.858  1.00  0.00    -0.217 A  
HETATM   14  C   UNL     1     -11.259   5.146  73.665  1.00  0.00    -0.198 C  
HETATM   15  C   UNL     1     -10.135   5.853  74.412  1.00  0.00    -0.302 C  
HETATM   16  C   UNL     1      -9.109   6.628  73.609  1.00  0.00    -0.155 A  
HETATM   17  C   UNL     1      -8.324   7.532  74.360  1.00  0.00    -0.255 A  
HETATM   18  C   UNL     1      -7.340   8.318  73.768  1.00  0.00    -0.185 A  
HETATM   19  C   UNL     1      -7.121   8.218  72.405  1.00  0.00    -0.117 A  
HETATM   20  C   UNL     1      -7.881   7.325  71.647  1.00  0.00    -0.091 A  
HETATM   21  C   UNL     1      -8.880   6.505  72.220  1.00  0.00    -0.134 A  
ENDBRANCH   6   7
ENDBRANCH   5   6
ENDBRANCH   4   5
ENDBRANCH   2   4
TORSDOF 4
ENDMDL
MODEL      133
REMARK 921   NORMALIZED FREE ENERGY PREDICTED BY IDOCK:   -3.96 KCAL/MOL
REMARK 922        TOTAL FREE ENERGY PREDICTED BY IDOCK:   -5.19 KCAL/MOL
REMARK 923 INTER-LIGAND FREE ENERGY PREDICTED BY IDOCK:   -4.56 KCAL/MOL
REMARK 924 INTRA-LIGAND FREE ENERGY PREDICTED BY IDOCK:   -0.63 KCAL/MOL
REMARK 927      BINDING AFFINITY PREDICTED BY RF-SCORE:    0.00 PKD
ROOT
HETATM    1  C   UNL     1     -12.553  13.564  64.015  1.00  0.00    -0.100 C  
HETATM    2  N   UNL     1     -12.009  12.541  64.913  1.00  0.00    -0.393 NA 
HETATM    3  C   UNL     1     -11.151  11.629  64.151  1.00  0.00    -0.364 C  
ENDROOT
BRANCH   2   4
HETATM    4  C   UNL     1     -11.250  13.124  66.032  1.00  0.00    -0.292 C  
BRANCH   4   5
HETATM    5  C   UNL     1     -11.272  14.654  66.092  1.00  0.00    -0.341 C  
BRANCH   5   6
HETATM    6  C   UNL     1      -9.989  15.313  65.567  1.00  0.00    -0.348 C  
BRANCH   6   7
HETATM    7  N   UNL     1      -9.354  16.160  66.612  1.00  0.00    -0.225 NA 
HETATM    8  C   UNL     1      -8.462  15.469  67.457  1.00  0.00    -0.173 A  
HETATM    9  C   UNL     1      -7.191  15.117  66.975  1.00  0.00     0.060 A  
HETATM   10  C   UNL     1      -6.253  14.489  67.798  1.00  0.00    -0.152 A  
HETATM   11  C   UNL     1      -6.585  14.179  69.111  1.00  0.00    -0.115 A  
HETATM   12  C   UNL     1      -7.843  14.516  69.604  1.00  0.00     0.183 A  
HETATM   13  C   UNL     1      -8.782  15.169  68.786  1.00  0.00    -0.194 A  
HETATM   14  C   UNL     1     -10.100  15.604  69.356  1.00  0.00    -0.269 C  
HETATM   15  C   UNL     1     -10.182  17.123  69.438  1.00  0.00    -0.164 C  
HETATM   16  C   UNL     1     -10.246  17.915  68.147  1.00  0.00    -0.386 A  
HETATM   17  C   UNL     1     -10.672  19.255  68.291  1.00  0.00    -0.142 A  
HETATM   18  C   UNL     1     -10.785  20.111  67.199  1.00  0.00    -0.230 A  
HETATM   19  C   UNL     1     -10.477  19.641  65.934  1.00  0.00    -0.591 A  
HETATM   20  C   UNL     1     -10.047  18.323  65.773  1.00  0.00    -0.022 A  
HETATM   21  C   UNL     1      -9.912  17.432  66.863  1.00  0.00    -0.300 A  
ENDBRANCH   6   7
ENDBRANCH   5   6
ENDBRANCH   4   5
ENDBRANCH   2   4
TORSDOF 4
ENDMDL
MODEL      134
REMARK 921   NORMALIZED FREE ENERGY PREDICTED BY IDOCK:   -3.96 KCAL/MOL
REMARK 922        TOTAL FREE ENERGY PREDICTED BY IDOCK:   -5.19 KCAL/MOL
REMARK 923 INTER-LIGAND FREE ENERGY PREDICTED BY IDOCK:   -4.44 KCAL/MOL
REMARK 924 INTRA-LIGAND FREE ENERGY PREDICTED BY IDOCK:   -0.74 KCAL/MOL
REMARK 927      BINDING AFFINITY PREDICTED BY RF-SCORE:    0.00 PKD
ROOT
HETATM    1  C   UNL     1     -11.486  14.878  65.714  1.00  0.00    -0.281 C  
HETATM    2  N   UNL     1     -12.034  13.576  66.106  1.00  0.00    -0.388 NA 
HETATM    3  C   UNL     1     -12.901  13.071  65.037  1.00  0.00    -0.295 C  
ENDROOT
BRANCH   2   4
HETATM    4  C   UNL     1     -10.981  12.591  66.402  1.00  0.00    -0.273 C  
BRANCH   4   5
HETATM    5  C   UNL     1     -11.153  11.850  67.732  1.00  0.00    -0.295 C  
BRANCH   5   6
HETATM    6  C   UNL     1      -9.937  11.956  68.662  1.00  0.00    -0.154 C  
BRANCH   6   7
HETATM    7  N   UNL     1      -9.235  10.651  68.777  1.00  0.00    -0.173 NA 
HETATM    8  C   UNL     1      -8.090  10.533  67.964  1.00  0.00    -0.111 A  
HETATM    9  C   UNL     1      -6.910  11.197  68.337  1.00  0.00    -0.066 A  
HETATM   10  C   UNL     1      -5.735  11.057  67.595  1.00  0.00    -0.043 A  
HETATM   11  C   UNL     1      -5.731  10.269  66.450  1.00  0.00    -0.064 A  
HETATM   12  C   UNL     1      -6.894   9.607  66.062  1.00  0.00    -0.088 A  
HETATM   13  C   UNL     1      -8.073   9.728  66.819  1.00  0.00    -0.120 A  
HETATM   14  C   UNL     1      -9.292   8.940  66.439  1.00  0.00    -0.262 C  
HETATM   15  C   UNL     1      -9.587   7.861  67.474  1.00  0.00    -0.190 C  
HETATM   16  C   UNL     1     -10.042   8.290  68.855  1.00  0.00    -0.208 A  
HETATM   17  C   UNL     1     -10.629   7.265  69.633  1.00  0.00    -0.246 A  
HETATM   18  C   UNL     1     -11.099   7.499  70.922  1.00  0.00    -0.279 A  
HETATM   19  C   UNL     1     -10.996   8.770  71.461  1.00  0.00    -0.377 A  
HETATM   20  C   UNL     1     -10.413   9.793  70.712  1.00  0.00    -0.339 A  
HETATM   21  C   UNL     1      -9.916   9.585  69.404  1.00  0.00    -0.191 A  
ENDBRANCH   6   7
ENDBRANCH   5   6
ENDBRANCH   4   5
ENDBRANCH   2   4
TORSDOF 4
ENDMDL
MODEL      135
REMARK 921   NORMALIZED FREE ENERGY PREDICTED BY IDOCK:   -3.94 KCAL/MOL
REMARK 922        TOTAL FREE ENERGY PREDICTED BY IDOCK:   -5.15 KCAL/MOL
REMARK 923 INTER-LIGAND FREE ENERGY PREDICTED BY IDOCK:   -4.50 KCAL/MOL
REMARK 924 INTRA-LIGAND FREE ENERGY PREDICTED BY IDOCK:   -0.66 KCAL/MOL
REMARK 927      BINDING AFFINITY PREDICTED BY RF-SCORE:    0.00 PKD
ROOT
HETATM    1  C   UNL     1      -8.727   6.109  67.961  1.00  0.00    -0.113 C  
HETATM    2  N   UNL     1     -10.173   5.870  67.964  1.00  0.00    -0.166 NA 
HETATM    3  C   UNL     1     -10.665   5.869  69.345  1.00  0.00    -0.336 C  
ENDROOT
BRANCH   2   4
HETATM    4  C   UNL     1     -10.909   6.871  67.172  1.00  0.00    -0.377 C  
BRANCH   4   5
HETATM    5  C   UNL     1     -10.260   8.258  67.133  1.00  0.00    -0.365 C  
BRANCH   5   6
HETATM    6  C   UNL     1     -11.149   9.373  67.702  1.00  0.00     0.117 C  
BRANCH   6   7
HETATM    7  N   UNL     1     -10.329  10.450  68.317  1.00  0.00    -0.162 NA 
HETATM    8  C   UNL     1     -10.505  11.720  67.731  1.00  0.00    -0.194 A  
HETATM    9  C   UNL     1     -11.671  12.451  68.011  1.00  0.00    -0.414 A  
HETATM   10  C   UNL     1     -11.857  13.739  67.503  1.00  0.00    -0.422 A  
HETATM   11  C   UNL     1     -10.888  14.305  66.683  1.00  0.00    -0.301 A  
HETATM   12  C   UNL     1      -9.728  13.591  66.390  1.00  0.00    -0.296 A  
HETATM   13  C   UNL     1      -9.526  12.304  66.918  1.00  0.00    -0.217 A  
HETATM   14  C   UNL     1      -8.234  11.583  66.666  1.00  0.00    -0.156 C  
HETATM   15  C   UNL     1      -7.422  11.459  67.950  1.00  0.00    -0.095 C  
HETATM   16  C   UNL     1      -7.946  10.560  69.052  1.00  0.00    -0.136 A  
HETATM   17  C   UNL     1      -6.996  10.216  70.041  1.00  0.00    -0.145 A  
HETATM   18  C   UNL     1      -7.321   9.396  71.118  1.00  0.00     0.008 A  
HETATM   19  C   UNL     1      -8.608   8.898  71.227  1.00  0.00    -0.259 A  
HETATM   20  C   UNL     1      -9.563   9.234  70.265  1.00  0.00    -0.276 A  
HETATM   21  C   UNL     1      -9.267  10.072  69.166  1.00  0.00    -0.190 A  
ENDBRANCH   6   7
ENDBRANCH   5   6
ENDBRANCH   4   5
ENDBRANCH   2   4
TORSDOF 4
ENDMDL
MODEL      136
REMARK 921   NORMALIZED FREE ENERGY PREDICTED BY IDOCK:   -3.91 KCAL/MOL
REMARK 922        TOTAL FREE ENERGY PREDICTED BY IDOCK:   -5.13 KCAL/MOL
REMARK 923 INTER-LIGAND FREE ENERGY PREDICTED BY IDOCK:   -4.43 KCAL/MOL
REMARK 924 INTRA-LIGAND FREE ENERGY PREDICTED BY IDOCK:   -0.69 KCAL/MOL
REMARK 927      BINDING AFFINITY PREDICTED BY RF-SCORE:    0.00 PKD
ROOT
HETATM    1  C   UNL     1      -6.553   8.950  66.536  1.00  0.00    -0.067 C  
HETATM    2  N   UNL     1      -7.641   9.396  65.661  1.00  0.00    -0.094 NA 
HETATM    3  C   UNL     1      -7.100   9.723  64.338  1.00  0.00    -0.129 C  
ENDROOT
BRANCH   2   4
HETATM    4  C   UNL     1      -8.705   8.386  65.529  1.00  0.00    -0.162 C  
BRANCH   4   5
HETATM    5  C   UNL     1      -9.056   7.654  66.828  1.00  0.00    -0.181 C  
BRANCH   5   6
HETATM    6  C   UNL     1     -10.521   7.823  67.257  1.00  0.00    -0.322 C  
BRANCH   6   7
HETATM    7  N   UNL     1     -10.623   8.596  68.523  1.00  0.00    -0.166 NA 
HETATM    8  C   UNL     1     -10.469   9.989  68.367  1.00  0.00    -0.205 A  
HETATM    9  C   UNL     1     -11.524  10.741  67.826  1.00  0.00    -0.283 A  
HETATM   10  C   UNL     1     -11.439  12.131  67.714  1.00  0.00    -0.398 A  
HETATM   11  C   UNL     1     -10.282  12.787  68.117  1.00  0.00    -0.241 A  
HETATM   12  C   UNL     1      -9.223  12.055  68.650  1.00  0.00    -0.043 A  
HETATM   13  C   UNL     1      -9.314  10.659  68.787  1.00  0.00    -0.183 A  
HETATM   14  C   UNL     1      -8.202   9.895  69.444  1.00  0.00    -0.147 C  
HETATM   15  C   UNL     1      -8.647   9.339  70.791  1.00  0.00    -0.254 C  
HETATM   16  C   UNL     1      -9.689   8.239  70.810  1.00  0.00    -0.197 A  
HETATM   17  C   UNL     1      -9.791   7.536  72.033  1.00  0.00    -0.200 A  
HETATM   18  C   UNL     1     -10.700   6.497  72.209  1.00  0.00    -0.252 A  
HETATM   19  C   UNL     1     -11.527   6.134  71.161  1.00  0.00    -0.314 A  
HETATM   20  C   UNL     1     -11.447   6.820  69.948  1.00  0.00    -0.355 A  
HETATM   21  C   UNL     1     -10.542   7.887  69.741  1.00  0.00    -0.242 A  
ENDBRANCH   6   7
ENDBRANCH   5   6
ENDBRANCH   4   5
ENDBRANCH   2   4
TORSDOF 4
ENDMDL
MODEL      137
REMARK 921   NORMALIZED FREE ENERGY PREDICTED BY IDOCK:   -3.90 KCAL/MOL
REMARK 922        TOTAL FREE ENERGY PREDICTED BY IDOCK:   -5.10 KCAL/MOL
REMARK 923 INTER-LIGAND FREE ENERGY PREDICTED BY IDOCK:   -4.53 KCAL/MOL
REMARK 924 INTRA-LIGAND FREE ENERGY PREDICTED BY IDOCK:   -0.58 KCAL/MOL
REMARK 927      BINDING AFFINITY PREDICTED BY RF-SCORE:    0.00 PKD
ROOT
HETATM    1  C   UNL     1      -9.742  12.793  66.425  1.00  0.00    -0.261 C  
HETATM    2  N   UNL     1     -10.472  12.071  67.472  1.00  0.00    -0.209 NA 
HETATM    3  C   UNL     1     -11.803  12.664  67.637  1.00  0.00    -0.329 C  
ENDROOT
BRANCH   2   4
HETATM    4  C   UNL     1     -10.598  10.633  67.178  1.00  0.00    -0.260 C  
BRANCH   4   5
HETATM    5  C   UNL     1      -9.926   9.710  68.199  1.00  0.00    -0.185 C  
BRANCH   5   6
HETATM    6  C   UNL     1     -10.902   9.088  69.208  1.00  0.00    -0.113 C  
BRANCH   6   7
HETATM    7  N   UNL     1     -10.454   7.732  69.620  1.00  0.00    -0.226 NA 
HETATM    8  C   UNL     1     -10.154   7.611  70.992  1.00  0.00    -0.189 A  
HETATM    9  C   UNL     1     -11.203   7.544  71.923  1.00  0.00    -0.286 A  
HETATM   10  C   UNL     1     -10.953   7.361  73.285  1.00  0.00    -0.367 A  
HETATM   11  C   UNL     1      -9.643   7.268  73.740  1.00  0.00    -0.330 A  
HETATM   12  C   UNL     1      -8.589   7.338  72.831  1.00  0.00    -0.148 A  
HETATM   13  C   UNL     1      -8.838   7.499  71.456  1.00  0.00    -0.133 A  
HETATM   14  C   UNL     1      -7.698   7.484  70.480  1.00  0.00    -0.094 C  
HETATM   15  C   UNL     1      -7.742   6.233  69.613  1.00  0.00    -0.099 C  
HETATM   16  C   UNL     1      -8.871   6.087  68.611  1.00  0.00    -0.109 A  
HETATM   17  C   UNL     1      -8.660   5.106  67.616  1.00  0.00    -0.104 A  
HETATM   18  C   UNL     1      -9.602   4.853  66.623  1.00  0.00    -0.171 A  
HETATM   19  C   UNL     1     -10.779   5.581  66.602  1.00  0.00    -0.332 A  
HETATM   20  C   UNL     1     -11.008   6.550  67.581  1.00  0.00    -0.426 A  
HETATM   21  C   UNL     1     -10.076   6.823  68.609  1.00  0.00    -0.159 A  
ENDBRANCH   6   7
ENDBRANCH   5   6
ENDBRANCH   4   5
ENDBRANCH   2   4
TORSDOF 4
ENDMDL
MODEL      138
REMARK 921   NORMALIZED FREE ENERGY PREDICTED BY IDOCK:   -3.89 KCAL/MOL
REMARK 922        TOTAL FREE ENERGY PREDICTED BY IDOCK:   -5.10 KCAL/MOL
REMARK 923 INTER-LIGAND FREE ENERGY PREDICTED BY IDOCK:   -4.78 KCAL/MOL
REMARK 924 INTRA-LIGAND FREE ENERGY PREDICTED BY IDOCK:   -0.32 KCAL/MOL
REMARK 927      BINDING AFFINITY PREDICTED BY RF-SCORE:    0.00 PKD
ROOT
HETATM    1  C   UNL     1     -10.514  16.729  69.678  1.00  0.00    -0.209 C  
HETATM    2  N   UNL     1     -11.077  15.377  69.619  1.00  0.00    -0.255 NA 
HETATM    3  C   UNL     1     -11.689  15.047  70.910  1.00  0.00    -0.328 C  
ENDROOT
BRANCH   2   4
HETATM    4  C   UNL     1     -12.070  15.230  68.543  1.00  0.00    -0.085 C  
BRANCH   4   5
HETATM    5  C   UNL     1     -11.604  14.386  67.352  1.00  0.00    -0.398 C  
BRANCH   5   6
HETATM    6  C   UNL     1     -10.699  13.210  67.743  1.00  0.00    -0.240 C  
BRANCH   6   7
HETATM    7  N   UNL     1      -9.535  13.100  66.825  1.00  0.00    -0.246 NA 
HETATM    8  C   UNL     1      -9.756  12.274  65.704  1.00  0.00    -0.192 A  
HETATM    9  C   UNL     1     -10.543  12.750  64.644  1.00  0.00    -0.371 A  
HETATM   10  C   UNL     1     -10.735  11.990  63.487  1.00  0.00    -0.513 A  
HETATM   11  C   UNL     1     -10.161  10.729  63.386  1.00  0.00    -0.345 A  
HETATM   12  C   UNL     1      -9.380  10.239  64.431  1.00  0.00    -0.329 A  
HETATM   13  C   UNL     1      -9.166  11.009  65.587  1.00  0.00    -0.231 A  
HETATM   14  C   UNL     1      -8.253  10.507  66.666  1.00  0.00    -0.129 C  
HETATM   15  C   UNL     1      -6.983  11.345  66.738  1.00  0.00    -0.128 C  
HETATM   16  C   UNL     1      -7.090  12.780  67.214  1.00  0.00    -0.088 A  
HETATM   17  C   UNL     1      -5.865  13.376  67.591  1.00  0.00    -0.092 A  
HETATM   18  C   UNL     1      -5.796  14.687  68.051  1.00  0.00    -0.154 A  
HETATM   19  C   UNL     1      -6.958  15.434  68.149  1.00  0.00    -0.131 A  
HETATM   20  C   UNL     1      -8.177  14.866  67.774  1.00  0.00    -0.164 A  
HETATM   21  C   UNL     1      -8.278  13.540  67.292  1.00  0.00    -0.154 A  
ENDBRANCH   6   7
ENDBRANCH   5   6
ENDBRANCH   4   5
ENDBRANCH   2   4
TORSDOF 4
ENDMDL
MODEL      139
REMARK 921   NORMALIZED FREE ENERGY PREDICTED BY IDOCK:   -3.87 KCAL/MOL
REMARK 922        TOTAL FREE ENERGY PREDICTED BY IDOCK:   -5.07 KCAL/MOL
REMARK 923 INTER-LIGAND FREE ENERGY PREDICTED BY IDOCK:   -4.90 KCAL/MOL
REMARK 924 INTRA-LIGAND FREE ENERGY PREDICTED BY IDOCK:   -0.17 KCAL/MOL
REMARK 927      BINDING AFFINITY PREDICTED BY RF-SCORE:    0.00 PKD
ROOT
HETATM    1  C   UNL     1      -6.110  16.711  69.497  1.00  0.00    -0.214 C  
HETATM    2  N   UNL     1      -7.323  16.351  68.756  1.00  0.00    -0.190 NA 
HETATM    3  C   UNL     1      -8.066  17.568  68.416  1.00  0.00    -0.266 C  
ENDROOT
BRANCH   2   4
HETATM    4  C   UNL     1      -7.027  15.587  67.533  1.00  0.00    -0.194 C  
BRANCH   4   5
HETATM    5  C   UNL     1      -6.792  14.090  67.753  1.00  0.00    -0.187 C  
BRANCH   5   6
HETATM    6  C   UNL     1      -8.061  13.312  68.127  1.00  0.00    -0.159 C  
BRANCH   6   7
HETATM    7  N   UNL     1      -8.568  12.527  66.972  1.00  0.00    -0.197 NA 
HETATM    8  C   UNL     1      -9.750  13.036  66.397  1.00  0.00    -0.268 A  
HETATM    9  C   UNL     1      -9.683  14.180  65.586  1.00  0.00    -0.210 A  
HETATM   10  C   UNL     1     -10.819  14.681  64.945  1.00  0.00    -0.436 A  
HETATM   11  C   UNL     1     -12.047  14.058  65.130  1.00  0.00    -0.418 A  
HETATM   12  C   UNL     1     -12.133  12.925  65.936  1.00  0.00    -0.503 A  
HETATM   13  C   UNL     1     -10.988  12.404  66.564  1.00  0.00    -0.312 A  
HETATM   14  C   UNL     1     -11.080  11.134  67.357  1.00  0.00    -0.370 C  
HETATM   15  C   UNL     1     -10.337  10.002  66.658  1.00  0.00    -0.281 C  
HETATM   16  C   UNL     1      -8.826  10.077  66.567  1.00  0.00    -0.154 A  
HETATM   17  C   UNL     1      -8.189   8.859  66.236  1.00  0.00    -0.111 A  
HETATM   18  C   UNL     1      -6.805   8.763  66.116  1.00  0.00    -0.073 A  
HETATM   19  C   UNL     1      -6.026   9.888  66.328  1.00  0.00    -0.064 A  
HETATM   20  C   UNL     1      -6.638  11.101  66.647  1.00  0.00    -0.137 A  
HETATM   21  C   UNL     1      -8.041  11.234  66.766  1.00  0.00    -0.159 A  
ENDBRANCH   6   7
ENDBRANCH   5   6
ENDBRANCH   4   5
ENDBRANCH   2   4
TORSDOF 4
ENDMDL
MODEL      140
REMARK 921   NORMALIZED FREE ENERGY PREDICTED BY IDOCK:   -3.86 KCAL/MOL
REMARK 922        TOTAL FREE ENERGY PREDICTED BY IDOCK:   -5.06 KCAL/MOL
REMARK 923 INTER-LIGAND FREE ENERGY PREDICTED BY IDOCK:   -5.27 KCAL/MOL
REMARK 924 INTRA-LIGAND FREE ENERGY PREDICTED BY IDOCK:    0.21 KCAL/MOL
REMARK 927      BINDING AFFINITY PREDICTED BY RF-SCORE:    0.00 PKD
ROOT
HETATM    1  C   UNL     1     -11.474   8.119  72.200  1.00  0.00    -0.350 C  
HETATM    2  N   UNL     1     -12.105   9.035  71.246  1.00  0.00    -0.304 NA 
HETATM    3  C   UNL     1     -13.040   9.913  71.958  1.00  0.00    -0.448 C  
ENDROOT
BRANCH   2   4
HETATM    4  C   UNL     1     -11.120   9.846  70.510  1.00  0.00    -0.332 C  
BRANCH   4   5
HETATM    5  C   UNL     1     -11.150   9.665  68.990  1.00  0.00    -0.104 C  
BRANCH   5   6
HETATM    6  C   UNL     1     -11.485  10.950  68.220  1.00  0.00    -0.305 C  
BRANCH   6   7
HETATM    7  N   UNL     1     -10.603  12.071  68.638  1.00  0.00    -0.229 NA 
HETATM    8  C   UNL     1     -11.288  13.178  69.178  1.00  0.00    -0.281 A  
HETATM    9  C   UNL     1     -11.803  13.101  70.482  1.00  0.00    -0.184 A  
HETATM   10  C   UNL     1     -12.432  14.196  71.078  1.00  0.00    -0.438 A  
HETATM   11  C   UNL     1     -12.579  15.380  70.366  1.00  0.00    -0.433 A  
HETATM   12  C   UNL     1     -12.079  15.473  69.069  1.00  0.00    -0.246 A  
HETATM   13  C   UNL     1     -11.425  14.380  68.473  1.00  0.00    -0.326 A  
HETATM   14  C   UNL     1     -10.814  14.523  67.110  1.00  0.00    -0.296 C  
HETATM   15  C   UNL     1      -9.293  14.475  67.188  1.00  0.00    -0.225 C  
HETATM   16  C   UNL     1      -8.630  13.168  67.572  1.00  0.00    -0.196 A  
HETATM   17  C   UNL     1      -7.248  13.094  67.284  1.00  0.00    -0.045 A  
HETATM   18  C   UNL     1      -6.497  11.959  67.575  1.00  0.00    -0.111 A  
HETATM   19  C   UNL     1      -7.115  10.868  68.161  1.00  0.00    -0.077 A  
HETATM   20  C   UNL     1      -8.477  10.924  68.460  1.00  0.00    -0.147 A  
HETATM   21  C   UNL     1      -9.266  12.066  68.187  1.00  0.00    -0.195 A  
ENDBRANCH   6   7
ENDBRANCH   5   6
ENDBRANCH   4   5
ENDBRANCH   2   4
TORSDOF 4
ENDMDL
MODEL      141
REMARK 921   NORMALIZED FREE ENERGY PREDICTED BY IDOCK:   -3.81 KCAL/MOL
REMARK 922        TOTAL FREE ENERGY PREDICTED BY IDOCK:   -4.99 KCAL/MOL
REMARK 923 INTER-LIGAND FREE ENERGY PREDICTED BY IDOCK:   -4.79 KCAL/MOL
REMARK 924 INTRA-LIGAND FREE ENERGY PREDICTED BY IDOCK:   -0.20 KCAL/MOL
REMARK 927      BINDING AFFINITY PREDICTED BY RF-SCORE:    0.00 PKD
ROOT
HETATM    1  C   UNL     1     -11.353   5.606  72.531  1.00  0.00    -0.294 C  
HETATM    2  N   UNL     1     -11.971   6.893  72.196  1.00  0.00    -0.288 NA 
HETATM    3  C   UNL     1     -11.115   7.983  72.674  1.00  0.00    -0.387 C  
ENDROOT
BRANCH   2   4
HETATM    4  C   UNL     1     -12.210   7.042  70.751  1.00  0.00    -0.295 C  
BRANCH   4   5
HETATM    5  C   UNL     1     -11.036   6.620  69.862  1.00  0.00    -0.373 C  
BRANCH   5   6
HETATM    6  C   UNL     1     -11.029   7.297  68.484  1.00  0.00     0.023 C  
BRANCH   6   7
HETATM    7  N   UNL     1     -10.045   8.411  68.438  1.00  0.00    -0.192 NA 
HETATM    8  C   UNL     1     -10.622   9.696  68.448  1.00  0.00    -0.225 A  
HETATM    9  C   UNL     1     -11.141  10.208  69.648  1.00  0.00    -0.308 A  
HETATM   10  C   UNL     1     -11.664  11.502  69.717  1.00  0.00    -0.426 A  
HETATM   11  C   UNL     1     -11.700  12.295  68.576  1.00  0.00    -0.381 A  
HETATM   12  C   UNL     1     -11.194  11.800  67.376  1.00  0.00    -0.357 A  
HETATM   13  C   UNL     1     -10.646  10.508  67.307  1.00  0.00    -0.317 A  
HETATM   14  C   UNL     1     -10.026  10.022  66.030  1.00  0.00    -0.334 C  
HETATM   15  C   UNL     1      -8.516   9.880  66.178  1.00  0.00    -0.130 C  
HETATM   16  C   UNL     1      -7.979   8.796  67.091  1.00  0.00    -0.096 A  
HETATM   17  C   UNL     1      -6.610   8.491  66.912  1.00  0.00    -0.058 A  
HETATM   18  C   UNL     1      -5.969   7.517  67.672  1.00  0.00    -0.039 A  
HETATM   19  C   UNL     1      -6.686   6.822  68.630  1.00  0.00    -0.064 A  
HETATM   20  C   UNL     1      -8.037   7.115  68.828  1.00  0.00    -0.121 A  
HETATM   21  C   UNL     1      -8.715   8.105  68.079  1.00  0.00    -0.128 A  
ENDBRANCH   6   7
ENDBRANCH   5   6
ENDBRANCH   4   5
ENDBRANCH   2   4
TORSDOF 4
ENDMDL
MODEL      142
REMARK 921   NORMALIZED FREE ENERGY PREDICTED BY IDOCK:   -3.80 KCAL/MOL
REMARK 922        TOTAL FREE ENERGY PREDICTED BY IDOCK:   -4.99 KCAL/MOL
REMARK 923 INTER-LIGAND FREE ENERGY PREDICTED BY IDOCK:   -4.30 KCAL/MOL
REMARK 924 INTRA-LIGAND FREE ENERGY PREDICTED BY IDOCK:   -0.69 KCAL/MOL
REMARK 927      BINDING AFFINITY PREDICTED BY RF-SCORE:    0.00 PKD
ROOT
HETATM    1  C   UNL     1      -9.744   4.693  69.977  1.00  0.00    -0.207 C  
HETATM    2  N   UNL     1     -10.438   4.610  71.265  1.00  0.00    -0.072 NA 
HETATM    3  C   UNL     1      -9.481   4.239  72.312  1.00  0.00    -0.132 C  
ENDROOT
BRANCH   2   4
HETATM    4  C   UNL     1     -11.108   5.871  71.624  1.00  0.00    -0.258 C  
BRANCH   4   5
HETATM    5  C   UNL     1     -11.450   6.775  70.436  1.00  0.00    -0.419 C  
BRANCH   5   6
HETATM    6  C   UNL     1     -11.421   8.273  70.769  1.00  0.00    -0.252 C  
BRANCH   6   7
HETATM    7  N   UNL     1     -10.323   8.963  70.043  1.00  0.00    -0.197 NA 
HETATM    8  C   UNL     1     -10.759   9.896  69.081  1.00  0.00    -0.224 A  
HETATM    9  C   UNL     1     -11.255  11.140  69.505  1.00  0.00    -0.341 A  
HETATM   10  C   UNL     1     -11.638  12.118  68.584  1.00  0.00    -0.372 A  
HETATM   11  C   UNL     1     -11.555  11.855  67.222  1.00  0.00    -0.364 A  
HETATM   12  C   UNL     1     -11.070  10.625  66.784  1.00  0.00    -0.103 A  
HETATM   13  C   UNL     1     -10.662   9.646  67.707  1.00  0.00    -0.316 A  
HETATM   14  C   UNL     1     -10.060   8.360  67.221  1.00  0.00    -0.321 C  
HETATM   15  C   UNL     1      -8.579   8.286  67.572  1.00  0.00    -0.129 C  
HETATM   16  C   UNL     1      -8.188   8.156  69.031  1.00  0.00    -0.127 A  
HETATM   17  C   UNL     1      -6.855   7.741  69.255  1.00  0.00    -0.048 A  
HETATM   18  C   UNL     1      -6.345   7.573  70.538  1.00  0.00    -0.038 A  
HETATM   19  C   UNL     1      -7.161   7.813  71.630  1.00  0.00    -0.064 A  
HETATM   20  C   UNL     1      -8.477   8.231  71.430  1.00  0.00    -0.172 A  
HETATM   21  C   UNL     1      -9.023   8.422  70.139  1.00  0.00    -0.142 A  
ENDBRANCH   6   7
ENDBRANCH   5   6
ENDBRANCH   4   5
ENDBRANCH   2   4
TORSDOF 4
ENDMDL
MODEL      143
REMARK 921   NORMALIZED FREE ENERGY PREDICTED BY IDOCK:   -3.79 KCAL/MOL
REMARK 922        TOTAL FREE ENERGY PREDICTED BY IDOCK:   -4.97 KCAL/MOL
REMARK 923 INTER-LIGAND FREE ENERGY PREDICTED BY IDOCK:   -4.33 KCAL/MOL
REMARK 924 INTRA-LIGAND FREE ENERGY PREDICTED BY IDOCK:   -0.63 KCAL/MOL
REMARK 927      BINDING AFFINITY PREDICTED BY RF-SCORE:    0.00 PKD
ROOT
HETATM    1  C   UNL     1     -12.914  13.742  65.560  1.00  0.00    -0.315 C  
HETATM    2  N   UNL     1     -12.183  14.155  64.359  1.00  0.00    -0.573 NA 
HETATM    3  C   UNL     1     -11.701  15.529  64.530  1.00  0.00    -0.253 C  
ENDROOT
BRANCH   2   4
HETATM    4  C   UNL     1     -11.051  13.263  64.056  1.00  0.00    -0.311 C  
BRANCH   4   5
HETATM    5  C   UNL     1     -10.556  12.432  65.243  1.00  0.00    -0.322 C  
BRANCH   5   6
HETATM    6  C   UNL     1     -10.533  10.921  64.974  1.00  0.00    -0.261 C  
BRANCH   6   7
HETATM    7  N   UNL     1      -9.429  10.260  65.719  1.00  0.00    -0.189 NA 
HETATM    8  C   UNL     1      -9.732   9.960  67.062  1.00  0.00    -0.182 A  
HETATM    9  C   UNL     1     -10.573   8.873  67.352  1.00  0.00    -0.305 A  
HETATM   10  C   UNL     1     -10.848   8.501  68.670  1.00  0.00     0.014 A  
HETATM   11  C   UNL     1     -10.306   9.231  69.721  1.00  0.00    -0.232 A  
HETATM   12  C   UNL     1      -9.474  10.316  69.452  1.00  0.00    -0.225 A  
HETATM   13  C   UNL     1      -9.176  10.679  68.127  1.00  0.00    -0.148 A  
HETATM   14  C   UNL     1      -8.209  11.794  67.853  1.00  0.00    -0.147 C  
HETATM   15  C   UNL     1      -6.921  11.258  67.241  1.00  0.00    -0.109 C  
HETATM   16  C   UNL     1      -6.972  10.684  65.839  1.00  0.00    -0.116 A  
HETATM   17  C   UNL     1      -5.715  10.539  65.209  1.00  0.00    -0.141 A  
HETATM   18  C   UNL     1      -5.593  10.027  63.921  1.00  0.00    -0.112 A  
HETATM   19  C   UNL     1      -6.732   9.651  63.230  1.00  0.00    -0.111 A  
HETATM   20  C   UNL     1      -7.982   9.779  63.838  1.00  0.00    -0.146 A  
HETATM   21  C   UNL     1      -8.138  10.285  65.149  1.00  0.00    -0.151 A  
ENDBRANCH   6   7
ENDBRANCH   5   6
ENDBRANCH   4   5
ENDBRANCH   2   4
TORSDOF 4
ENDMDL
MODEL      144
REMARK 921   NORMALIZED FREE ENERGY PREDICTED BY IDOCK:   -3.76 KCAL/MOL
REMARK 922        TOTAL FREE ENERGY PREDICTED BY IDOCK:   -4.94 KCAL/MOL
REMARK 923 INTER-LIGAND FREE ENERGY PREDICTED BY IDOCK:   -5.53 KCAL/MOL
REMARK 924 INTRA-LIGAND FREE ENERGY PREDICTED BY IDOCK:    0.59 KCAL/MOL
REMARK 927      BINDING AFFINITY PREDICTED BY RF-SCORE:    0.00 PKD
ROOT
HETATM    1  C   UNL     1      -8.932   6.453  68.346  1.00  0.00    -0.120 C  
HETATM    2  N   UNL     1     -10.378   6.692  68.368  1.00  0.00    -0.178 NA 
HETATM    3  C   UNL     1     -10.796   7.034  69.731  1.00  0.00    -0.248 C  
ENDROOT
BRANCH   2   4
HETATM    4  C   UNL     1     -10.784   7.759  67.438  1.00  0.00    -0.230 C  
BRANCH   4   5
HETATM    5  C   UNL     1      -9.709   8.815  67.167  1.00  0.00    -0.248 C  
BRANCH   5   6
HETATM    6  C   UNL     1     -10.189  10.257  67.382  1.00  0.00    -0.218 C  
BRANCH   6   7
HETATM    7  N   UNL     1      -9.815  11.124  66.233  1.00  0.00    -0.207 NA 
HETATM    8  C   UNL     1     -10.161  12.481  66.392  1.00  0.00    -0.244 A  
HETATM    9  C   UNL     1      -9.396  13.290  67.248  1.00  0.00    -0.226 A  
HETATM   10  C   UNL     1      -9.665  14.654  67.385  1.00  0.00    -0.218 A  
HETATM   11  C   UNL     1     -10.723  15.224  66.688  1.00  0.00    -0.309 A  
HETATM   12  C   UNL     1     -11.496  14.434  65.839  1.00  0.00    -0.341 A  
HETATM   13  C   UNL     1     -11.215  13.066  65.680  1.00  0.00    -0.310 A  
HETATM   14  C   UNL     1     -11.999  12.248  64.696  1.00  0.00    -0.437 C  
HETATM   15  C   UNL     1     -11.128  11.833  63.517  1.00  0.00    -0.503 C  
HETATM   16  C   UNL     1     -10.008  10.841  63.760  1.00  0.00    -0.411 A  
HETATM   17  C   UNL     1      -9.482  10.239  62.594  1.00  0.00    -0.309 A  
HETATM   18  C   UNL     1      -8.451   9.306  62.650  1.00  0.00    -0.209 A  
HETATM   19  C   UNL     1      -7.924   8.950  63.880  1.00  0.00    -0.154 A  
HETATM   20  C   UNL     1      -8.425   9.539  65.042  1.00  0.00    -0.165 A  
HETATM   21  C   UNL     1      -9.464  10.498  65.018  1.00  0.00    -0.244 A  
ENDBRANCH   6   7
ENDBRANCH   5   6
ENDBRANCH   4   5
ENDBRANCH   2   4
TORSDOF 4
ENDMDL
MODEL      145
REMARK 921   NORMALIZED FREE ENERGY PREDICTED BY IDOCK:   -3.76 KCAL/MOL
REMARK 922        TOTAL FREE ENERGY PREDICTED BY IDOCK:   -4.94 KCAL/MOL
REMARK 923 INTER-LIGAND FREE ENERGY PREDICTED BY IDOCK:   -4.72 KCAL/MOL
REMARK 924 INTRA-LIGAND FREE ENERGY PREDICTED BY IDOCK:   -0.22 KCAL/MOL
REMARK 927      BINDING AFFINITY PREDICTED BY RF-SCORE:    0.00 PKD
ROOT
HETATM    1  C   UNL     1      -7.786  12.622  67.416  1.00  0.00    -0.161 C  
HETATM    2  N   UNL     1      -7.054  11.352  67.393  1.00  0.00    -0.105 NA 
HETATM    3  C   UNL     1      -5.637  11.610  67.118  1.00  0.00    -0.111 C  
ENDROOT
BRANCH   2   4
HETATM    4  C   UNL     1      -7.190  10.603  68.654  1.00  0.00    -0.090 C  
BRANCH   4   5
HETATM    5  C   UNL     1      -8.633  10.394  69.122  1.00  0.00    -0.169 C  
BRANCH   5   6
HETATM    6  C   UNL     1      -8.755   9.550  70.398  1.00  0.00    -0.223 C  
BRANCH   6   7
HETATM    7  N   UNL     1      -9.885   8.589  70.301  1.00  0.00    -0.179 NA 
HETATM    8  C   UNL     1     -11.108   9.079  70.800  1.00  0.00    -0.272 A  
HETATM    9  C   UNL     1     -11.838  10.009  70.042  1.00  0.00    -0.196 A  
HETATM   10  C   UNL     1     -13.085  10.472  70.469  1.00  0.00    -0.198 A  
HETATM   11  C   UNL     1     -13.609  10.030  71.678  1.00  0.00    -0.304 A  
HETATM   12  C   UNL     1     -12.896   9.111  72.446  1.00  0.00    -0.438 A  
HETATM   13  C   UNL     1     -11.651   8.626  72.009  1.00  0.00    -0.440 A  
HETATM   14  C   UNL     1     -10.936   7.571  72.802  1.00  0.00    -0.410 C  
HETATM   15  C   UNL     1     -10.913   6.247  72.049  1.00  0.00    -0.299 C  
HETATM   16  C   UNL     1     -10.083   6.148  70.785  1.00  0.00    -0.238 A  
HETATM   17  C   UNL     1      -9.823   4.830  70.345  1.00  0.00    -0.309 A  
HETATM   18  C   UNL     1      -9.074   4.573  69.200  1.00  0.00    -0.173 A  
HETATM   19  C   UNL     1      -8.564   5.632  68.470  1.00  0.00    -0.107 A  
HETATM   20  C   UNL     1      -8.817   6.941  68.884  1.00  0.00    -0.129 A  
HETATM   21  C   UNL     1      -9.583   7.236  70.036  1.00  0.00    -0.167 A  
ENDBRANCH   6   7
ENDBRANCH   5   6
ENDBRANCH   4   5
ENDBRANCH   2   4
TORSDOF 4
ENDMDL
MODEL      146
REMARK 921   NORMALIZED FREE ENERGY PREDICTED BY IDOCK:   -3.75 KCAL/MOL
REMARK 922        TOTAL FREE ENERGY PREDICTED BY IDOCK:   -4.92 KCAL/MOL
REMARK 923 INTER-LIGAND FREE ENERGY PREDICTED BY IDOCK:   -4.26 KCAL/MOL
REMARK 924 INTRA-LIGAND FREE ENERGY PREDICTED BY IDOCK:   -0.66 KCAL/MOL
REMARK 927      BINDING AFFINITY PREDICTED BY RF-SCORE:    0.00 PKD
ROOT
HETATM    1  C   UNL     1     -13.359   7.998  71.786  1.00  0.00    -0.340 C  
HETATM    2  N   UNL     1     -12.476   8.932  71.080  1.00  0.00    -0.261 NA 
HETATM    3  C   UNL     1     -13.031  10.287  71.165  1.00  0.00    -0.409 C  
ENDROOT
BRANCH   2   4
HETATM    4  C   UNL     1     -11.104   8.920  71.615  1.00  0.00    -0.350 C  
BRANCH   4   5
HETATM    5  C   UNL     1     -10.032   8.478  70.615  1.00  0.00    -0.222 C  
BRANCH   5   6
HETATM    6  C   UNL     1      -8.956   9.541  70.350  1.00  0.00    -0.243 C  
BRANCH   6   7
HETATM    7  N   UNL     1      -8.508   9.508  68.933  1.00  0.00    -0.120 NA 
HETATM    8  C   UNL     1      -9.117  10.475  68.108  1.00  0.00    -0.141 A  
HETATM    9  C   UNL     1      -8.709  11.815  68.203  1.00  0.00    -0.168 A  
HETATM   10  C   UNL     1      -9.241  12.795  67.361  1.00  0.00    -0.193 A  
HETATM   11  C   UNL     1     -10.211  12.451  66.427  1.00  0.00    -0.253 A  
HETATM   12  C   UNL     1     -10.631  11.127  66.323  1.00  0.00    -0.309 A  
HETATM   13  C   UNL     1     -10.082  10.133  67.153  1.00  0.00    -0.260 A  
HETATM   14  C   UNL     1     -10.479   8.698  66.970  1.00  0.00    -0.354 C  
HETATM   15  C   UNL     1      -9.317   7.877  66.425  1.00  0.00    -0.247 C  
HETATM   16  C   UNL     1      -8.115   7.644  67.319  1.00  0.00    -0.119 A  
HETATM   17  C   UNL     1      -7.254   6.605  66.900  1.00  0.00    -0.077 A  
HETATM   18  C   UNL     1      -6.109   6.266  67.614  1.00  0.00    -0.021 A  
HETATM   19  C   UNL     1      -5.800   6.961  68.771  1.00  0.00    -0.018 A  
HETATM   20  C   UNL     1      -6.635   7.996  69.198  1.00  0.00    -0.040 A  
HETATM   21  C   UNL     1      -7.799   8.371  68.488  1.00  0.00    -0.120 A  
ENDBRANCH   6   7
ENDBRANCH   5   6
ENDBRANCH   4   5
ENDBRANCH   2   4
TORSDOF 4
ENDMDL
MODEL      147
REMARK 921   NORMALIZED FREE ENERGY PREDICTED BY IDOCK:   -3.74 KCAL/MOL
REMARK 922        TOTAL FREE ENERGY PREDICTED BY IDOCK:   -4.91 KCAL/MOL
REMARK 923 INTER-LIGAND FREE ENERGY PREDICTED BY IDOCK:   -4.20 KCAL/MOL
REMARK 924 INTRA-LIGAND FREE ENERGY PREDICTED BY IDOCK:   -0.71 KCAL/MOL
REMARK 927      BINDING AFFINITY PREDICTED BY RF-SCORE:    0.00 PKD
ROOT
HETATM    1  C   UNL     1     -11.331   5.832  72.547  1.00  0.00    -0.307 C  
HETATM    2  N   UNL     1     -12.266   6.737  71.871  1.00  0.00    -0.341 NA 
HETATM    3  C   UNL     1     -12.156   8.077  72.455  1.00  0.00    -0.321 C  
ENDROOT
BRANCH   2   4
HETATM    4  C   UNL     1     -12.030   6.804  70.419  1.00  0.00    -0.285 C  
BRANCH   4   5
HETATM    5  C   UNL     1     -10.941   5.858  69.903  1.00  0.00    -0.444 C  
BRANCH   5   6
HETATM    6  C   UNL     1     -10.427   6.212  68.501  1.00  0.00    -0.237 C  
BRANCH   6   7
HETATM    7  N   UNL     1      -9.357   7.242  68.565  1.00  0.00    -0.141 NA 
HETATM    8  C   UNL     1      -8.171   6.810  69.194  1.00  0.00    -0.121 A  
HETATM    9  C   UNL     1      -7.300   5.952  68.503  1.00  0.00    -0.085 A  
HETATM   10  C   UNL     1      -6.085   5.551  69.063  1.00  0.00    -0.025 A  
HETATM   11  C   UNL     1      -5.736   5.981  70.338  1.00  0.00    -0.014 A  
HETATM   12  C   UNL     1      -6.591   6.828  71.039  1.00  0.00    -0.053 A  
HETATM   13  C   UNL     1      -7.805   7.253  70.470  1.00  0.00    -0.099 A  
HETATM   14  C   UNL     1      -8.674   8.234  71.201  1.00  0.00    -0.176 C  
HETATM   15  C   UNL     1      -8.692   9.580  70.487  1.00  0.00    -0.247 C  
HETATM   16  C   UNL     1      -9.372   9.672  69.136  1.00  0.00    -0.172 A  
HETATM   17  C   UNL     1      -9.663  10.987  68.704  1.00  0.00    -0.198 A  
HETATM   18  C   UNL     1     -10.287  11.238  67.486  1.00  0.00    -0.224 A  
HETATM   19  C   UNL     1     -10.639  10.176  66.671  1.00  0.00    -0.214 A  
HETATM   20  C   UNL     1     -10.354   8.871  67.077  1.00  0.00    -0.340 A  
HETATM   21  C   UNL     1      -9.711   8.583  68.303  1.00  0.00    -0.155 A  
ENDBRANCH   6   7
ENDBRANCH   5   6
ENDBRANCH   4   5
ENDBRANCH   2   4
TORSDOF 4
ENDMDL
MODEL      148
REMARK 921   NORMALIZED FREE ENERGY PREDICTED BY IDOCK:   -3.71 KCAL/MOL
REMARK 922        TOTAL FREE ENERGY PREDICTED BY IDOCK:   -4.88 KCAL/MOL
REMARK 923 INTER-LIGAND FREE ENERGY PREDICTED BY IDOCK:   -4.83 KCAL/MOL
REMARK 924 INTRA-LIGAND FREE ENERGY PREDICTED BY IDOCK:   -0.05 KCAL/MOL
REMARK 927      BINDING AFFINITY PREDICTED BY RF-SCORE:    0.00 PKD
ROOT
HETATM    1  C   UNL     1      -7.558   6.825  66.894  1.00  0.00    -0.091 C  
HETATM    2  N   UNL     1      -8.735   6.809  66.019  1.00  0.00    -0.148 NA 
HETATM    3  C   UNL     1      -9.277   5.448  65.956  1.00  0.00    -0.158 C  
ENDROOT
BRANCH   2   4
HETATM    4  C   UNL     1      -9.780   7.743  66.469  1.00  0.00    -0.195 C  
BRANCH   4   5
HETATM    5  C   UNL     1      -9.259   9.091  66.976  1.00  0.00    -0.169 C  
BRANCH   5   6
HETATM    6  C   UNL     1     -10.355  10.152  67.153  1.00  0.00    -0.238 C  
BRANCH   6   7
HETATM    7  N   UNL     1      -9.940  11.455  66.571  1.00  0.00    -0.206 NA 
HETATM    8  C   UNL     1      -8.930  12.120  67.295  1.00  0.00    -0.184 A  
HETATM    9  C   UNL     1      -7.606  11.663  67.208  1.00  0.00    -0.147 A  
HETATM   10  C   UNL     1      -6.565  12.330  67.859  1.00  0.00    -0.087 A  
HETATM   11  C   UNL     1      -6.840  13.453  68.630  1.00  0.00    -0.098 A  
HETATM   12  C   UNL     1      -8.150  13.918  68.732  1.00  0.00    -0.043 A  
HETATM   13  C   UNL     1      -9.197  13.262  68.060  1.00  0.00    -0.217 A  
HETATM   14  C   UNL     1     -10.587  13.824  68.107  1.00  0.00    -0.260 C  
HETATM   15  C   UNL     1     -11.003  14.360  66.743  1.00  0.00    -0.314 C  
HETATM   16  C   UNL     1     -11.221  13.372  65.614  1.00  0.00    -0.307 A  
HETATM   17  C   UNL     1     -11.934  13.882  64.506  1.00  0.00    -0.464 A  
HETATM   18  C   UNL     1     -12.217  13.099  63.390  1.00  0.00    -0.521 A  
HETATM   19  C   UNL     1     -11.793  11.782  63.361  1.00  0.00    -0.435 A  
HETATM   20  C   UNL     1     -11.080  11.262  64.443  1.00  0.00    -0.273 A  
HETATM   21  C   UNL     1     -10.768  12.034  65.586  1.00  0.00    -0.272 A  
ENDBRANCH   6   7
ENDBRANCH   5   6
ENDBRANCH   4   5
ENDBRANCH   2   4
TORSDOF 4
ENDMDL
MODEL      149
REMARK 921   NORMALIZED FREE ENERGY PREDICTED BY IDOCK:   -3.70 KCAL/MOL
REMARK 922        TOTAL FREE ENERGY PREDICTED BY IDOCK:   -4.86 KCAL/MOL
REMARK 923 INTER-LIGAND FREE ENERGY PREDICTED BY IDOCK:   -4.68 KCAL/MOL
REMARK 924 INTRA-LIGAND FREE ENERGY PREDICTED BY IDOCK:   -0.18 KCAL/MOL
REMARK 927      BINDING AFFINITY PREDICTED BY RF-SCORE:    0.00 PKD
ROOT
HETATM    1  C   UNL     1      -9.155  20.693  67.215  1.00  0.00    -0.275 C  
HETATM    2  N   UNL     1      -8.016  19.770  67.180  1.00  0.00    -0.277 NA 
HETATM    3  C   UNL     1      -7.843  19.159  68.501  1.00  0.00    -0.345 C  
ENDROOT
BRANCH   2   4
HETATM    4  C   UNL     1      -8.176  18.720  66.160  1.00  0.00    -0.190 C  
BRANCH   4   5
HETATM    5  C   UNL     1      -8.906  17.464  66.645  1.00  0.00    -0.278 C  
BRANCH   5   6
HETATM    6  C   UNL     1      -8.162  16.157  66.338  1.00  0.00    -0.301 C  
BRANCH   6   7
HETATM    7  N   UNL     1      -8.631  15.053  67.215  1.00  0.00    -0.192 NA 
HETATM    8  C   UNL     1      -7.705  14.663  68.204  1.00  0.00    -0.125 A  
HETATM    9  C   UNL     1      -7.520  15.477  69.333  1.00  0.00    -0.219 A  
HETATM   10  C   UNL     1      -6.660  15.098  70.366  1.00  0.00     0.045 A  
HETATM   11  C   UNL     1      -5.950  13.907  70.272  1.00  0.00    -0.155 A  
HETATM   12  C   UNL     1      -6.118  13.089  69.156  1.00  0.00    -0.095 A  
HETATM   13  C   UNL     1      -6.999  13.456  68.125  1.00  0.00    -0.116 A  
HETATM   14  C   UNL     1      -7.236  12.525  66.972  1.00  0.00     0.019 C  
HETATM   15  C   UNL     1      -8.650  11.961  67.010  1.00  0.00    -0.176 C  
HETATM   16  C   UNL     1      -9.811  12.902  66.753  1.00  0.00    -0.241 A  
HETATM   17  C   UNL     1     -11.038  12.267  66.454  1.00  0.00    -0.345 A  
HETATM   18  C   UNL     1     -12.196  12.992  66.192  1.00  0.00    -0.428 A  
HETATM   19  C   UNL     1     -12.151  14.376  66.221  1.00  0.00    -0.384 A  
HETATM   20  C   UNL     1     -10.950  15.021  66.522  1.00  0.00    -0.327 A  
HETATM   21  C   UNL     1      -9.759  14.313  66.803  1.00  0.00    -0.275 A  
ENDBRANCH   6   7
ENDBRANCH   5   6
ENDBRANCH   4   5
ENDBRANCH   2   4
TORSDOF 4
ENDMDL
MODEL      150
REMARK 921   NORMALIZED FREE ENERGY PREDICTED BY IDOCK:   -3.69 KCAL/MOL
REMARK 922        TOTAL FREE ENERGY PREDICTED BY IDOCK:   -4.85 KCAL/MOL
REMARK 923 INTER-LIGAND FREE ENERGY PREDICTED BY IDOCK:   -4.23 KCAL/MOL
REMARK 924 INTRA-LIGAND FREE ENERGY PREDICTED BY IDOCK:   -0.62 KCAL/MOL
REMARK 927      BINDING AFFINITY PREDICTED BY RF-SCORE:    0.00 PKD
ROOT
HETATM    1  C   UNL     1     -11.685  10.349  70.684  1.00  0.00    -0.351 C  
HETATM    2  N   UNL     1     -12.045   9.504  71.826  1.00  0.00    -0.386 NA 
HETATM    3  C   UNL     1     -13.279   8.773  71.522  1.00  0.00    -0.314 C  
ENDROOT
BRANCH   2   4
HETATM    4  C   UNL     1     -10.976   8.555  72.181  1.00  0.00    -0.357 C  
BRANCH   4   5
HETATM    5  C   UNL     1     -10.914   7.303  71.300  1.00  0.00    -0.264 C  
BRANCH   5   6
HETATM    6  C   UNL     1      -9.505   6.711  71.164  1.00  0.00    -0.163 C  
BRANCH   6   7
HETATM    7  N   UNL     1      -9.062   6.700  69.744  1.00  0.00    -0.143 NA 
HETATM    8  C   UNL     1      -9.276   7.914  69.060  1.00  0.00    -0.147 A  
HETATM    9  C   UNL     1      -8.429   9.004  69.312  1.00  0.00    -0.128 A  
HETATM   10  C   UNL     1      -8.565  10.204  68.610  1.00  0.00    -0.123 A  
HETATM   11  C   UNL     1      -9.572  10.339  67.661  1.00  0.00    -0.173 A  
HETATM   12  C   UNL     1     -10.425   9.269  67.402  1.00  0.00    -0.340 A  
HETATM   13  C   UNL     1     -10.277   8.052  68.090  1.00  0.00    -0.251 A  
HETATM   14  C   UNL     1     -11.146   6.880  67.739  1.00  0.00    -0.223 C  
HETATM   15  C   UNL     1     -10.330   5.780  67.071  1.00  0.00    -0.303 C  
HETATM   16  C   UNL     1      -9.307   5.032  67.903  1.00  0.00    -0.147 A  
HETATM   17  C   UNL     1      -8.853   3.818  67.339  1.00  0.00    -0.139 A  
HETATM   18  C   UNL     1      -7.915   3.016  67.981  1.00  0.00    -0.068 A  
HETATM   19  C   UNL     1      -7.411   3.410  69.209  1.00  0.00    -0.048 A  
HETATM   20  C   UNL     1      -7.841   4.610  69.779  1.00  0.00    -0.061 A  
HETATM   21  C   UNL     1      -8.785   5.452  69.146  1.00  0.00    -0.101 A  
ENDBRANCH   6   7
ENDBRANCH   5   6
ENDBRANCH   4   5
ENDBRANCH   2   4
TORSDOF 4
ENDMDL
MODEL      151
REMARK 921   NORMALIZED FREE ENERGY PREDICTED BY IDOCK:   -3.65 KCAL/MOL
REMARK 922        TOTAL FREE ENERGY PREDICTED BY IDOCK:   -4.80 KCAL/MOL
REMARK 923 INTER-LIGAND FREE ENERGY PREDICTED BY IDOCK:   -4.69 KCAL/MOL
REMARK 924 INTRA-LIGAND FREE ENERGY PREDICTED BY IDOCK:   -0.11 KCAL/MOL
REMARK 927      BINDING AFFINITY PREDICTED BY RF-SCORE:    0.00 PKD
ROOT
HETATM    1  C   UNL     1     -10.412  13.985  64.741  1.00  0.00    -0.421 C  
HETATM    2  N   UNL     1     -11.209  12.854  64.259  1.00  0.00    -0.346 NA 
HETATM    3  C   UNL     1     -12.229  13.340  63.323  1.00  0.00    -0.313 C  
ENDROOT
BRANCH   2   4
HETATM    4  C   UNL     1     -10.384  11.823  63.607  1.00  0.00    -0.434 C  
BRANCH   4   5
HETATM    5  C   UNL     1     -10.095  10.593  64.473  1.00  0.00    -0.421 C  
BRANCH   5   6
HETATM    6  C   UNL     1     -10.531  10.750  65.936  1.00  0.00    -0.204 C  
BRANCH   6   7
HETATM    7  N   UNL     1      -9.624  10.005  66.849  1.00  0.00    -0.169 NA 
HETATM    8  C   UNL     1      -8.390   9.642  66.272  1.00  0.00    -0.116 A  
HETATM    9  C   UNL     1      -7.400  10.622  66.093  1.00  0.00    -0.138 A  
HETATM   10  C   UNL     1      -6.140  10.294  65.585  1.00  0.00    -0.108 A  
HETATM   11  C   UNL     1      -5.862   8.981  65.223  1.00  0.00    -0.055 A  
HETATM   12  C   UNL     1      -6.835   7.998  65.389  1.00  0.00    -0.062 A  
HETATM   13  C   UNL     1      -8.096   8.319  65.921  1.00  0.00    -0.105 A  
HETATM   14  C   UNL     1      -9.101   7.235  66.176  1.00  0.00    -0.160 C  
HETATM   15  C   UNL     1      -9.315   7.033  67.671  1.00  0.00    -0.128 C  
HETATM   16  C   UNL     1      -9.998   8.134  68.459  1.00  0.00    -0.204 A  
HETATM   17  C   UNL     1     -10.477   7.746  69.731  1.00  0.00    -0.233 A  
HETATM   18  C   UNL     1     -11.128   8.641  70.574  1.00  0.00    -0.268 A  
HETATM   19  C   UNL     1     -11.318   9.949  70.160  1.00  0.00    -0.335 A  
HETATM   20  C   UNL     1     -10.845  10.353  68.911  1.00  0.00    -0.273 A  
HETATM   21  C   UNL     1     -10.170   9.470  68.035  1.00  0.00    -0.201 A  
ENDBRANCH   6   7
ENDBRANCH   5   6
ENDBRANCH   4   5
ENDBRANCH   2   4
TORSDOF 4
ENDMDL
MODEL      152
REMARK 921   NORMALIZED FREE ENERGY PREDICTED BY IDOCK:   -3.65 KCAL/MOL
REMARK 922        TOTAL FREE ENERGY PREDICTED BY IDOCK:   -4.79 KCAL/MOL
REMARK 923 INTER-LIGAND FREE ENERGY PREDICTED BY IDOCK:   -4.10 KCAL/MOL
REMARK 924 INTRA-LIGAND FREE ENERGY PREDICTED BY IDOCK:   -0.69 KCAL/MOL
REMARK 927      BINDING AFFINITY PREDICTED BY RF-SCORE:    0.00 PKD
ROOT
HETATM    1  C   UNL     1      -6.190   3.524  68.886  1.00  0.00    -0.029 C  
HETATM    2  N   UNL     1      -7.116   3.734  70.002  1.00  0.00    -0.041 NA 
HETATM    3  C   UNL     1      -6.751   2.848  71.112  1.00  0.00    -0.031 C  
ENDROOT
BRANCH   2   4
HETATM    4  C   UNL     1      -7.132   5.132  70.463  1.00  0.00    -0.060 C  
BRANCH   4   5
HETATM    5  C   UNL     1      -8.528   5.703  70.727  1.00  0.00    -0.124 C  
BRANCH   5   6
HETATM    6  C   UNL     1      -9.425   5.747  69.482  1.00  0.00    -0.135 C  
BRANCH   6   7
HETATM    7  N   UNL     1     -10.049   7.087  69.316  1.00  0.00    -0.169 NA 
HETATM    8  C   UNL     1      -9.465   7.878  68.307  1.00  0.00    -0.144 A  
HETATM    9  C   UNL     1      -9.739   7.588  66.961  1.00  0.00    -0.257 A  
HETATM   10  C   UNL     1      -9.234   8.386  65.931  1.00  0.00    -0.217 A  
HETATM   11  C   UNL     1      -8.422   9.473  66.234  1.00  0.00    -0.122 A  
HETATM   12  C   UNL     1      -8.135   9.771  67.564  1.00  0.00    -0.114 A  
HETATM   13  C   UNL     1      -8.661   8.985  68.604  1.00  0.00    -0.129 A  
HETATM   14  C   UNL     1      -8.416   9.371  70.034  1.00  0.00    -0.202 C  
HETATM   15  C   UNL     1      -9.705   9.839  70.699  1.00  0.00    -0.133 C  
HETATM   16  C   UNL     1     -10.801   8.821  70.946  1.00  0.00    -0.293 A  
HETATM   17  C   UNL     1     -11.795   9.229  71.865  1.00  0.00    -0.426 A  
HETATM   18  C   UNL     1     -12.867   8.407  72.200  1.00  0.00    -0.385 A  
HETATM   19  C   UNL     1     -12.966   7.153  71.623  1.00  0.00    -0.415 A  
HETATM   20  C   UNL     1     -11.998   6.735  70.708  1.00  0.00    -0.433 A  
HETATM   21  C   UNL     1     -10.903   7.550  70.339  1.00  0.00    -0.244 A  
ENDBRANCH   6   7
ENDBRANCH   5   6
ENDBRANCH   4   5
ENDBRANCH   2   4
TORSDOF 4
ENDMDL
MODEL      153
REMARK 921   NORMALIZED FREE ENERGY PREDICTED BY IDOCK:   -3.63 KCAL/MOL
REMARK 922        TOTAL FREE ENERGY PREDICTED BY IDOCK:   -4.78 KCAL/MOL
REMARK 923 INTER-LIGAND FREE ENERGY PREDICTED BY IDOCK:   -4.00 KCAL/MOL
REMARK 924 INTRA-LIGAND FREE ENERGY PREDICTED BY IDOCK:   -0.78 KCAL/MOL
REMARK 927      BINDING AFFINITY PREDICTED BY RF-SCORE:    0.00 PKD
ROOT
HETATM    1  C   UNL     1      -5.250   9.529  70.197  1.00  0.00    -0.031 C  
HETATM    2  N   UNL     1      -5.568   8.167  69.760  1.00  0.00    -0.026 NA 
HETATM    3  C   UNL     1      -6.206   7.438  70.861  1.00  0.00    -0.035 C  
ENDROOT
BRANCH   2   4
HETATM    4  C   UNL     1      -6.442   8.147  68.575  1.00  0.00    -0.054 C  
BRANCH   4   5
HETATM    5  C   UNL     1      -7.609   9.138  68.624  1.00  0.00    -0.084 C  
BRANCH   5   6
HETATM    6  C   UNL     1      -8.988   8.468  68.684  1.00  0.00    -0.139 C  
BRANCH   6   7
HETATM    7  N   UNL     1      -9.611   8.400  67.336  1.00  0.00    -0.150 NA 
HETATM    8  C   UNL     1      -9.502   7.142  66.709  1.00  0.00    -0.169 A  
HETATM    9  C   UNL     1     -10.322   6.086  67.137  1.00  0.00    -0.284 A  
HETATM   10  C   UNL     1     -10.292   4.842  66.502  1.00  0.00    -0.311 A  
HETATM   11  C   UNL     1      -9.419   4.629  65.442  1.00  0.00    -0.176 A  
HETATM   12  C   UNL     1      -8.594   5.664  65.007  1.00  0.00    -0.108 A  
HETATM   13  C   UNL     1      -8.637   6.924  65.629  1.00  0.00    -0.119 A  
HETATM   14  C   UNL     1      -7.807   8.054  65.094  1.00  0.00    -0.116 C  
HETATM   15  C   UNL     1      -8.689   9.127  64.468  1.00  0.00    -0.192 C  
HETATM   16  C   UNL     1      -9.587   9.945  65.375  1.00  0.00    -0.350 A  
HETATM   17  C   UNL     1     -10.096  11.130  64.797  1.00  0.00    -0.351 A  
HETATM   18  C   UNL     1     -10.933  11.990  65.502  1.00  0.00    -0.345 A  
HETATM   19  C   UNL     1     -11.279  11.683  66.807  1.00  0.00    -0.371 A  
HETATM   20  C   UNL     1     -10.792  10.512  67.392  1.00  0.00    -0.349 A  
HETATM   21  C   UNL     1      -9.949   9.613  66.699  1.00  0.00    -0.236 A  
ENDBRANCH   6   7
ENDBRANCH   5   6
ENDBRANCH   4   5
ENDBRANCH   2   4
TORSDOF 4
ENDMDL
MODEL      154
REMARK 921   NORMALIZED FREE ENERGY PREDICTED BY IDOCK:   -3.63 KCAL/MOL
REMARK 922        TOTAL FREE ENERGY PREDICTED BY IDOCK:   -4.78 KCAL/MOL
REMARK 923 INTER-LIGAND FREE ENERGY PREDICTED BY IDOCK:   -4.09 KCAL/MOL
REMARK 924 INTRA-LIGAND FREE ENERGY PREDICTED BY IDOCK:   -0.69 KCAL/MOL
REMARK 927      BINDING AFFINITY PREDICTED BY RF-SCORE:    0.00 PKD
ROOT
HETATM    1  C   UNL     1      -9.414   4.247  67.969  1.00  0.00    -0.159 C  
HETATM    2  N   UNL     1      -9.577   5.202  66.870  1.00  0.00    -0.137 NA 
HETATM    3  C   UNL     1     -11.005   5.422  66.621  1.00  0.00     0.012 C  
ENDROOT
BRANCH   2   4
HETATM    4  C   UNL     1      -8.913   6.489  67.142  1.00  0.00    -0.113 C  
BRANCH   4   5
HETATM    5  C   UNL     1      -9.751   7.481  67.954  1.00  0.00    -0.170 C  
BRANCH   5   6
HETATM    6  C   UNL     1      -9.277   7.652  69.404  1.00  0.00    -0.149 C  
BRANCH   6   7
HETATM    7  N   UNL     1      -9.319   9.079  69.818  1.00  0.00    -0.164 NA 
HETATM    8  C   UNL     1     -10.573   9.507  70.298  1.00  0.00    -0.266 A  
HETATM    9  C   UNL     1     -10.985   9.125  71.585  1.00  0.00    -0.445 A  
HETATM   10  C   UNL     1     -12.191   9.580  72.124  1.00  0.00    -0.282 A  
HETATM   11  C   UNL     1     -13.017  10.404  71.370  1.00  0.00    -0.545 A  
HETATM   12  C   UNL     1     -12.627  10.789  70.089  1.00  0.00    -0.309 A  
HETATM   13  C   UNL     1     -11.404  10.352  69.551  1.00  0.00    -0.325 A  
HETATM   14  C   UNL     1     -10.956  10.845  68.207  1.00  0.00    -0.293 C  
HETATM   15  C   UNL     1      -9.750  11.768  68.340  1.00  0.00    -0.197 C  
HETATM   16  C   UNL     1      -8.431  11.172  68.788  1.00  0.00    -0.134 A  
HETATM   17  C   UNL     1      -7.299  11.985  68.551  1.00  0.00    -0.111 A  
HETATM   18  C   UNL     1      -6.016  11.579  68.904  1.00  0.00    -0.049 A  
HETATM   19  C   UNL     1      -5.835  10.344  69.501  1.00  0.00    -0.039 A  
HETATM   20  C   UNL     1      -6.941   9.529  69.751  1.00  0.00    -0.071 A  
HETATM   21  C   UNL     1      -8.259   9.918  69.414  1.00  0.00    -0.146 A  
ENDBRANCH   6   7
ENDBRANCH   5   6
ENDBRANCH   4   5
ENDBRANCH   2   4
TORSDOF 4
ENDMDL
MODEL      155
REMARK 921   NORMALIZED FREE ENERGY PREDICTED BY IDOCK:   -3.62 KCAL/MOL
REMARK 922        TOTAL FREE ENERGY PREDICTED BY IDOCK:   -4.76 KCAL/MOL
REMARK 923 INTER-LIGAND FREE ENERGY PREDICTED BY IDOCK:   -4.43 KCAL/MOL
REMARK 924 INTRA-LIGAND FREE ENERGY PREDICTED BY IDOCK:   -0.34 KCAL/MOL
REMARK 927      BINDING AFFINITY PREDICTED BY RF-SCORE:    0.00 PKD
ROOT
HETATM    1  C   UNL     1     -10.170   3.135  63.951  1.00  0.00    -0.194 C  
HETATM    2  N   UNL     1      -9.803   3.751  65.229  1.00  0.00    -0.170 NA 
HETATM    3  C   UNL     1      -8.445   4.297  65.135  1.00  0.00    -0.116 C  
ENDROOT
BRANCH   2   4
HETATM    4  C   UNL     1     -10.741   4.813  65.630  1.00  0.00    -0.141 C  
BRANCH   4   5
HETATM    5  C   UNL     1     -10.543   5.337  67.056  1.00  0.00    -0.255 C  
BRANCH   5   6
HETATM    6  C   UNL     1     -10.384   6.862  67.138  1.00  0.00    -0.269 C  
BRANCH   6   7
HETATM    7  N   UNL     1      -9.881   7.277  68.474  1.00  0.00    -0.153 NA 
HETATM    8  C   UNL     1      -9.015   6.347  69.084  1.00  0.00    -0.129 A  
HETATM    9  C   UNL     1      -7.693   6.234  68.625  1.00  0.00    -0.101 A  
HETATM   10  C   UNL     1      -6.784   5.372  69.243  1.00  0.00    -0.052 A  
HETATM   11  C   UNL     1      -7.194   4.587  70.314  1.00  0.00    -0.049 A  
HETATM   12  C   UNL     1      -8.504   4.682  70.778  1.00  0.00    -0.109 A  
HETATM   13  C   UNL     1      -9.416   5.566  70.175  1.00  0.00    -0.210 A  
HETATM   14  C   UNL     1     -10.797   5.722  70.741  1.00  0.00    -0.330 C  
HETATM   15  C   UNL     1     -10.974   7.100  71.368  1.00  0.00    -0.258 C  
HETATM   16  C   UNL     1     -10.989   8.312  70.458  1.00  0.00    -0.253 A  
HETATM   17  C   UNL     1     -11.503   9.491  71.044  1.00  0.00    -0.420 A  
HETATM   18  C   UNL     1     -11.584  10.687  70.338  1.00  0.00    -0.441 A  
HETATM   19  C   UNL     1     -11.155  10.729  69.023  1.00  0.00    -0.308 A  
HETATM   20  C   UNL     1     -10.637   9.577  68.428  1.00  0.00    -0.261 A  
HETATM   21  C   UNL     1     -10.531   8.350  69.122  1.00  0.00    -0.206 A  
ENDBRANCH   6   7
ENDBRANCH   5   6
ENDBRANCH   4   5
ENDBRANCH   2   4
TORSDOF 4
ENDMDL
MODEL      156
REMARK 921   NORMALIZED FREE ENERGY PREDICTED BY IDOCK:   -3.62 KCAL/MOL
REMARK 922        TOTAL FREE ENERGY PREDICTED BY IDOCK:   -4.76 KCAL/MOL
REMARK 923 INTER-LIGAND FREE ENERGY PREDICTED BY IDOCK:   -4.25 KCAL/MOL
REMARK 924 INTRA-LIGAND FREE ENERGY PREDICTED BY IDOCK:   -0.51 KCAL/MOL
REMARK 927      BINDING AFFINITY PREDICTED BY RF-SCORE:    0.00 PKD
ROOT
HETATM    1  C   UNL     1     -11.681   6.047  72.275  1.00  0.00    -0.284 C  
HETATM    2  N   UNL     1     -12.049   7.173  71.410  1.00  0.00    -0.324 NA 
HETATM    3  C   UNL     1     -12.408   8.328  72.239  1.00  0.00    -0.356 C  
ENDROOT
BRANCH   2   4
HETATM    4  C   UNL     1     -10.969   7.541  70.479  1.00  0.00    -0.252 C  
BRANCH   4   5
HETATM    5  C   UNL     1     -11.001   8.998  70.007  1.00  0.00    -0.230 C  
BRANCH   5   6
HETATM    6  C   UNL     1      -9.668   9.737  70.188  1.00  0.00    -0.248 C  
BRANCH   6   7
HETATM    7  N   UNL     1      -9.173  10.276  68.894  1.00  0.00    -0.165 NA 
HETATM    8  C   UNL     1     -10.057  11.174  68.262  1.00  0.00    -0.185 A  
HETATM    9  C   UNL     1     -10.179  12.482  68.757  1.00  0.00    -0.101 A  
HETATM   10  C   UNL     1     -10.995  13.423  68.123  1.00  0.00    -0.277 A  
HETATM   11  C   UNL     1     -11.724  13.058  66.998  1.00  0.00    -0.441 A  
HETATM   12  C   UNL     1     -11.619  11.762  66.497  1.00  0.00    -0.256 A  
HETATM   13  C   UNL     1     -10.782  10.819  67.118  1.00  0.00    -0.324 A  
HETATM   14  C   UNL     1     -10.612   9.455  66.516  1.00  0.00    -0.125 C  
HETATM   15  C   UNL     1      -9.204   9.278  65.960  1.00  0.00    -0.262 C  
HETATM   16  C   UNL     1      -8.045   9.217  66.935  1.00  0.00    -0.108 A  
HETATM   17  C   UNL     1      -6.841   8.706  66.397  1.00  0.00    -0.071 A  
HETATM   18  C   UNL     1      -5.687   8.584  67.165  1.00  0.00    -0.039 A  
HETATM   19  C   UNL     1      -5.712   8.971  68.494  1.00  0.00    -0.041 A  
HETATM   20  C   UNL     1      -6.889   9.487  69.041  1.00  0.00    -0.054 A  
HETATM   21  C   UNL     1      -8.075   9.632  68.285  1.00  0.00    -0.105 A  
ENDBRANCH   6   7
ENDBRANCH   5   6
ENDBRANCH   4   5
ENDBRANCH   2   4
TORSDOF 4
ENDMDL
MODEL      157
REMARK 921   NORMALIZED FREE ENERGY PREDICTED BY IDOCK:   -3.61 KCAL/MOL
REMARK 922        TOTAL FREE ENERGY PREDICTED BY IDOCK:   -4.74 KCAL/MOL
REMARK 923 INTER-LIGAND FREE ENERGY PREDICTED BY IDOCK:   -4.50 KCAL/MOL
REMARK 924 INTRA-LIGAND FREE ENERGY PREDICTED BY IDOCK:   -0.25 KCAL/MOL
REMARK 927      BINDING AFFINITY PREDICTED BY RF-SCORE:    0.00 PKD
ROOT
HETATM    1  C   UNL     1      -9.497   9.230  70.457  1.00  0.00    -0.264 C  
HETATM    2  N   UNL     1      -9.934   7.967  69.856  1.00  0.00    -0.187 NA 
HETATM    3  C   UNL     1     -11.317   7.689  70.258  1.00  0.00    -0.181 C  
ENDROOT
BRANCH   2   4
HETATM    4  C   UNL     1      -9.835   7.981  68.387  1.00  0.00    -0.171 C  
BRANCH   4   5
HETATM    5  C   UNL     1     -10.231   9.307  67.731  1.00  0.00    -0.271 C  
BRANCH   5   6
HETATM    6  C   UNL     1     -10.308   9.242  66.199  1.00  0.00    -0.048 C  
BRANCH   6   7
HETATM    7  N   UNL     1      -9.676  10.436  65.579  1.00  0.00    -0.229 NA 
HETATM    8  C   UNL     1     -10.572  11.487  65.296  1.00  0.00    -0.283 A  
HETATM    9  C   UNL     1     -11.046  12.288  66.347  1.00  0.00    -0.345 A  
HETATM   10  C   UNL     1     -11.885  13.378  66.105  1.00  0.00    -0.427 A  
HETATM   11  C   UNL     1     -12.284  13.668  64.805  1.00  0.00    -0.440 A  
HETATM   12  C   UNL     1     -11.826  12.880  63.751  1.00  0.00    -0.571 A  
HETATM   13  C   UNL     1     -10.964  11.795  63.988  1.00  0.00    -0.451 A  
HETATM   14  C   UNL     1     -10.410  11.010  62.835  1.00  0.00    -0.052 C  
HETATM   15  C   UNL     1      -8.912  11.246  62.687  1.00  0.00    -0.311 C  
HETATM   16  C   UNL     1      -7.986  10.711  63.762  1.00  0.00     0.079 A  
HETATM   17  C   UNL     1      -6.622  10.649  63.396  1.00  0.00     0.116 A  
HETATM   18  C   UNL     1      -5.647  10.180  64.271  1.00  0.00    -0.122 A  
HETATM   19  C   UNL     1      -6.018   9.757  65.536  1.00  0.00    -0.070 A  
HETATM   20  C   UNL     1      -7.359   9.818  65.919  1.00  0.00    -0.103 A  
HETATM   21  C   UNL     1      -8.372  10.300  65.057  1.00  0.00    -0.168 A  
ENDBRANCH   6   7
ENDBRANCH   5   6
ENDBRANCH   4   5
ENDBRANCH   2   4
TORSDOF 4
ENDMDL
MODEL      158
REMARK 921   NORMALIZED FREE ENERGY PREDICTED BY IDOCK:   -3.60 KCAL/MOL
REMARK 922        TOTAL FREE ENERGY PREDICTED BY IDOCK:   -4.74 KCAL/MOL
REMARK 923 INTER-LIGAND FREE ENERGY PREDICTED BY IDOCK:   -5.33 KCAL/MOL
REMARK 924 INTRA-LIGAND FREE ENERGY PREDICTED BY IDOCK:    0.59 KCAL/MOL
REMARK 927      BINDING AFFINITY PREDICTED BY RF-SCORE:    0.00 PKD
ROOT
HETATM    1  C   UNL     1     -10.851   5.844  73.218  1.00  0.00    -0.261 C  
HETATM    2  N   UNL     1     -10.805   7.298  73.398  1.00  0.00    -0.371 NA 
HETATM    3  C   UNL     1      -9.409   7.745  73.403  1.00  0.00    -0.285 C  
ENDROOT
BRANCH   2   4
HETATM    4  C   UNL     1     -11.556   8.017  72.354  1.00  0.00    -0.390 C  
BRANCH   4   5
HETATM    5  C   UNL     1     -10.695   8.581  71.220  1.00  0.00    -0.302 C  
BRANCH   5   6
HETATM    6  C   UNL     1     -11.374   9.707  70.428  1.00  0.00    -0.277 C  
BRANCH   6   7
HETATM    7  N   UNL     1     -10.392  10.438  69.586  1.00  0.00    -0.237 NA 
HETATM    8  C   UNL     1     -10.955  11.447  68.779  1.00  0.00    -0.223 A  
HETATM    9  C   UNL     1     -11.348  12.660  69.368  1.00  0.00    -0.273 A  
HETATM   10  C   UNL     1     -11.851  13.710  68.597  1.00  0.00    -0.409 A  
HETATM   11  C   UNL     1     -11.995  13.551  67.224  1.00  0.00    -0.408 A  
HETATM   12  C   UNL     1     -11.615  12.353  66.623  1.00  0.00    -0.447 A  
HETATM   13  C   UNL     1     -11.087  11.302  67.393  1.00  0.00    -0.358 A  
HETATM   14  C   UNL     1     -10.601  10.050  66.722  1.00  0.00    -0.229 C  
HETATM   15  C   UNL     1      -9.085   9.934  66.822  1.00  0.00    -0.164 C  
HETATM   16  C   UNL     1      -8.467   9.688  68.184  1.00  0.00    -0.118 A  
HETATM   17  C   UNL     1      -7.126   9.243  68.158  1.00  0.00    -0.077 A  
HETATM   18  C   UNL     1      -6.419   8.971  69.325  1.00  0.00    -0.045 A  
HETATM   19  C   UNL     1      -7.042   9.137  70.550  1.00  0.00    -0.088 A  
HETATM   20  C   UNL     1      -8.364   9.583  70.597  1.00  0.00    -0.159 A  
HETATM   21  C   UNL     1      -9.106   9.877  69.429  1.00  0.00    -0.206 A  
ENDBRANCH   6   7
ENDBRANCH   5   6
ENDBRANCH   4   5
ENDBRANCH   2   4
TORSDOF 4
ENDMDL
MODEL      159
REMARK 921   NORMALIZED FREE ENERGY PREDICTED BY IDOCK:   -3.60 KCAL/MOL
REMARK 922        TOTAL FREE ENERGY PREDICTED BY IDOCK:   -4.74 KCAL/MOL
REMARK 923 INTER-LIGAND FREE ENERGY PREDICTED BY IDOCK:   -3.95 KCAL/MOL
REMARK 924 INTRA-LIGAND FREE ENERGY PREDICTED BY IDOCK:   -0.78 KCAL/MOL
REMARK 927      BINDING AFFINITY PREDICTED BY RF-SCORE:    0.00 PKD
ROOT
HETATM    1  C   UNL     1     -13.011  10.745  71.100  1.00  0.00    -0.371 C  
HETATM    2  N   UNL     1     -12.988   9.614  72.033  1.00  0.00    -0.417 NA 
HETATM    3  C   UNL     1     -14.127   8.732  71.757  1.00  0.00    -0.401 C  
ENDROOT
BRANCH   2   4
HETATM    4  C   UNL     1     -11.733   8.848  71.956  1.00  0.00    -0.367 C  
BRANCH   4   5
HETATM    5  C   UNL     1     -10.971   8.998  70.636  1.00  0.00    -0.308 C  
BRANCH   5   6
HETATM    6  C   UNL     1     -10.888   7.702  69.818  1.00  0.00    -0.217 C  
BRANCH   6   7
HETATM    7  N   UNL     1      -9.532   7.099  69.905  1.00  0.00    -0.154 NA 
HETATM    8  C   UNL     1      -9.460   5.950  70.719  1.00  0.00    -0.165 A  
HETATM    9  C   UNL     1      -9.967   4.733  70.237  1.00  0.00    -0.320 A  
HETATM   10  C   UNL     1      -9.858   3.557  70.984  1.00  0.00    -0.156 A  
HETATM   11  C   UNL     1      -9.262   3.588  72.239  1.00  0.00    -0.158 A  
HETATM   12  C   UNL     1      -8.757   4.789  72.734  1.00  0.00    -0.114 A  
HETATM   13  C   UNL     1      -8.845   5.970  71.977  1.00  0.00    -0.137 A  
HETATM   14  C   UNL     1      -8.220   7.236  72.485  1.00  0.00    -0.122 C  
HETATM   15  C   UNL     1      -7.017   7.627  71.636  1.00  0.00    -0.061 C  
HETATM   16  C   UNL     1      -7.255   8.076  70.208  1.00  0.00    -0.053 A  
HETATM   17  C   UNL     1      -6.168   8.750  69.606  1.00  0.00    -0.036 A  
HETATM   18  C   UNL     1      -6.231   9.226  68.300  1.00  0.00    -0.053 A  
HETATM   19  C   UNL     1      -7.390   9.041  67.565  1.00  0.00    -0.081 A  
HETATM   20  C   UNL     1      -8.472   8.372  68.140  1.00  0.00    -0.132 A  
HETATM   21  C   UNL     1      -8.435   7.867  69.460  1.00  0.00    -0.133 A  
ENDBRANCH   6   7
ENDBRANCH   5   6
ENDBRANCH   4   5
ENDBRANCH   2   4
TORSDOF 4
ENDMDL
MODEL      160
REMARK 921   NORMALIZED FREE ENERGY PREDICTED BY IDOCK:   -3.55 KCAL/MOL
REMARK 922        TOTAL FREE ENERGY PREDICTED BY IDOCK:   -4.67 KCAL/MOL
REMARK 923 INTER-LIGAND FREE ENERGY PREDICTED BY IDOCK:   -4.66 KCAL/MOL
REMARK 924 INTRA-LIGAND FREE ENERGY PREDICTED BY IDOCK:   -0.02 KCAL/MOL
REMARK 927      BINDING AFFINITY PREDICTED BY RF-SCORE:    0.00 PKD
ROOT
HETATM    1  C   UNL     1      -8.065  16.094  67.062  1.00  0.00    -0.210 C  
HETATM    2  N   UNL     1      -8.947  16.448  68.178  1.00  0.00    -0.193 NA 
HETATM    3  C   UNL     1      -9.515  17.780  67.947  1.00  0.00    -0.270 C  
ENDROOT
BRANCH   2   4
HETATM    4  C   UNL     1     -10.030  15.469  68.370  1.00  0.00    -0.214 C  
BRANCH   4   5
HETATM    5  C   UNL     1      -9.562  14.070  68.783  1.00  0.00    -0.098 C  
BRANCH   5   6
HETATM    6  C   UNL     1     -10.229  12.935  67.994  1.00  0.00    -0.229 C  
BRANCH   6   7
HETATM    7  N   UNL     1      -9.597  12.766  66.659  1.00  0.00    -0.249 NA 
HETATM    8  C   UNL     1     -10.486  12.902  65.574  1.00  0.00    -0.289 A  
HETATM    9  C   UNL     1     -10.926  14.181  65.200  1.00  0.00    -0.361 A  
HETATM   10  C   UNL     1     -11.756  14.366  64.092  1.00  0.00    -0.249 A  
HETATM   11  C   UNL     1     -12.182  13.267  63.356  1.00  0.00    -0.476 A  
HETATM   12  C   UNL     1     -11.759  11.989  63.716  1.00  0.00    -0.575 A  
HETATM   13  C   UNL     1     -10.905  11.800  64.817  1.00  0.00    -0.358 A  
HETATM   14  C   UNL     1     -10.388  10.429  65.140  1.00  0.00    -0.260 C  
HETATM   15  C   UNL     1      -8.891  10.336  64.872  1.00  0.00    -0.213 C  
HETATM   16  C   UNL     1      -7.947  11.124  65.759  1.00  0.00     0.060 A  
HETATM   17  C   UNL     1      -6.593  10.724  65.690  1.00  0.00    -0.026 A  
HETATM   18  C   UNL     1      -5.604  11.348  66.445  1.00  0.00    -0.125 A  
HETATM   19  C   UNL     1      -5.951  12.387  67.291  1.00  0.00    -0.134 A  
HETATM   20  C   UNL     1      -7.282  12.802  67.366  1.00  0.00    -0.134 A  
HETATM   21  C   UNL     1      -8.307  12.196  66.605  1.00  0.00    -0.051 A  
ENDBRANCH   6   7
ENDBRANCH   5   6
ENDBRANCH   4   5
ENDBRANCH   2   4
TORSDOF 4
ENDMDL
MODEL      161
REMARK 921   NORMALIZED FREE ENERGY PREDICTED BY IDOCK:   -3.52 KCAL/MOL
REMARK 922        TOTAL FREE ENERGY PREDICTED BY IDOCK:   -4.64 KCAL/MOL
REMARK 923 INTER-LIGAND FREE ENERGY PREDICTED BY IDOCK:   -4.11 KCAL/MOL
REMARK 924 INTRA-LIGAND FREE ENERGY PREDICTED BY IDOCK:   -0.53 KCAL/MOL
REMARK 927      BINDING AFFINITY PREDICTED BY RF-SCORE:    0.00 PKD
ROOT
HETATM    1  C   UNL     1      -5.614  13.752  69.487  1.00  0.00    -0.090 C  
HETATM    2  N   UNL     1      -5.897  12.816  68.395  1.00  0.00    -0.057 NA 
HETATM    3  C   UNL     1      -5.166  11.566  68.623  1.00  0.00    -0.043 C  
ENDROOT
BRANCH   2   4
HETATM    4  C   UNL     1      -7.336  12.535  68.256  1.00  0.00    -0.115 C  
BRANCH   4   5
HETATM    5  C   UNL     1      -8.078  13.462  67.288  1.00  0.00    -0.147 C  
BRANCH   5   6
HETATM    6  C   UNL     1      -9.523  13.029  67.001  1.00  0.00    -0.237 C  
BRANCH   6   7
HETATM    7  N   UNL     1     -10.495  14.019  67.534  1.00  0.00    -0.251 NA 
HETATM    8  C   UNL     1     -10.386  15.304  66.966  1.00  0.00    -0.277 A  
HETATM    9  C   UNL     1     -10.876  15.526  65.669  1.00  0.00    -0.354 A  
HETATM   10  C   UNL     1     -10.846  16.799  65.093  1.00  0.00    -0.150 A  
HETATM   11  C   UNL     1     -10.300  17.864  65.798  1.00  0.00    -0.182 A  
HETATM   12  C   UNL     1      -9.805  17.660  67.084  1.00  0.00    -0.306 A  
HETATM   13  C   UNL     1      -9.854  16.386  67.677  1.00  0.00    -0.243 A  
HETATM   14  C   UNL     1      -9.398  16.200  69.095  1.00  0.00    -0.238 C  
HETATM   15  C   UNL     1     -10.576  15.884  70.007  1.00  0.00    -0.320 C  
HETATM   16  C   UNL     1     -11.281  14.552  69.843  1.00  0.00    -0.247 A  
HETATM   17  C   UNL     1     -12.110  14.180  70.926  1.00  0.00    -0.416 A  
HETATM   18  C   UNL     1     -12.824  12.985  70.927  1.00  0.00    -0.222 A  
HETATM   19  C   UNL     1     -12.721  12.131  69.842  1.00  0.00     0.343 A  
HETATM   20  C   UNL     1     -11.913  12.485  68.760  1.00  0.00    -0.283 A  
HETATM   21  C   UNL     1     -11.184  13.697  68.723  1.00  0.00    -0.279 A  
ENDBRANCH   6   7
ENDBRANCH   5   6
ENDBRANCH   4   5
ENDBRANCH   2   4
TORSDOF 4
ENDMDL
MODEL      162
REMARK 921   NORMALIZED FREE ENERGY PREDICTED BY IDOCK:   -3.52 KCAL/MOL
REMARK 922        TOTAL FREE ENERGY PREDICTED BY IDOCK:   -4.64 KCAL/MOL
REMARK 923 INTER-LIGAND FREE ENERGY PREDICTED BY IDOCK:   -4.64 KCAL/MOL
REMARK 924 INTRA-LIGAND FREE ENERGY PREDICTED BY IDOCK:   -0.01 KCAL/MOL
REMARK 927      BINDING AFFINITY PREDICTED BY RF-SCORE:    0.00 PKD
ROOT
HETATM    1  C   UNL     1     -10.380  14.725  69.320  1.00  0.00    -0.206 C  
HETATM    2  N   UNL     1     -11.436  14.295  68.399  1.00  0.00    -0.283 NA 
HETATM    3  C   UNL     1     -11.039  14.605  67.022  1.00  0.00    -0.333 C  
ENDROOT
BRANCH   2   4
HETATM    4  C   UNL     1     -11.736  12.858  68.521  1.00  0.00    -0.339 C  
BRANCH   4   5
HETATM    5  C   UNL     1     -10.568  11.929  68.176  1.00  0.00    -0.233 C  
BRANCH   5   6
HETATM    6  C   UNL     1     -10.924  10.437  68.238  1.00  0.00    -0.270 C  
BRANCH   6   7
HETATM    7  N   UNL     1     -10.587   9.752  66.963  1.00  0.00    -0.225 NA 
HETATM    8  C   UNL     1     -10.129   8.428  67.118  1.00  0.00    -0.265 A  
HETATM    9  C   UNL     1     -11.051   7.412  67.416  1.00  0.00    -0.066 A  
HETATM   10  C   UNL     1     -10.651   6.077  67.515  1.00  0.00    -0.345 A  
HETATM   11  C   UNL     1      -9.313   5.743  67.344  1.00  0.00    -0.112 A  
HETATM   12  C   UNL     1      -8.384   6.739  67.052  1.00  0.00    -0.114 A  
HETATM   13  C   UNL     1      -8.786   8.080  66.929  1.00  0.00    -0.146 A  
HETATM   14  C   UNL     1      -7.790   9.129  66.529  1.00  0.00    -0.100 C  
HETATM   15  C   UNL     1      -8.089   9.657  65.131  1.00  0.00    -0.124 C  
HETATM   16  C   UNL     1      -9.346  10.479  64.922  1.00  0.00    -0.278 A  
HETATM   17  C   UNL     1      -9.379  11.220  63.719  1.00  0.00    -0.160 A  
HETATM   18  C   UNL     1     -10.463  12.026  63.383  1.00  0.00    -0.474 A  
HETATM   19  C   UNL     1     -11.540  12.109  64.247  1.00  0.00    -0.444 A  
HETATM   20  C   UNL     1     -11.530  11.378  65.437  1.00  0.00     0.028 A  
HETATM   21  C   UNL     1     -10.449  10.543  65.802  1.00  0.00    -0.143 A  
ENDBRANCH   6   7
ENDBRANCH   5   6
ENDBRANCH   4   5
ENDBRANCH   2   4
TORSDOF 4
ENDMDL
MODEL      163
REMARK 921   NORMALIZED FREE ENERGY PREDICTED BY IDOCK:   -3.50 KCAL/MOL
REMARK 922        TOTAL FREE ENERGY PREDICTED BY IDOCK:   -4.61 KCAL/MOL
REMARK 923 INTER-LIGAND FREE ENERGY PREDICTED BY IDOCK:   -4.42 KCAL/MOL
REMARK 924 INTRA-LIGAND FREE ENERGY PREDICTED BY IDOCK:   -0.19 KCAL/MOL
REMARK 927      BINDING AFFINITY PREDICTED BY RF-SCORE:    0.00 PKD
ROOT
HETATM    1  C   UNL     1     -12.060   9.731  71.048  1.00  0.00    -0.346 C  
HETATM    2  N   UNL     1     -12.471  11.014  70.470  1.00  0.00    -0.342 NA 
HETATM    3  C   UNL     1     -13.032  11.865  71.524  1.00  0.00    -0.323 C  
ENDROOT
BRANCH   2   4
HETATM    4  C   UNL     1     -11.358  11.711  69.804  1.00  0.00    -0.200 C  
BRANCH   4   5
HETATM    5  C   UNL     1     -11.328  11.560  68.280  1.00  0.00    -0.352 C  
BRANCH   5   6
HETATM    6  C   UNL     1     -10.231  10.614  67.773  1.00  0.00    -0.180 C  
BRANCH   6   7
HETATM    7  N   UNL     1      -9.308  11.314  66.842  1.00  0.00    -0.175 NA 
HETATM    8  C   UNL     1      -9.546  11.048  65.478  1.00  0.00    -0.222 A  
HETATM    9  C   UNL     1     -10.642  11.652  64.841  1.00  0.00    -0.349 A  
HETATM   10  C   UNL     1     -10.878  11.467  63.477  1.00  0.00    -0.473 A  
HETATM   11  C   UNL     1     -10.034  10.651  62.734  1.00  0.00    -0.118 A  
HETATM   12  C   UNL     1      -8.945  10.039  63.351  1.00  0.00    -0.277 A  
HETATM   13  C   UNL     1      -8.690  10.241  64.719  1.00  0.00    -0.201 A  
HETATM   14  C   UNL     1      -7.465   9.648  65.351  1.00  0.00    -0.111 C  
HETATM   15  C   UNL     1      -6.471  10.736  65.737  1.00  0.00    -0.074 C  
HETATM   16  C   UNL     1      -6.839  11.686  66.859  1.00  0.00    -0.129 A  
HETATM   17  C   UNL     1      -5.758  12.423  67.395  1.00  0.00    -0.134 A  
HETATM   18  C   UNL     1      -5.932  13.335  68.431  1.00  0.00    -0.090 A  
HETATM   19  C   UNL     1      -7.197  13.528  68.959  1.00  0.00    -0.031 A  
HETATM   20  C   UNL     1      -8.279  12.816  68.438  1.00  0.00    -0.128 A  
HETATM   21  C   UNL     1      -8.137  11.891  67.378  1.00  0.00    -0.165 A  
ENDBRANCH   6   7
ENDBRANCH   5   6
ENDBRANCH   4   5
ENDBRANCH   2   4
TORSDOF 4
ENDMDL
MODEL      164
REMARK 921   NORMALIZED FREE ENERGY PREDICTED BY IDOCK:   -3.47 KCAL/MOL
REMARK 922        TOTAL FREE ENERGY PREDICTED BY IDOCK:   -4.58 KCAL/MOL
REMARK 923 INTER-LIGAND FREE ENERGY PREDICTED BY IDOCK:   -4.42 KCAL/MOL
REMARK 924 INTRA-LIGAND FREE ENERGY PREDICTED BY IDOCK:   -0.16 KCAL/MOL
REMARK 927      BINDING AFFINITY PREDICTED BY RF-SCORE:    0.00 PKD
ROOT
HETATM    1  C   UNL     1      -8.251   9.993  69.860  1.00  0.00    -0.159 C  
HETATM    2  N   UNL     1      -6.960  10.593  70.209  1.00  0.00    -0.254 NA 
HETATM    3  C   UNL     1      -5.943   9.541  70.301  1.00  0.00    -0.047 C  
ENDROOT
BRANCH   2   4
HETATM    4  C   UNL     1      -6.535  11.616  69.239  1.00  0.00    -0.105 C  
BRANCH   4   5
HETATM    5  C   UNL     1      -7.499  11.825  68.067  1.00  0.00    -0.101 C  
BRANCH   5   6
HETATM    6  C   UNL     1      -7.260  13.131  67.295  1.00  0.00    -0.032 C  
BRANCH   6   7
HETATM    7  N   UNL     1      -8.171  14.207  67.768  1.00  0.00    -0.155 NA 
HETATM    8  C   UNL     1      -9.515  14.045  67.374  1.00  0.00    -0.225 A  
HETATM    9  C   UNL     1     -10.312  13.090  68.025  1.00  0.00    -0.237 A  
HETATM   10  C   UNL     1     -11.665  12.941  67.711  1.00  0.00    -0.412 A  
HETATM   11  C   UNL     1     -12.235  13.729  66.719  1.00  0.00    -0.440 A  
HETATM   12  C   UNL     1     -11.457  14.679  66.059  1.00  0.00    -0.332 A  
HETATM   13  C   UNL     1     -10.101  14.848  66.388  1.00  0.00    -0.296 A  
HETATM   14  C   UNL     1      -9.299  15.933  65.732  1.00  0.00    -0.280 C  
HETATM   15  C   UNL     1      -8.940  17.024  66.733  1.00  0.00    -0.267 C  
HETATM   16  C   UNL     1      -7.964  16.693  67.844  1.00  0.00    -0.177 A  
HETATM   17  C   UNL     1      -7.411  17.814  68.504  1.00  0.00    -0.266 A  
HETATM   18  C   UNL     1      -6.498  17.677  69.546  1.00  0.00    -0.193 A  
HETATM   19  C   UNL     1      -6.113  16.409  69.948  1.00  0.00    -0.187 A  
HETATM   20  C   UNL     1      -6.654  15.290  69.314  1.00  0.00    -0.141 A  
HETATM   21  C   UNL     1      -7.592  15.396  68.260  1.00  0.00    -0.115 A  
ENDBRANCH   6   7
ENDBRANCH   5   6
ENDBRANCH   4   5
ENDBRANCH   2   4
TORSDOF 4
ENDMDL
MODEL      165
REMARK 921   NORMALIZED FREE ENERGY PREDICTED BY IDOCK:   -3.44 KCAL/MOL
REMARK 922        TOTAL FREE ENERGY PREDICTED BY IDOCK:   -4.55 KCAL/MOL
REMARK 923 INTER-LIGAND FREE ENERGY PREDICTED BY IDOCK:   -4.35 KCAL/MOL
REMARK 924 INTRA-LIGAND FREE ENERGY PREDICTED BY IDOCK:   -0.20 KCAL/MOL
REMARK 927      BINDING AFFINITY PREDICTED BY RF-SCORE:    0.00 PKD
ROOT
HETATM    1  C   UNL     1     -10.291   3.593  73.958  1.00  0.00    -0.178 C  
HETATM    2  N   UNL     1     -10.647   4.327  72.740  1.00  0.00    -0.182 NA 
HETATM    3  C   UNL     1     -11.598   5.392  73.073  1.00  0.00    -0.200 C  
ENDROOT
BRANCH   2   4
HETATM    4  C   UNL     1      -9.470   4.900  72.067  1.00  0.00    -0.143 C  
BRANCH   4   5
HETATM    5  C   UNL     1      -9.398   6.430  72.095  1.00  0.00    -0.149 C  
BRANCH   5   6
HETATM    6  C   UNL     1      -9.437   7.077  70.703  1.00  0.00    -0.165 C  
BRANCH   6   7
HETATM    7  N   UNL     1      -9.279   8.553  70.794  1.00  0.00    -0.161 NA 
HETATM    8  C   UNL     1     -10.488   9.273  70.711  1.00  0.00    -0.276 A  
HETATM    9  C   UNL     1     -11.349   9.301  71.819  1.00  0.00    -0.437 A  
HETATM   10  C   UNL     1     -12.526  10.053  71.803  1.00  0.00    -0.475 A  
HETATM   11  C   UNL     1     -12.872  10.770  70.663  1.00  0.00    -0.377 A  
HETATM   12  C   UNL     1     -12.031  10.749  69.553  1.00  0.00    -0.364 A  
HETATM   13  C   UNL     1     -10.835  10.011  69.573  1.00  0.00    -0.283 A  
HETATM   14  C   UNL     1      -9.897  10.069  68.403  1.00  0.00    -0.169 C  
HETATM   15  C   UNL     1      -8.614  10.804  68.771  1.00  0.00    -0.156 C  
HETATM   16  C   UNL     1      -7.666  10.153  69.760  1.00  0.00    -0.176 A  
HETATM   17  C   UNL     1      -6.363  10.700  69.783  1.00  0.00    -0.099 A  
HETATM   18  C   UNL     1      -5.377  10.212  70.635  1.00  0.00    -0.059 A  
HETATM   19  C   UNL     1      -5.674   9.159  71.484  1.00  0.00    -0.066 A  
HETATM   20  C   UNL     1      -6.958   8.611  71.481  1.00  0.00    -0.091 A  
HETATM   21  C   UNL     1      -7.984   9.091  70.635  1.00  0.00    -0.141 A  
ENDBRANCH   6   7
ENDBRANCH   5   6
ENDBRANCH   4   5
ENDBRANCH   2   4
TORSDOF 4
ENDMDL
MODEL      166
REMARK 921   NORMALIZED FREE ENERGY PREDICTED BY IDOCK:   -3.44 KCAL/MOL
REMARK 922        TOTAL FREE ENERGY PREDICTED BY IDOCK:   -4.54 KCAL/MOL
REMARK 923 INTER-LIGAND FREE ENERGY PREDICTED BY IDOCK:   -3.75 KCAL/MOL
REMARK 924 INTRA-LIGAND FREE ENERGY PREDICTED BY IDOCK:   -0.79 KCAL/MOL
REMARK 927      BINDING AFFINITY PREDICTED BY RF-SCORE:    0.00 PKD
ROOT
HETATM    1  C   UNL     1     -10.989  10.053  70.820  1.00  0.00    -0.305 C  
HETATM    2  N   UNL     1     -10.392  10.103  69.481  1.00  0.00    -0.225 NA 
HETATM    3  C   UNL     1     -10.664  11.410  68.875  1.00  0.00    -0.210 C  
ENDROOT
BRANCH   2   4
HETATM    4  C   UNL     1      -8.941   9.854  69.504  1.00  0.00    -0.211 C  
BRANCH   4   5
HETATM    5  C   UNL     1      -8.472   8.719  68.590  1.00  0.00    -0.129 C  
BRANCH   5   6
HETATM    6  C   UNL     1      -9.618   7.960  67.906  1.00  0.00    -0.147 C  
BRANCH   6   7
HETATM    7  N   UNL     1      -9.705   6.561  68.400  1.00  0.00    -0.131 NA 
HETATM    8  C   UNL     1     -10.159   6.441  69.729  1.00  0.00    -0.176 A  
HETATM    9  C   UNL     1     -11.523   6.621  70.009  1.00  0.00    -0.434 A  
HETATM   10  C   UNL     1     -12.025   6.448  71.301  1.00  0.00    -0.288 A  
HETATM   11  C   UNL     1     -11.163   6.118  72.339  1.00  0.00    -0.329 A  
HETATM   12  C   UNL     1      -9.805   5.941  72.080  1.00  0.00    -0.185 A  
HETATM   13  C   UNL     1      -9.299   6.091  70.777  1.00  0.00    -0.169 A  
HETATM   14  C   UNL     1      -7.852   5.811  70.497  1.00  0.00    -0.100 C  
HETATM   15  C   UNL     1      -7.696   4.558  69.645  1.00  0.00    -0.054 C  
HETATM   16  C   UNL     1      -8.178   4.595  68.209  1.00  0.00    -0.090 A  
HETATM   17  C   UNL     1      -7.691   3.551  67.390  1.00  0.00    -0.078 A  
HETATM   18  C   UNL     1      -8.040   3.447  66.047  1.00  0.00    -0.093 A  
HETATM   19  C   UNL     1      -8.885   4.392  65.490  1.00  0.00    -0.127 A  
HETATM   20  C   UNL     1      -9.382   5.427  66.285  1.00  0.00    -0.163 A  
HETATM   21  C   UNL     1      -9.055   5.554  67.655  1.00  0.00    -0.107 A  
ENDBRANCH   6   7
ENDBRANCH   5   6
ENDBRANCH   4   5
ENDBRANCH   2   4
TORSDOF 4
ENDMDL
MODEL      167
REMARK 921   NORMALIZED FREE ENERGY PREDICTED BY IDOCK:   -3.43 KCAL/MOL
REMARK 922        TOTAL FREE ENERGY PREDICTED BY IDOCK:   -4.53 KCAL/MOL
REMARK 923 INTER-LIGAND FREE ENERGY PREDICTED BY IDOCK:   -3.83 KCAL/MOL
REMARK 924 INTRA-LIGAND FREE ENERGY PREDICTED BY IDOCK:   -0.70 KCAL/MOL
REMARK 927      BINDING AFFINITY PREDICTED BY RF-SCORE:    0.00 PKD
ROOT
HETATM    1  C   UNL     1     -11.307   5.761  72.537  1.00  0.00    -0.307 C  
HETATM    2  N   UNL     1     -12.180   6.784  71.954  1.00  0.00    -0.341 NA 
HETATM    3  C   UNL     1     -12.005   8.046  72.680  1.00  0.00    -0.277 C  
ENDROOT
BRANCH   2   4
HETATM    4  C   UNL     1     -11.920   6.992  70.520  1.00  0.00    -0.266 C  
BRANCH   4   5
HETATM    5  C   UNL     1     -10.911   6.018  69.904  1.00  0.00    -0.458 C  
BRANCH   5   6
HETATM    6  C   UNL     1     -10.931   5.994  68.369  1.00  0.00    -0.251 C  
BRANCH   6   7
HETATM    7  N   UNL     1      -9.693   6.595  67.808  1.00  0.00    -0.122 NA 
HETATM    8  C   UNL     1      -8.659   5.670  67.560  1.00  0.00    -0.108 A  
HETATM    9  C   UNL     1      -8.748   4.821  66.445  1.00  0.00    -0.112 A  
HETATM   10  C   UNL     1      -7.717   3.934  66.126  1.00  0.00    -0.089 A  
HETATM   11  C   UNL     1      -6.589   3.865  66.936  1.00  0.00    -0.046 A  
HETATM   12  C   UNL     1      -6.487   4.697  68.049  1.00  0.00    -0.041 A  
HETATM   13  C   UNL     1      -7.512   5.607  68.361  1.00  0.00    -0.077 A  
HETATM   14  C   UNL     1      -7.349   6.558  69.511  1.00  0.00    -0.091 C  
HETATM   15  C   UNL     1      -7.203   7.991  69.015  1.00  0.00    -0.078 C  
HETATM   16  C   UNL     1      -8.402   8.657  68.368  1.00  0.00    -0.127 A  
HETATM   17  C   UNL     1      -8.314  10.064  68.260  1.00  0.00    -0.110 A  
HETATM   18  C   UNL     1      -9.334  10.821  67.691  1.00  0.00    -0.156 A  
HETATM   19  C   UNL     1     -10.469  10.186  67.220  1.00  0.00    -0.313 A  
HETATM   20  C   UNL     1     -10.571   8.796  67.311  1.00  0.00    -0.303 A  
HETATM   21  C   UNL     1      -9.548   7.998  67.873  1.00  0.00    -0.155 A  
ENDBRANCH   6   7
ENDBRANCH   5   6
ENDBRANCH   4   5
ENDBRANCH   2   4
TORSDOF 4
ENDMDL
MODEL      168
REMARK 921   NORMALIZED FREE ENERGY PREDICTED BY IDOCK:   -3.41 KCAL/MOL
REMARK 922        TOTAL FREE ENERGY PREDICTED BY IDOCK:   -4.50 KCAL/MOL
REMARK 923 INTER-LIGAND FREE ENERGY PREDICTED BY IDOCK:   -4.40 KCAL/MOL
REMARK 924 INTRA-LIGAND FREE ENERGY PREDICTED BY IDOCK:   -0.10 KCAL/MOL
REMARK 927      BINDING AFFINITY PREDICTED BY RF-SCORE:    0.00 PKD
ROOT
HETATM    1  C   UNL     1     -10.209  12.310  67.490  1.00  0.00    -0.204 C  
HETATM    2  N   UNL     1      -8.936  11.643  67.199  1.00  0.00    -0.168 NA 
HETATM    3  C   UNL     1      -7.847  12.356  67.873  1.00  0.00    -0.145 C  
ENDROOT
BRANCH   2   4
HETATM    4  C   UNL     1      -8.938  10.229  67.609  1.00  0.00    -0.134 C  
BRANCH   4   5
HETATM    5  C   UNL     1      -8.540   9.986  69.068  1.00  0.00    -0.153 C  
BRANCH   5   6
HETATM    6  C   UNL     1      -8.168   8.528  69.374  1.00  0.00    -0.114 C  
BRANCH   6   7
HETATM    7  N   UNL     1      -9.373   7.658  69.385  1.00  0.00    -0.153 NA 
HETATM    8  C   UNL     1     -10.243   7.884  70.470  1.00  0.00    -0.198 A  
HETATM    9  C   UNL     1     -11.068   9.020  70.466  1.00  0.00    -0.297 A  
HETATM   10  C   UNL     1     -11.990   9.248  71.490  1.00  0.00    -0.439 A  
HETATM   11  C   UNL     1     -12.082   8.355  72.550  1.00  0.00    -0.403 A  
HETATM   12  C   UNL     1     -11.267   7.225  72.573  1.00  0.00    -0.342 A  
HETATM   13  C   UNL     1     -10.353   6.979  71.533  1.00  0.00    -0.218 A  
HETATM   14  C   UNL     1      -9.546   5.714  71.527  1.00  0.00    -0.184 C  
HETATM   15  C   UNL     1      -9.986   4.793  70.396  1.00  0.00    -0.315 C  
HETATM   16  C   UNL     1      -9.709   5.219  68.968  1.00  0.00    -0.217 A  
HETATM   17  C   UNL     1      -9.814   4.187  68.007  1.00  0.00    -0.088 A  
HETATM   18  C   UNL     1      -9.588   4.417  66.654  1.00  0.00    -0.213 A  
HETATM   19  C   UNL     1      -9.247   5.690  66.230  1.00  0.00    -0.165 A  
HETATM   20  C   UNL     1      -9.146   6.725  67.162  1.00  0.00    -0.130 A  
HETATM   21  C   UNL     1      -9.380   6.525  68.542  1.00  0.00    -0.123 A  
ENDBRANCH   6   7
ENDBRANCH   5   6
ENDBRANCH   4   5
ENDBRANCH   2   4
TORSDOF 4
ENDMDL
MODEL      169
REMARK 921   NORMALIZED FREE ENERGY PREDICTED BY IDOCK:   -3.40 KCAL/MOL
REMARK 922        TOTAL FREE ENERGY PREDICTED BY IDOCK:   -4.49 KCAL/MOL
REMARK 923 INTER-LIGAND FREE ENERGY PREDICTED BY IDOCK:   -4.49 KCAL/MOL
REMARK 924 INTRA-LIGAND FREE ENERGY PREDICTED BY IDOCK:    0.00 KCAL/MOL
REMARK 927      BINDING AFFINITY PREDICTED BY RF-SCORE:    0.00 PKD
ROOT
HETATM    1  C   UNL     1      -8.332  12.005  66.877  1.00  0.00    -0.159 C  
HETATM    2  N   UNL     1      -9.156  11.669  65.713  1.00  0.00    -0.169 NA 
HETATM    3  C   UNL     1      -9.665  10.301  65.853  1.00  0.00    -0.225 C  
ENDROOT
BRANCH   2   4
HETATM    4  C   UNL     1     -10.280  12.604  65.532  1.00  0.00    -0.281 C  
BRANCH   4   5
HETATM    5  C   UNL     1      -9.873  14.022  65.120  1.00  0.00    -0.138 C  
BRANCH   5   6
HETATM    6  C   UNL     1     -10.649  15.126  65.851  1.00  0.00    -0.337 C  
BRANCH   6   7
HETATM    7  N   UNL     1     -10.107  15.348  67.218  1.00  0.00    -0.236 NA 
HETATM    8  C   UNL     1     -10.951  14.904  68.256  1.00  0.00    -0.264 A  
HETATM    9  C   UNL     1     -11.050  13.530  68.523  1.00  0.00    -0.300 A  
HETATM   10  C   UNL     1     -11.824  13.051  69.583  1.00  0.00    -0.385 A  
HETATM   11  C   UNL     1     -12.533  13.944  70.378  1.00  0.00    -0.404 A  
HETATM   12  C   UNL     1     -12.450  15.311  70.124  1.00  0.00    -0.374 A  
HETATM   13  C   UNL     1     -11.655  15.798  69.072  1.00  0.00    -0.406 A  
HETATM   14  C   UNL     1     -11.505  17.277  68.867  1.00  0.00     0.816 C  
HETATM   15  C   UNL     1     -10.089  17.731  69.197  1.00  0.00    -0.220 C  
HETATM   16  C   UNL     1      -8.957  17.284  68.294  1.00  0.00    -0.262 A  
HETATM   17  C   UNL     1      -7.754  18.013  68.441  1.00  0.00    -0.291 A  
HETATM   18  C   UNL     1      -6.624  17.725  67.682  1.00  0.00    -0.191 A  
HETATM   19  C   UNL     1      -6.673  16.700  66.753  1.00  0.00    -0.241 A  
HETATM   20  C   UNL     1      -7.849  15.964  66.598  1.00  0.00    -0.236 A  
HETATM   21  C   UNL     1      -9.011  16.225  67.361  1.00  0.00    -0.187 A  
ENDBRANCH   6   7
ENDBRANCH   5   6
ENDBRANCH   4   5
ENDBRANCH   2   4
TORSDOF 4
ENDMDL
MODEL      170
REMARK 921   NORMALIZED FREE ENERGY PREDICTED BY IDOCK:   -3.40 KCAL/MOL
REMARK 922        TOTAL FREE ENERGY PREDICTED BY IDOCK:   -4.49 KCAL/MOL
REMARK 923 INTER-LIGAND FREE ENERGY PREDICTED BY IDOCK:   -4.49 KCAL/MOL
REMARK 924 INTRA-LIGAND FREE ENERGY PREDICTED BY IDOCK:    0.00 KCAL/MOL
REMARK 927      BINDING AFFINITY PREDICTED BY RF-SCORE:    0.00 PKD
ROOT
HETATM    1  C   UNL     1     -12.449   9.172  71.880  1.00  0.00    -0.387 C  
HETATM    2  N   UNL     1     -11.145   8.868  71.283  1.00  0.00    -0.272 NA 
HETATM    3  C   UNL     1     -10.828   9.876  70.267  1.00  0.00    -0.310 C  
ENDROOT
BRANCH   2   4
HETATM    4  C   UNL     1     -10.069   8.813  72.286  1.00  0.00    -0.238 C  
BRANCH   4   5
HETATM    5  C   UNL     1      -9.352   7.463  72.382  1.00  0.00    -0.179 C  
BRANCH   5   6
HETATM    6  C   UNL     1      -8.753   6.984  71.053  1.00  0.00    -0.139 C  
BRANCH   6   7
HETATM    7  N   UNL     1      -9.483   5.798  70.532  1.00  0.00    -0.164 NA 
HETATM    8  C   UNL     1      -9.690   4.779  71.484  1.00  0.00    -0.172 A  
HETATM    9  C   UNL     1     -10.675   4.948  72.470  1.00  0.00    -0.258 A  
HETATM   10  C   UNL     1     -10.957   3.938  73.393  1.00  0.00    -0.327 A  
HETATM   11  C   UNL     1     -10.235   2.751  73.359  1.00  0.00    -0.204 A  
HETATM   12  C   UNL     1      -9.251   2.568  72.391  1.00  0.00    -0.134 A  
HETATM   13  C   UNL     1      -8.980   3.573  71.445  1.00  0.00    -0.158 A  
HETATM   14  C   UNL     1      -7.979   3.328  70.355  1.00  0.00    -0.052 C  
HETATM   15  C   UNL     1      -8.665   3.233  68.998  1.00  0.00    -0.137 C  
HETATM   16  C   UNL     1      -9.296   4.483  68.418  1.00  0.00    -0.194 A  
HETATM   17  C   UNL     1      -9.592   4.416  67.038  1.00  0.00    -0.221 A  
HETATM   18  C   UNL     1     -10.172   5.483  66.358  1.00  0.00    -0.247 A  
HETATM   19  C   UNL     1     -10.467   6.647  67.046  1.00  0.00    -0.369 A  
HETATM   20  C   UNL     1     -10.189   6.730  68.412  1.00  0.00    -0.193 A  
HETATM   21  C   UNL     1      -9.611   5.660  69.133  1.00  0.00    -0.135 A  
ENDBRANCH   6   7
ENDBRANCH   5   6
ENDBRANCH   4   5
ENDBRANCH   2   4
TORSDOF 4
ENDMDL
MODEL      171
REMARK 921   NORMALIZED FREE ENERGY PREDICTED BY IDOCK:   -3.39 KCAL/MOL
REMARK 922        TOTAL FREE ENERGY PREDICTED BY IDOCK:   -4.48 KCAL/MOL
REMARK 923 INTER-LIGAND FREE ENERGY PREDICTED BY IDOCK:   -3.88 KCAL/MOL
REMARK 924 INTRA-LIGAND FREE ENERGY PREDICTED BY IDOCK:   -0.60 KCAL/MOL
REMARK 927      BINDING AFFINITY PREDICTED BY RF-SCORE:    0.00 PKD
ROOT
HETATM    1  C   UNL     1      -9.066   6.074  68.471  1.00  0.00    -0.112 C  
HETATM    2  N   UNL     1     -10.452   6.325  68.064  1.00  0.00    -0.196 NA 
HETATM    3  C   UNL     1     -11.272   6.575  69.254  1.00  0.00    -0.328 C  
ENDROOT
BRANCH   2   4
HETATM    4  C   UNL     1     -10.567   7.457  67.130  1.00  0.00    -0.342 C  
BRANCH   4   5
HETATM    5  C   UNL     1      -9.338   8.370  67.078  1.00  0.00    -0.202 C  
BRANCH   5   6
HETATM    6  C   UNL     1      -9.642   9.838  67.409  1.00  0.00    -0.155 C  
BRANCH   6   7
HETATM    7  N   UNL     1      -8.780  10.756  66.619  1.00  0.00    -0.143 NA 
HETATM    8  C   UNL     1      -9.090  10.806  65.245  1.00  0.00    -0.195 A  
HETATM    9  C   UNL     1     -10.225  11.514  64.821  1.00  0.00    -0.331 A  
HETATM   10  C   UNL     1     -10.533  11.643  63.465  1.00  0.00    -0.498 A  
HETATM   11  C   UNL     1      -9.722  11.040  62.511  1.00  0.00    -0.149 A  
HETATM   12  C   UNL     1      -8.594  10.329  62.915  1.00  0.00    -0.194 A  
HETATM   13  C   UNL     1      -8.267  10.216  64.277  1.00  0.00    -0.165 A  
HETATM   14  C   UNL     1      -7.002   9.522  64.691  1.00  0.00    -0.102 C  
HETATM   15  C   UNL     1      -6.001  10.516  65.268  1.00  0.00    -0.124 C  
HETATM   16  C   UNL     1      -6.318  11.172  66.597  1.00  0.00    -0.134 A  
HETATM   17  C   UNL     1      -5.218  11.791  67.233  1.00  0.00    -0.089 A  
HETATM   18  C   UNL     1      -5.345  12.435  68.460  1.00  0.00    -0.055 A  
HETATM   19  C   UNL     1      -6.582  12.472  69.082  1.00  0.00    -0.100 A  
HETATM   20  C   UNL     1      -7.682  11.874  68.466  1.00  0.00    -0.135 A  
HETATM   21  C   UNL     1      -7.588  11.221  67.215  1.00  0.00    -0.130 A  
ENDBRANCH   6   7
ENDBRANCH   5   6
ENDBRANCH   4   5
ENDBRANCH   2   4
TORSDOF 4
ENDMDL
MODEL      172
REMARK 921   NORMALIZED FREE ENERGY PREDICTED BY IDOCK:   -3.39 KCAL/MOL
REMARK 922        TOTAL FREE ENERGY PREDICTED BY IDOCK:   -4.48 KCAL/MOL
REMARK 923 INTER-LIGAND FREE ENERGY PREDICTED BY IDOCK:   -3.99 KCAL/MOL
REMARK 924 INTRA-LIGAND FREE ENERGY PREDICTED BY IDOCK:   -0.49 KCAL/MOL
REMARK 927      BINDING AFFINITY PREDICTED BY RF-SCORE:    0.00 PKD
ROOT
HETATM    1  C   UNL     1     -10.810   5.781  73.228  1.00  0.00    -0.272 C  
HETATM    2  N   UNL     1     -10.723   7.236  73.377  1.00  0.00    -0.387 NA 
HETATM    3  C   UNL     1      -9.321   7.625  73.557  1.00  0.00    -0.282 C  
ENDROOT
BRANCH   2   4
HETATM    4  C   UNL     1     -11.297   7.954  72.226  1.00  0.00    -0.337 C  
BRANCH   4   5
HETATM    5  C   UNL     1     -10.668   7.602  70.875  1.00  0.00    -0.243 C  
BRANCH   5   6
HETATM    6  C   UNL     1     -10.907   8.658  69.787  1.00  0.00    -0.183 C  
BRANCH   6   7
HETATM    7  N   UNL     1      -9.861   8.590  68.733  1.00  0.00    -0.168 NA 
HETATM    8  C   UNL     1      -9.741   7.329  68.114  1.00  0.00    -0.145 A  
HETATM    9  C   UNL     1     -10.707   6.928  67.177  1.00  0.00    -0.436 A  
HETATM   10  C   UNL     1     -10.593   5.716  66.493  1.00  0.00    -0.320 A  
HETATM   11  C   UNL     1      -9.521   4.871  66.758  1.00  0.00    -0.154 A  
HETATM   12  C   UNL     1      -8.557   5.250  67.689  1.00  0.00    -0.104 A  
HETATM   13  C   UNL     1      -8.656   6.480  68.363  1.00  0.00    -0.119 A  
HETATM   14  C   UNL     1      -7.565   6.915  69.297  1.00  0.00    -0.096 C  
HETATM   15  C   UNL     1      -6.801   8.103  68.725  1.00  0.00    -0.066 C  
HETATM   16  C   UNL     1      -7.515   9.435  68.613  1.00  0.00    -0.079 A  
HETATM   17  C   UNL     1      -6.668  10.550  68.418  1.00  0.00    -0.060 A  
HETATM   18  C   UNL     1      -7.171  11.842  68.298  1.00  0.00    -0.084 A  
HETATM   19  C   UNL     1      -8.538  12.048  68.373  1.00  0.00    -0.147 A  
HETATM   20  C   UNL     1      -9.391  10.958  68.557  1.00  0.00    -0.181 A  
HETATM   21  C   UNL     1      -8.912   9.633  68.672  1.00  0.00    -0.129 A  
ENDBRANCH   6   7
ENDBRANCH   5   6
ENDBRANCH   4   5
ENDBRANCH   2   4
TORSDOF 4
ENDMDL
MODEL      173
REMARK 921   NORMALIZED FREE ENERGY PREDICTED BY IDOCK:   -3.39 KCAL/MOL
REMARK 922        TOTAL FREE ENERGY PREDICTED BY IDOCK:   -4.47 KCAL/MOL
REMARK 923 INTER-LIGAND FREE ENERGY PREDICTED BY IDOCK:   -4.17 KCAL/MOL
REMARK 924 INTRA-LIGAND FREE ENERGY PREDICTED BY IDOCK:   -0.31 KCAL/MOL
REMARK 927      BINDING AFFINITY PREDICTED BY RF-SCORE:    0.00 PKD
ROOT
HETATM    1  C   UNL     1      -9.764  10.634  63.154  1.00  0.00    -0.333 C  
HETATM    2  N   UNL     1      -8.864   9.648  63.759  1.00  0.00    -0.229 NA 
HETATM    3  C   UNL     1      -7.507   9.844  63.241  1.00  0.00    -0.131 C  
ENDROOT
BRANCH   2   4
HETATM    4  C   UNL     1      -8.855   9.727  65.230  1.00  0.00    -0.175 C  
BRANCH   4   5
HETATM    5  C   UNL     1      -8.338   8.469  65.935  1.00  0.00    -0.142 C  
BRANCH   5   6
HETATM    6  C   UNL     1      -7.982   8.688  67.412  1.00  0.00    -0.102 C  
BRANCH   6   7
HETATM    7  N   UNL     1      -8.438   7.547  68.248  1.00  0.00    -0.125 NA 
HETATM    8  C   UNL     1      -8.407   6.299  67.595  1.00  0.00    -0.117 A  
HETATM    9  C   UNL     1      -7.174   5.657  67.396  1.00  0.00    -0.076 A  
HETATM   10  C   UNL     1      -7.103   4.390  66.811  1.00  0.00    -0.067 A  
HETATM   11  C   UNL     1      -8.267   3.758  66.390  1.00  0.00    -0.100 A  
HETATM   12  C   UNL     1      -9.498   4.383  66.574  1.00  0.00    -0.186 A  
HETATM   13  C   UNL     1      -9.576   5.648  67.183  1.00  0.00    -0.137 A  
HETATM   14  C   UNL     1     -10.915   6.269  67.455  1.00  0.00    -0.447 C  
HETATM   15  C   UNL     1     -11.196   6.322  68.951  1.00  0.00    -0.387 C  
HETATM   16  C   UNL     1     -10.362   7.251  69.811  1.00  0.00    -0.227 A  
HETATM   17  C   UNL     1     -10.895   7.514  71.093  1.00  0.00    -0.254 A  
HETATM   18  C   UNL     1     -10.249   8.349  72.001  1.00  0.00    -0.364 A  
HETATM   19  C   UNL     1      -9.051   8.943  71.642  1.00  0.00    -0.280 A  
HETATM   20  C   UNL     1      -8.504   8.688  70.383  1.00  0.00    -0.144 A  
HETATM   21  C   UNL     1      -9.131   7.837  69.443  1.00  0.00    -0.146 A  
ENDBRANCH   6   7
ENDBRANCH   5   6
ENDBRANCH   4   5
ENDBRANCH   2   4
TORSDOF 4
ENDMDL
MODEL      174
REMARK 921   NORMALIZED FREE ENERGY PREDICTED BY IDOCK:   -3.39 KCAL/MOL
REMARK 922        TOTAL FREE ENERGY PREDICTED BY IDOCK:   -4.47 KCAL/MOL
REMARK 923 INTER-LIGAND FREE ENERGY PREDICTED BY IDOCK:   -4.53 KCAL/MOL
REMARK 924 INTRA-LIGAND FREE ENERGY PREDICTED BY IDOCK:    0.05 KCAL/MOL
REMARK 927      BINDING AFFINITY PREDICTED BY RF-SCORE:    0.00 PKD
ROOT
HETATM    1  C   UNL     1     -12.822  13.400  65.501  1.00  0.00    -0.299 C  
HETATM    2  N   UNL     1     -11.358  13.372  65.570  1.00  0.00    -0.291 NA 
HETATM    3  C   UNL     1     -10.908  14.190  66.700  1.00  0.00    -0.299 C  
ENDROOT
BRANCH   2   4
HETATM    4  C   UNL     1     -10.829  12.004  65.702  1.00  0.00    -0.282 C  
BRANCH   4   5
HETATM    5  C   UNL     1     -10.820  11.456  67.132  1.00  0.00    -0.316 C  
BRANCH   5   6
HETATM    6  C   UNL     1      -9.691  10.452  67.403  1.00  0.00    -0.163 C  
BRANCH   6   7
HETATM    7  N   UNL     1      -9.279  10.482  68.832  1.00  0.00    -0.176 NA 
HETATM    8  C   UNL     1      -7.920  10.795  69.038  1.00  0.00    -0.137 A  
HETATM    9  C   UNL     1      -7.490  12.123  68.890  1.00  0.00    -0.027 A  
HETATM   10  C   UNL     1      -6.166  12.488  69.147  1.00  0.00    -0.094 A  
HETATM   11  C   UNL     1      -5.245  11.521  69.531  1.00  0.00    -0.053 A  
HETATM   12  C   UNL     1      -5.654  10.197  69.678  1.00  0.00    -0.038 A  
HETATM   13  C   UNL     1      -6.990   9.829  69.442  1.00  0.00    -0.059 A  
HETATM   14  C   UNL     1      -7.435   8.418  69.689  1.00  0.00    -0.073 C  
HETATM   15  C   UNL     1      -8.375   8.346  70.886  1.00  0.00    -0.149 C  
HETATM   16  C   UNL     1      -9.749   8.975  70.765  1.00  0.00    -0.306 A  
HETATM   17  C   UNL     1     -10.678   8.571  71.752  1.00  0.00    -0.373 A  
HETATM   18  C   UNL     1     -11.981   9.057  71.776  1.00  0.00    -0.438 A  
HETATM   19  C   UNL     1     -12.387   9.959  70.808  1.00  0.00    -0.363 A  
HETATM   20  C   UNL     1     -11.483  10.376  69.829  1.00  0.00    -0.348 A  
HETATM   21  C   UNL     1     -10.149   9.909  69.784  1.00  0.00    -0.242 A  
ENDBRANCH   6   7
ENDBRANCH   5   6
ENDBRANCH   4   5
ENDBRANCH   2   4
TORSDOF 4
ENDMDL
MODEL      175
REMARK 921   NORMALIZED FREE ENERGY PREDICTED BY IDOCK:   -3.39 KCAL/MOL
REMARK 922        TOTAL FREE ENERGY PREDICTED BY IDOCK:   -4.47 KCAL/MOL
REMARK 923 INTER-LIGAND FREE ENERGY PREDICTED BY IDOCK:   -3.78 KCAL/MOL
REMARK 924 INTRA-LIGAND FREE ENERGY PREDICTED BY IDOCK:   -0.69 KCAL/MOL
REMARK 927      BINDING AFFINITY PREDICTED BY RF-SCORE:    0.00 PKD
ROOT
HETATM    1  C   UNL     1      -7.494  10.208  66.459  1.00  0.00    -0.109 C  
HETATM    2  N   UNL     1      -7.869  11.484  67.076  1.00  0.00    -0.155 NA 
HETATM    3  C   UNL     1      -9.206  11.873  66.616  1.00  0.00    -0.205 C  
ENDROOT
BRANCH   2   4
HETATM    4  C   UNL     1      -7.844  11.425  68.547  1.00  0.00    -0.140 C  
BRANCH   4   5
HETATM    5  C   UNL     1      -8.782  10.383  69.162  1.00  0.00    -0.173 C  
BRANCH   5   6
HETATM    6  C   UNL     1      -8.155   9.591  70.318  1.00  0.00    -0.181 C  
BRANCH   6   7
HETATM    7  N   UNL     1      -8.484   8.144  70.218  1.00  0.00    -0.124 NA 
HETATM    8  C   UNL     1      -7.974   7.512  69.066  1.00  0.00    -0.122 A  
HETATM    9  C   UNL     1      -6.607   7.202  68.998  1.00  0.00    -0.044 A  
HETATM   10  C   UNL     1      -6.072   6.518  67.904  1.00  0.00    -0.027 A  
HETATM   11  C   UNL     1      -6.897   6.157  66.845  1.00  0.00    -0.062 A  
HETATM   12  C   UNL     1      -8.256   6.461  66.893  1.00  0.00    -0.110 A  
HETATM   13  C   UNL     1      -8.802   7.129  68.003  1.00  0.00    -0.129 A  
HETATM   14  C   UNL     1     -10.281   7.371  68.080  1.00  0.00    -0.223 C  
HETATM   15  C   UNL     1     -10.913   6.526  69.179  1.00  0.00    -0.380 C  
HETATM   16  C   UNL     1     -10.578   6.848  70.622  1.00  0.00    -0.248 A  
HETATM   17  C   UNL     1     -11.451   6.278  71.577  1.00  0.00    -0.351 A  
HETATM   18  C   UNL     1     -11.278   6.481  72.943  1.00  0.00    -0.215 A  
HETATM   19  C   UNL     1     -10.226   7.265  73.385  1.00  0.00    -0.394 A  
HETATM   20  C   UNL     1      -9.349   7.830  72.457  1.00  0.00    -0.234 A  
HETATM   21  C   UNL     1      -9.491   7.633  71.064  1.00  0.00    -0.159 A  
ENDBRANCH   6   7
ENDBRANCH   5   6
ENDBRANCH   4   5
ENDBRANCH   2   4
TORSDOF 4
ENDMDL
MODEL      176
REMARK 921   NORMALIZED FREE ENERGY PREDICTED BY IDOCK:   -3.38 KCAL/MOL
REMARK 922        TOTAL FREE ENERGY PREDICTED BY IDOCK:   -4.47 KCAL/MOL
REMARK 923 INTER-LIGAND FREE ENERGY PREDICTED BY IDOCK:   -3.80 KCAL/MOL
REMARK 924 INTRA-LIGAND FREE ENERGY PREDICTED BY IDOCK:   -0.67 KCAL/MOL
REMARK 927      BINDING AFFINITY PREDICTED BY RF-SCORE:    0.00 PKD
ROOT
HETATM    1  C   UNL     1     -11.416   8.696  71.884  1.00  0.00    -0.348 C  
HETATM    2  N   UNL     1     -10.266   8.361  72.729  1.00  0.00    -0.257 NA 
HETATM    3  C   UNL     1     -10.415   6.993  73.235  1.00  0.00    -0.330 C  
ENDROOT
BRANCH   2   4
HETATM    4  C   UNL     1      -8.986   8.492  72.012  1.00  0.00    -0.231 C  
BRANCH   4   5
HETATM    5  C   UNL     1      -8.683   7.357  71.030  1.00  0.00    -0.139 C  
BRANCH   5   6
HETATM    6  C   UNL     1      -7.530   7.664  70.064  1.00  0.00    -0.082 C  
BRANCH   6   7
HETATM    7  N   UNL     1      -8.000   7.674  68.654  1.00  0.00    -0.121 NA 
HETATM    8  C   UNL     1      -7.983   8.944  68.045  1.00  0.00    -0.102 A  
HETATM    9  C   UNL     1      -6.758   9.495  67.636  1.00  0.00    -0.063 A  
HETATM   10  C   UNL     1      -6.701  10.722  66.971  1.00  0.00    -0.090 A  
HETATM   11  C   UNL     1      -7.872  11.431  66.728  1.00  0.00    -0.157 A  
HETATM   12  C   UNL     1      -9.096  10.901  67.131  1.00  0.00    -0.152 A  
HETATM   13  C   UNL     1      -9.160   9.656  67.781  1.00  0.00    -0.132 A  
HETATM   14  C   UNL     1     -10.491   9.058  68.130  1.00  0.00    -0.257 C  
HETATM   15  C   UNL     1     -10.773   7.826  67.279  1.00  0.00    -0.326 C  
HETATM   16  C   UNL     1      -9.929   6.586  67.500  1.00  0.00    -0.169 A  
HETATM   17  C   UNL     1     -10.460   5.398  66.950  1.00  0.00    -0.337 A  
HETATM   18  C   UNL     1      -9.805   4.176  67.069  1.00  0.00    -0.190 A  
HETATM   19  C   UNL     1      -8.600   4.116  67.748  1.00  0.00    -0.109 A  
HETATM   20  C   UNL     1      -8.055   5.280  68.291  1.00  0.00    -0.094 A  
HETATM   21  C   UNL     1      -8.690   6.538  68.178  1.00  0.00    -0.117 A  
ENDBRANCH   6   7
ENDBRANCH   5   6
ENDBRANCH   4   5
ENDBRANCH   2   4
TORSDOF 4
ENDMDL
MODEL      177
REMARK 921   NORMALIZED FREE ENERGY PREDICTED BY IDOCK:   -3.37 KCAL/MOL
REMARK 922        TOTAL FREE ENERGY PREDICTED BY IDOCK:   -4.46 KCAL/MOL
REMARK 923 INTER-LIGAND FREE ENERGY PREDICTED BY IDOCK:   -4.25 KCAL/MOL
REMARK 924 INTRA-LIGAND FREE ENERGY PREDICTED BY IDOCK:   -0.21 KCAL/MOL
REMARK 927      BINDING AFFINITY PREDICTED BY RF-SCORE:    0.00 PKD
ROOT
HETATM    1  C   UNL     1      -6.558  16.995  66.890  1.00  0.00    -0.216 C  
HETATM    2  N   UNL     1      -5.647  16.368  67.852  1.00  0.00    -0.112 NA 
HETATM    3  C   UNL     1      -5.183  17.375  68.811  1.00  0.00    -0.148 C  
ENDROOT
BRANCH   2   4
HETATM    4  C   UNL     1      -6.275  15.246  68.570  1.00  0.00    -0.093 C  
BRANCH   4   5
HETATM    5  C   UNL     1      -6.417  13.960  67.750  1.00  0.00    -0.178 C  
BRANCH   5   6
HETATM    6  C   UNL     1      -7.360  12.925  68.378  1.00  0.00    -0.119 C  
BRANCH   6   7
HETATM    7  N   UNL     1      -8.593  12.760  67.564  1.00  0.00    -0.175 NA 
HETATM    8  C   UNL     1      -9.656  13.604  67.942  1.00  0.00    -0.223 A  
HETATM    9  C   UNL     1      -9.613  14.963  67.594  1.00  0.00    -0.200 A  
HETATM   10  C   UNL     1     -10.674  15.822  67.892  1.00  0.00    -0.302 A  
HETATM   11  C   UNL     1     -11.786  15.336  68.570  1.00  0.00    -0.352 A  
HETATM   12  C   UNL     1     -11.843  13.991  68.928  1.00  0.00    -0.390 A  
HETATM   13  C   UNL     1     -10.788  13.119  68.610  1.00  0.00    -0.287 A  
HETATM   14  C   UNL     1     -10.902  11.656  68.923  1.00  0.00    -0.264 C  
HETATM   15  C   UNL     1     -11.019  10.833  67.646  1.00  0.00    -0.365 C  
HETATM   16  C   UNL     1      -9.817  10.751  66.726  1.00  0.00    -0.233 A  
HETATM   17  C   UNL     1      -9.869   9.712  65.770  1.00  0.00    -0.373 A  
HETATM   18  C   UNL     1      -8.841   9.504  64.855  1.00  0.00    -0.240 A  
HETATM   19  C   UNL     1      -7.733  10.333  64.879  1.00  0.00    -0.124 A  
HETATM   20  C   UNL     1      -7.666  11.370  65.811  1.00  0.00     0.328 A  
HETATM   21  C   UNL     1      -8.698  11.614  66.747  1.00  0.00    -0.189 A  
ENDBRANCH   6   7
ENDBRANCH   5   6
ENDBRANCH   4   5
ENDBRANCH   2   4
TORSDOF 4
ENDMDL
MODEL      178
REMARK 921   NORMALIZED FREE ENERGY PREDICTED BY IDOCK:   -3.37 KCAL/MOL
REMARK 922        TOTAL FREE ENERGY PREDICTED BY IDOCK:   -4.45 KCAL/MOL
REMARK 923 INTER-LIGAND FREE ENERGY PREDICTED BY IDOCK:   -4.32 KCAL/MOL
REMARK 924 INTRA-LIGAND FREE ENERGY PREDICTED BY IDOCK:   -0.13 KCAL/MOL
REMARK 927      BINDING AFFINITY PREDICTED BY RF-SCORE:    0.00 PKD
ROOT
HETATM    1  C   UNL     1     -10.251   6.246  73.173  1.00  0.00    -0.202 C  
HETATM    2  N   UNL     1      -8.816   6.328  73.459  1.00  0.00    -0.124 NA 
HETATM    3  C   UNL     1      -8.230   4.985  73.404  1.00  0.00    -0.111 C  
ENDROOT
BRANCH   2   4
HETATM    4  C   UNL     1      -8.108   7.221  72.527  1.00  0.00    -0.099 C  
BRANCH   4   5
HETATM    5  C   UNL     1      -8.158   6.785  71.060  1.00  0.00    -0.115 C  
BRANCH   5   6
HETATM    6  C   UNL     1      -8.120   7.952  70.064  1.00  0.00    -0.117 C  
BRANCH   6   7
HETATM    7  N   UNL     1      -9.319   7.948  69.186  1.00  0.00    -0.154 NA 
HETATM    8  C   UNL     1      -9.334   6.913  68.229  1.00  0.00    -0.125 A  
HETATM    9  C   UNL     1      -9.633   5.603  68.638  1.00  0.00    -0.163 A  
HETATM   10  C   UNL     1      -9.722   4.559  67.714  1.00  0.00    -0.199 A  
HETATM   11  C   UNL     1      -9.486   4.806  66.367  1.00  0.00    -0.159 A  
HETATM   12  C   UNL     1      -9.183   6.099  65.945  1.00  0.00    -0.068 A  
HETATM   13  C   UNL     1      -9.115   7.157  66.868  1.00  0.00    -0.159 A  
HETATM   14  C   UNL     1      -8.875   8.558  66.388  1.00  0.00    -0.178 C  
HETATM   15  C   UNL     1     -10.118   9.418  66.578  1.00  0.00    -0.332 C  
HETATM   16  C   UNL     1     -10.553   9.758  67.990  1.00  0.00    -0.291 A  
HETATM   17  C   UNL     1     -11.475  10.825  68.088  1.00  0.00    -0.346 A  
HETATM   18  C   UNL     1     -11.969  11.259  69.315  1.00  0.00    -0.411 A  
HETATM   19  C   UNL     1     -11.547  10.634  70.475  1.00  0.00    -0.444 A  
HETATM   20  C   UNL     1     -10.642   9.573  70.398  1.00  0.00    -0.333 A  
HETATM   21  C   UNL     1     -10.131   9.102  69.167  1.00  0.00    -0.194 A  
ENDBRANCH   6   7
ENDBRANCH   5   6
ENDBRANCH   4   5
ENDBRANCH   2   4
TORSDOF 4
ENDMDL
MODEL      179
REMARK 921   NORMALIZED FREE ENERGY PREDICTED BY IDOCK:   -3.36 KCAL/MOL
REMARK 922        TOTAL FREE ENERGY PREDICTED BY IDOCK:   -4.44 KCAL/MOL
REMARK 923 INTER-LIGAND FREE ENERGY PREDICTED BY IDOCK:   -3.88 KCAL/MOL
REMARK 924 INTRA-LIGAND FREE ENERGY PREDICTED BY IDOCK:   -0.56 KCAL/MOL
REMARK 927      BINDING AFFINITY PREDICTED BY RF-SCORE:    0.00 PKD
ROOT
HETATM    1  C   UNL     1     -10.664  12.859  64.582  1.00  0.00    -0.353 C  
HETATM    2  N   UNL     1     -10.819  14.298  64.812  1.00  0.00    -0.407 NA 
HETATM    3  C   UNL     1     -12.130  14.732  64.318  1.00  0.00    -0.394 C  
ENDROOT
BRANCH   2   4
HETATM    4  C   UNL     1     -10.676  14.658  66.232  1.00  0.00    -0.316 C  
BRANCH   4   5
HETATM    5  C   UNL     1     -10.098  16.054  66.484  1.00  0.00    -0.297 C  
BRANCH   5   6
HETATM    6  C   UNL     1      -8.806  16.339  65.706  1.00  0.00     0.032 C  
BRANCH   6   7
HETATM    7  N   UNL     1      -7.731  16.824  66.611  1.00  0.00    -0.242 NA 
HETATM    8  C   UNL     1      -7.440  15.958  67.684  1.00  0.00    -0.152 A  
HETATM    9  C   UNL     1      -6.704  14.787  67.443  1.00  0.00    -0.060 A  
HETATM   10  C   UNL     1      -6.339  13.934  68.487  1.00  0.00    -0.093 A  
HETATM   11  C   UNL     1      -6.730  14.227  69.788  1.00  0.00    -0.095 A  
HETATM   12  C   UNL     1      -7.466  15.382  70.045  1.00  0.00     0.111 A  
HETATM   13  C   UNL     1      -7.816  16.256  69.000  1.00  0.00    -0.235 A  
HETATM   14  C   UNL     1      -8.531  17.539  69.303  1.00  0.00     0.243 C  
HETATM   15  C   UNL     1      -7.628  18.739  69.045  1.00  0.00    -0.256 C  
HETATM   16  C   UNL     1      -7.237  19.056  67.615  1.00  0.00    -0.243 A  
HETATM   17  C   UNL     1      -6.710  20.352  67.416  1.00  0.00    -0.304 A  
HETATM   18  C   UNL     1      -6.306  20.795  66.160  1.00  0.00    -0.296 A  
HETATM   19  C   UNL     1      -6.424  19.948  65.071  1.00  0.00    -0.324 A  
HETATM   20  C   UNL     1      -6.935  18.661  65.249  1.00  0.00     0.030 A  
HETATM   21  C   UNL     1      -7.344  18.178  66.514  1.00  0.00    -0.233 A  
ENDBRANCH   6   7
ENDBRANCH   5   6
ENDBRANCH   4   5
ENDBRANCH   2   4
TORSDOF 4
ENDMDL
MODEL      180
REMARK 921   NORMALIZED FREE ENERGY PREDICTED BY IDOCK:   -3.34 KCAL/MOL
REMARK 922        TOTAL FREE ENERGY PREDICTED BY IDOCK:   -4.42 KCAL/MOL
REMARK 923 INTER-LIGAND FREE ENERGY PREDICTED BY IDOCK:   -4.59 KCAL/MOL
REMARK 924 INTRA-LIGAND FREE ENERGY PREDICTED BY IDOCK:    0.17 KCAL/MOL
REMARK 927      BINDING AFFINITY PREDICTED BY RF-SCORE:    0.00 PKD
ROOT
HETATM    1  C   UNL     1      -7.923   5.265  65.306  1.00  0.00    -0.106 C  
HETATM    2  N   UNL     1      -9.192   4.968  65.978  1.00  0.00    -0.148 NA 
HETATM    3  C   UNL     1     -10.055   4.201  65.073  1.00  0.00    -0.208 C  
ENDROOT
BRANCH   2   4
HETATM    4  C   UNL     1      -9.001   4.227  67.235  1.00  0.00    -0.124 C  
BRANCH   4   5
HETATM    5  C   UNL     1     -10.053   4.510  68.312  1.00  0.00    -0.030 C  
BRANCH   5   6
HETATM    6  C   UNL     1     -10.716   5.889  68.182  1.00  0.00    -0.251 C  
BRANCH   6   7
HETATM    7  N   UNL     1     -10.438   6.731  69.375  1.00  0.00    -0.206 NA 
HETATM    8  C   UNL     1     -10.542   6.050  70.604  1.00  0.00    -0.260 A  
HETATM    9  C   UNL     1      -9.518   5.170  70.992  1.00  0.00    -0.214 A  
HETATM   10  C   UNL     1      -9.549   4.524  72.230  1.00  0.00    -0.204 A  
HETATM   11  C   UNL     1     -10.622   4.727  73.089  1.00  0.00    -0.278 A  
HETATM   12  C   UNL     1     -11.649   5.593  72.718  1.00  0.00    -0.289 A  
HETATM   13  C   UNL     1     -11.611   6.263  71.483  1.00  0.00    -0.345 A  
HETATM   14  C   UNL     1     -12.679   7.258  71.136  1.00  0.00    -0.349 C  
HETATM   15  C   UNL     1     -12.115   8.674  71.112  1.00  0.00    -0.297 C  
HETATM   16  C   UNL     1     -11.131   9.042  70.019  1.00  0.00    -0.197 A  
HETATM   17  C   UNL     1     -10.928  10.429  69.843  1.00  0.00    -0.364 A  
HETATM   18  C   UNL     1     -10.057  10.928  68.879  1.00  0.00    -0.211 A  
HETATM   19  C   UNL     1      -9.368  10.045  68.066  1.00  0.00    -0.139 A  
HETATM   20  C   UNL     1      -9.548   8.670  68.230  1.00  0.00    -0.160 A  
HETATM   21  C   UNL     1     -10.418   8.132  69.207  1.00  0.00    -0.214 A  
ENDBRANCH   6   7
ENDBRANCH   5   6
ENDBRANCH   4   5
ENDBRANCH   2   4
TORSDOF 4
ENDMDL
MODEL      181
REMARK 921   NORMALIZED FREE ENERGY PREDICTED BY IDOCK:   -3.30 KCAL/MOL
REMARK 922        TOTAL FREE ENERGY PREDICTED BY IDOCK:   -4.36 KCAL/MOL
REMARK 923 INTER-LIGAND FREE ENERGY PREDICTED BY IDOCK:   -3.82 KCAL/MOL
REMARK 924 INTRA-LIGAND FREE ENERGY PREDICTED BY IDOCK:   -0.54 KCAL/MOL
REMARK 927      BINDING AFFINITY PREDICTED BY RF-SCORE:    0.00 PKD
ROOT
HETATM    1  C   UNL     1      -6.801  15.220  67.423  1.00  0.00    -0.154 C  
HETATM    2  N   UNL     1      -6.762  13.783  67.707  1.00  0.00    -0.161 NA 
HETATM    3  C   UNL     1      -5.580  13.477  68.518  1.00  0.00    -0.089 C  
ENDROOT
BRANCH   2   4
HETATM    4  C   UNL     1      -7.976  13.314  68.396  1.00  0.00    -0.132 C  
BRANCH   4   5
HETATM    5  C   UNL     1      -8.032  11.802  68.636  1.00  0.00    -0.116 C  
BRANCH   5   6
HETATM    6  C   UNL     1      -9.389  11.308  69.156  1.00  0.00     0.102 C  
BRANCH   6   7
HETATM    7  N   UNL     1      -9.881  10.153  68.359  1.00  0.00    -0.148 NA 
HETATM    8  C   UNL     1     -10.052   8.967  69.101  1.00  0.00    -0.197 A  
HETATM    9  C   UNL     1     -11.158   8.843  69.956  1.00  0.00    -0.180 A  
HETATM   10  C   UNL     1     -11.401   7.661  70.660  1.00  0.00    -0.288 A  
HETATM   11  C   UNL     1     -10.521   6.592  70.539  1.00  0.00    -0.240 A  
HETATM   12  C   UNL     1      -9.415   6.699  69.698  1.00  0.00    -0.144 A  
HETATM   13  C   UNL     1      -9.180   7.879  68.970  1.00  0.00    -0.147 A  
HETATM   14  C   UNL     1      -8.035   7.948  68.003  1.00  0.00    -0.128 C  
HETATM   15  C   UNL     1      -8.540   8.011  66.567  1.00  0.00    -0.148 C  
HETATM   16  C   UNL     1      -9.269   9.260  66.110  1.00  0.00    -0.249 A  
HETATM   17  C   UNL     1      -9.390   9.399  64.709  1.00  0.00    -0.161 A  
HETATM   18  C   UNL     1     -10.031  10.492  64.133  1.00  0.00    -0.385 A  
HETATM   19  C   UNL     1     -10.564  11.475  64.949  1.00  0.00    -0.360 A  
HETATM   20  C   UNL     1     -10.461  11.351  66.336  1.00  0.00    -0.299 A  
HETATM   21  C   UNL     1      -9.825  10.248  66.952  1.00  0.00    -0.197 A  
ENDBRANCH   6   7
ENDBRANCH   5   6
ENDBRANCH   4   5
ENDBRANCH   2   4
TORSDOF 4
ENDMDL
MODEL      182
REMARK 921   NORMALIZED FREE ENERGY PREDICTED BY IDOCK:   -3.29 KCAL/MOL
REMARK 922        TOTAL FREE ENERGY PREDICTED BY IDOCK:   -4.36 KCAL/MOL
REMARK 923 INTER-LIGAND FREE ENERGY PREDICTED BY IDOCK:   -4.39 KCAL/MOL
REMARK 924 INTRA-LIGAND FREE ENERGY PREDICTED BY IDOCK:    0.03 KCAL/MOL
REMARK 927      BINDING AFFINITY PREDICTED BY RF-SCORE:    0.00 PKD
ROOT
HETATM    1  C   UNL     1     -12.244   6.398  71.941  1.00  0.00    -0.279 C  
HETATM    2  N   UNL     1     -12.947   7.526  71.322  1.00  0.00    -0.312 NA 
HETATM    3  C   UNL     1     -14.368   7.469  71.677  1.00  0.00    -0.477 C  
ENDROOT
BRANCH   2   4
HETATM    4  C   UNL     1     -12.382   8.826  71.723  1.00  0.00    -0.351 C  
BRANCH   4   5
HETATM    5  C   UNL     1     -11.973   9.732  70.559  1.00  0.00    -0.282 C  
BRANCH   5   6
HETATM    6  C   UNL     1     -10.492  10.137  70.580  1.00  0.00    -0.105 C  
BRANCH   6   7
HETATM    7  N   UNL     1      -9.610   8.950  70.429  1.00  0.00    -0.181 NA 
HETATM    8  C   UNL     1      -8.771   8.705  71.535  1.00  0.00    -0.202 A  
HETATM    9  C   UNL     1      -9.317   8.146  72.701  1.00  0.00    -0.342 A  
HETATM   10  C   UNL     1      -8.511   7.828  73.797  1.00  0.00    -0.289 A  
HETATM   11  C   UNL     1      -7.147   8.090  73.751  1.00  0.00    -0.164 A  
HETATM   12  C   UNL     1      -6.590   8.649  72.603  1.00  0.00    -0.045 A  
HETATM   13  C   UNL     1      -7.393   8.950  71.489  1.00  0.00    -0.081 A  
HETATM   14  C   UNL     1      -6.766   9.469  70.229  1.00  0.00    -0.084 C  
HETATM   15  C   UNL     1      -6.852   8.435  69.113  1.00  0.00    -0.055 C  
HETATM   16  C   UNL     1      -8.215   8.102  68.540  1.00  0.00    -0.125 A  
HETATM   17  C   UNL     1      -8.190   7.424  67.300  1.00  0.00    -0.115 A  
HETATM   18  C   UNL     1      -9.358   7.049  66.644  1.00  0.00    -0.203 A  
HETATM   19  C   UNL     1     -10.583   7.350  67.214  1.00  0.00    -0.393 A  
HETATM   20  C   UNL     1     -10.629   8.012  68.442  1.00  0.00    -0.150 A  
HETATM   21  C   UNL     1      -9.460   8.396  69.139  1.00  0.00    -0.155 A  
ENDBRANCH   6   7
ENDBRANCH   5   6
ENDBRANCH   4   5
ENDBRANCH   2   4
TORSDOF 4
ENDMDL
MODEL      183
REMARK 921   NORMALIZED FREE ENERGY PREDICTED BY IDOCK:   -3.25 KCAL/MOL
REMARK 922        TOTAL FREE ENERGY PREDICTED BY IDOCK:   -4.31 KCAL/MOL
REMARK 923 INTER-LIGAND FREE ENERGY PREDICTED BY IDOCK:   -4.25 KCAL/MOL
REMARK 924 INTRA-LIGAND FREE ENERGY PREDICTED BY IDOCK:   -0.06 KCAL/MOL
REMARK 927      BINDING AFFINITY PREDICTED BY RF-SCORE:    0.00 PKD
ROOT
HETATM    1  C   UNL     1      -9.494  10.148  63.428  1.00  0.00    -0.261 C  
HETATM    2  N   UNL     1      -8.381   9.785  64.311  1.00  0.00    -0.153 NA 
HETATM    3  C   UNL     1      -7.198  10.574  63.954  1.00  0.00     0.122 C  
ENDROOT
BRANCH   2   4
HETATM    4  C   UNL     1      -8.705   9.984  65.733  1.00  0.00    -0.145 C  
BRANCH   4   5
HETATM    5  C   UNL     1     -10.182  10.268  66.020  1.00  0.00    -0.298 C  
BRANCH   5   6
HETATM    6  C   UNL     1     -10.428  10.988  67.353  1.00  0.00    -0.218 C  
BRANCH   6   7
HETATM    7  N   UNL     1     -11.211  12.235  67.153  1.00  0.00    -0.288 NA 
HETATM    8  C   UNL     1     -11.469  12.549  65.803  1.00  0.00    -0.365 A  
HETATM    9  C   UNL     1     -12.448  11.825  65.103  1.00  0.00     0.706 A  
HETATM   10  C   UNL     1     -12.780  12.145  63.785  1.00  0.00    -0.525 A  
HETATM   11  C   UNL     1     -12.116  13.179  63.136  1.00  0.00    -0.282 A  
HETATM   12  C   UNL     1     -11.138  13.904  63.814  1.00  0.00     0.425 A  
HETATM   13  C   UNL     1     -10.816  13.601  65.149  1.00  0.00    -0.338 A  
HETATM   14  C   UNL     1      -9.825  14.445  65.893  1.00  0.00    -0.336 C  
HETATM   15  C   UNL     1     -10.511  15.249  66.991  1.00  0.00    -0.292 C  
HETATM   16  C   UNL     1     -11.080  14.505  68.182  1.00  0.00    -0.280 A  
HETATM   17  C   UNL     1     -11.374  15.314  69.304  1.00  0.00    -0.308 A  
HETATM   18  C   UNL     1     -11.901  14.781  70.476  1.00  0.00    -0.362 A  
HETATM   19  C   UNL     1     -12.143  13.420  70.554  1.00  0.00    -0.399 A  
HETATM   20  C   UNL     1     -11.866  12.606  69.454  1.00  0.00    -0.356 A  
HETATM   21  C   UNL     1     -11.341  13.119  68.246  1.00  0.00    -0.297 A  
ENDBRANCH   6   7
ENDBRANCH   5   6
ENDBRANCH   4   5
ENDBRANCH   2   4
TORSDOF 4
ENDMDL
MODEL      184
REMARK 921   NORMALIZED FREE ENERGY PREDICTED BY IDOCK:   -3.25 KCAL/MOL
REMARK 922        TOTAL FREE ENERGY PREDICTED BY IDOCK:   -4.31 KCAL/MOL
REMARK 923 INTER-LIGAND FREE ENERGY PREDICTED BY IDOCK:   -4.11 KCAL/MOL
REMARK 924 INTRA-LIGAND FREE ENERGY PREDICTED BY IDOCK:   -0.20 KCAL/MOL
REMARK 927      BINDING AFFINITY PREDICTED BY RF-SCORE:    0.00 PKD
ROOT
HETATM    1  C   UNL     1     -13.014  10.735  71.112  1.00  0.00    -0.371 C  
HETATM    2  N   UNL     1     -13.049   9.607  72.047  1.00  0.00    -0.427 NA 
HETATM    3  C   UNL     1     -14.231   8.783  71.772  1.00  0.00    -0.365 C  
ENDROOT
BRANCH   2   4
HETATM    4  C   UNL     1     -11.834   8.778  71.972  1.00  0.00    -0.372 C  
BRANCH   4   5
HETATM    5  C   UNL     1     -11.063   8.890  70.654  1.00  0.00    -0.306 C  
BRANCH   5   6
HETATM    6  C   UNL     1     -11.093   7.609  69.809  1.00  0.00    -0.106 C  
BRANCH   6   7
HETATM    7  N   UNL     1      -9.806   6.871  69.908  1.00  0.00    -0.165 NA 
HETATM    8  C   UNL     1      -8.735   7.477  69.220  1.00  0.00    -0.136 A  
HETATM    9  C   UNL     1      -8.121   8.615  69.768  1.00  0.00    -0.114 A  
HETATM   10  C   UNL     1      -7.016   9.208  69.153  1.00  0.00    -0.058 A  
HETATM   11  C   UNL     1      -6.525   8.686  67.962  1.00  0.00    -0.057 A  
HETATM   12  C   UNL     1      -7.125   7.560  67.402  1.00  0.00    -0.085 A  
HETATM   13  C   UNL     1      -8.223   6.946  68.030  1.00  0.00    -0.115 A  
HETATM   14  C   UNL     1      -8.803   5.684  67.462  1.00  0.00    -0.105 C  
HETATM   15  C   UNL     1      -8.527   4.499  68.379  1.00  0.00    -0.100 C  
HETATM   16  C   UNL     1      -9.218   4.452  69.727  1.00  0.00    -0.199 A  
HETATM   17  C   UNL     1      -9.202   3.188  70.361  1.00  0.00    -0.215 A  
HETATM   18  C   UNL     1      -9.795   2.982  71.603  1.00  0.00    -0.214 A  
HETATM   19  C   UNL     1     -10.422   4.039  72.239  1.00  0.00    -0.121 A  
HETATM   20  C   UNL     1     -10.441   5.296  71.634  1.00  0.00    -0.280 A  
HETATM   21  C   UNL     1      -9.839   5.541  70.378  1.00  0.00    -0.197 A  
ENDBRANCH   6   7
ENDBRANCH   5   6
ENDBRANCH   4   5
ENDBRANCH   2   4
TORSDOF 4
ENDMDL
MODEL      185
REMARK 921   NORMALIZED FREE ENERGY PREDICTED BY IDOCK:   -3.24 KCAL/MOL
REMARK 922        TOTAL FREE ENERGY PREDICTED BY IDOCK:   -4.30 KCAL/MOL
REMARK 923 INTER-LIGAND FREE ENERGY PREDICTED BY IDOCK:   -3.61 KCAL/MOL
REMARK 924 INTRA-LIGAND FREE ENERGY PREDICTED BY IDOCK:   -0.69 KCAL/MOL
REMARK 927      BINDING AFFINITY PREDICTED BY RF-SCORE:    0.00 PKD
ROOT
HETATM    1  C   UNL     1     -11.946   9.680  71.178  1.00  0.00    -0.367 C  
HETATM    2  N   UNL     1     -11.384   8.327  71.219  1.00  0.00    -0.259 NA 
HETATM    3  C   UNL     1     -12.360   7.411  71.818  1.00  0.00    -0.333 C  
ENDROOT
BRANCH   2   4
HETATM    4  C   UNL     1     -10.996   7.840  69.885  1.00  0.00    -0.190 C  
BRANCH   4   5
HETATM    5  C   UNL     1     -11.280   6.355  69.637  1.00  0.00    -0.483 C  
BRANCH   5   6
HETATM    6  C   UNL     1     -10.251   5.671  68.727  1.00  0.00    -0.204 C  
BRANCH   6   7
HETATM    7  N   UNL     1      -9.111   5.133  69.515  1.00  0.00    -0.105 NA 
HETATM    8  C   UNL     1      -9.407   3.961  70.239  1.00  0.00    -0.168 A  
HETATM    9  C   UNL     1      -9.507   2.738  69.557  1.00  0.00    -0.147 A  
HETATM   10  C   UNL     1      -9.736   1.542  70.243  1.00  0.00    -0.047 A  
HETATM   11  C   UNL     1      -9.894   1.558  71.623  1.00  0.00    -0.211 A  
HETATM   12  C   UNL     1      -9.803   2.763  72.316  1.00  0.00    -0.234 A  
HETATM   13  C   UNL     1      -9.551   3.965  71.632  1.00  0.00    -0.232 A  
HETATM   14  C   UNL     1      -9.368   5.242  72.400  1.00  0.00    -0.157 C  
HETATM   15  C   UNL     1      -7.925   5.724  72.316  1.00  0.00    -0.107 C  
HETATM   16  C   UNL     1      -7.402   6.213  70.980  1.00  0.00    -0.083 A  
HETATM   17  C   UNL     1      -6.205   6.962  71.048  1.00  0.00    -0.036 A  
HETATM   18  C   UNL     1      -5.599   7.482  69.908  1.00  0.00    -0.023 A  
HETATM   19  C   UNL     1      -6.182   7.266  68.671  1.00  0.00    -0.031 A  
HETATM   20  C   UNL     1      -7.360   6.522  68.583  1.00  0.00    -0.087 A  
HETATM   21  C   UNL     1      -7.994   5.971  69.721  1.00  0.00    -0.106 A  
ENDBRANCH   6   7
ENDBRANCH   5   6
ENDBRANCH   4   5
ENDBRANCH   2   4
TORSDOF 4
ENDMDL
MODEL      186
REMARK 921   NORMALIZED FREE ENERGY PREDICTED BY IDOCK:   -3.22 KCAL/MOL
REMARK 922        TOTAL FREE ENERGY PREDICTED BY IDOCK:   -4.27 KCAL/MOL
REMARK 923 INTER-LIGAND FREE ENERGY PREDICTED BY IDOCK:   -5.02 KCAL/MOL
REMARK 924 INTRA-LIGAND FREE ENERGY PREDICTED BY IDOCK:    0.75 KCAL/MOL
REMARK 927      BINDING AFFINITY PREDICTED BY RF-SCORE:    0.00 PKD
ROOT
HETATM    1  C   UNL     1      -7.771  18.398  68.542  1.00  0.00    -0.303 C  
HETATM    2  N   UNL     1      -8.456  17.559  67.554  1.00  0.00    -0.211 NA 
HETATM    3  C   UNL     1      -7.735  17.622  66.279  1.00  0.00    -0.289 C  
ENDROOT
BRANCH   2   4
HETATM    4  C   UNL     1      -8.575  16.159  67.993  1.00  0.00    -0.171 C  
BRANCH   4   5
HETATM    5  C   UNL     1      -8.624  15.134  66.856  1.00  0.00    -0.289 C  
BRANCH   5   6
HETATM    6  C   UNL     1      -8.074  13.754  67.243  1.00  0.00    -0.139 C  
BRANCH   6   7
HETATM    7  N   UNL     1      -9.125  12.708  67.136  1.00  0.00    -0.202 NA 
HETATM    8  C   UNL     1      -8.680  11.404  67.434  1.00  0.00    -0.145 A  
HETATM    9  C   UNL     1      -8.460  11.042  68.772  1.00  0.00    -0.144 A  
HETATM   10  C   UNL     1      -8.081   9.742  69.117  1.00  0.00    -0.107 A  
HETATM   11  C   UNL     1      -7.889   8.791  68.122  1.00  0.00    -0.102 A  
HETATM   12  C   UNL     1      -8.098   9.136  66.788  1.00  0.00    -0.111 A  
HETATM   13  C   UNL     1      -8.502  10.436  66.438  1.00  0.00    -0.138 A  
HETATM   14  C   UNL     1      -8.808  10.768  65.007  1.00  0.00    -0.190 C  
HETATM   15  C   UNL     1     -10.298  11.023  64.815  1.00  0.00    -0.389 C  
HETATM   16  C   UNL     1     -10.907  12.259  65.446  1.00  0.00    -0.324 A  
HETATM   17  C   UNL     1     -12.178  12.619  64.944  1.00  0.00    -0.531 A  
HETATM   18  C   UNL     1     -12.868  13.730  65.419  1.00  0.00    -0.455 A  
HETATM   19  C   UNL     1     -12.297  14.512  66.409  1.00  0.00    -0.198 A  
HETATM   20  C   UNL     1     -11.045  14.168  66.923  1.00  0.00    -0.312 A  
HETATM   21  C   UNL     1     -10.324  13.040  66.469  1.00  0.00    -0.274 A  
ENDBRANCH   6   7
ENDBRANCH   5   6
ENDBRANCH   4   5
ENDBRANCH   2   4
TORSDOF 4
ENDMDL
MODEL      187
REMARK 921   NORMALIZED FREE ENERGY PREDICTED BY IDOCK:   -3.22 KCAL/MOL
REMARK 922        TOTAL FREE ENERGY PREDICTED BY IDOCK:   -4.26 KCAL/MOL
REMARK 923 INTER-LIGAND FREE ENERGY PREDICTED BY IDOCK:   -3.97 KCAL/MOL
REMARK 924 INTRA-LIGAND FREE ENERGY PREDICTED BY IDOCK:   -0.30 KCAL/MOL
REMARK 927      BINDING AFFINITY PREDICTED BY RF-SCORE:    0.00 PKD
ROOT
HETATM    1  C   UNL     1     -12.180   9.036  71.544  1.00  0.00    -0.335 C  
HETATM    2  N   UNL     1     -11.858   9.863  70.377  1.00  0.00    -0.257 NA 
HETATM    3  C   UNL     1     -12.488  11.179  70.523  1.00  0.00    -0.327 C  
ENDROOT
BRANCH   2   4
HETATM    4  C   UNL     1     -10.407  10.022  70.186  1.00  0.00    -0.266 C  
BRANCH   4   5
HETATM    5  C   UNL     1      -9.904   9.667  68.783  1.00  0.00    -0.173 C  
BRANCH   5   6
HETATM    6  C   UNL     1     -10.521   8.384  68.210  1.00  0.00    -0.163 C  
BRANCH   6   7
HETATM    7  N   UNL     1      -9.530   7.276  68.187  1.00  0.00    -0.134 NA 
HETATM    8  C   UNL     1      -8.733   7.234  67.025  1.00  0.00    -0.123 A  
HETATM    9  C   UNL     1      -7.692   8.163  66.870  1.00  0.00    -0.096 A  
HETATM   10  C   UNL     1      -6.839   8.117  65.765  1.00  0.00    -0.063 A  
HETATM   11  C   UNL     1      -7.032   7.153  64.783  1.00  0.00    -0.051 A  
HETATM   12  C   UNL     1      -8.063   6.226  64.918  1.00  0.00    -0.130 A  
HETATM   13  C   UNL     1      -8.910   6.255  66.040  1.00  0.00    -0.159 A  
HETATM   14  C   UNL     1      -9.960   5.197  66.215  1.00  0.00    -0.232 C  
HETATM   15  C   UNL     1      -9.621   4.284  67.387  1.00  0.00    -0.219 C  
HETATM   16  C   UNL     1      -9.673   4.858  68.789  1.00  0.00    -0.232 A  
HETATM   17  C   UNL     1      -9.699   3.897  69.825  1.00  0.00    -0.227 A  
HETATM   18  C   UNL     1      -9.749   4.264  71.167  1.00  0.00    -0.259 A  
HETATM   19  C   UNL     1      -9.778   5.607  71.502  1.00  0.00    -0.200 A  
HETATM   20  C   UNL     1      -9.745   6.571  70.493  1.00  0.00    -0.186 A  
HETATM   21  C   UNL     1      -9.683   6.230  69.122  1.00  0.00    -0.135 A  
ENDBRANCH   6   7
ENDBRANCH   5   6
ENDBRANCH   4   5
ENDBRANCH   2   4
TORSDOF 4
ENDMDL
MODEL      188
REMARK 921   NORMALIZED FREE ENERGY PREDICTED BY IDOCK:   -3.20 KCAL/MOL
REMARK 922        TOTAL FREE ENERGY PREDICTED BY IDOCK:   -4.24 KCAL/MOL
REMARK 923 INTER-LIGAND FREE ENERGY PREDICTED BY IDOCK:   -3.31 KCAL/MOL
REMARK 924 INTRA-LIGAND FREE ENERGY PREDICTED BY IDOCK:   -0.93 KCAL/MOL
REMARK 927      BINDING AFFINITY PREDICTED BY RF-SCORE:    0.00 PKD
ROOT
HETATM    1  C   UNL     1      -6.948   9.175  66.399  1.00  0.00    -0.080 C  
HETATM    2  N   UNL     1      -8.357   8.825  66.198  1.00  0.00    -0.119 NA 
HETATM    3  C   UNL     1      -8.762   9.194  64.837  1.00  0.00    -0.182 C  
ENDROOT
BRANCH   2   4
HETATM    4  C   UNL     1      -8.618   7.394  66.427  1.00  0.00    -0.134 C  
BRANCH   4   5
HETATM    5  C   UNL     1      -9.720   7.100  67.449  1.00  0.00    -0.186 C  
BRANCH   5   6
HETATM    6  C   UNL     1     -10.078   8.301  68.336  1.00  0.00    -0.201 C  
BRANCH   6   7
HETATM    7  N   UNL     1      -9.417   8.203  69.664  1.00  0.00    -0.159 NA 
HETATM    8  C   UNL     1      -8.144   8.805  69.724  1.00  0.00    -0.111 A  
HETATM    9  C   UNL     1      -8.047  10.205  69.783  1.00  0.00    -0.167 A  
HETATM   10  C   UNL     1      -6.809  10.840  69.908  1.00  0.00    -0.146 A  
HETATM   11  C   UNL     1      -5.645  10.083  69.949  1.00  0.00    -0.038 A  
HETATM   12  C   UNL     1      -5.722   8.693  69.887  1.00  0.00    -0.028 A  
HETATM   13  C   UNL     1      -6.967   8.048  69.784  1.00  0.00    -0.052 A  
HETATM   14  C   UNL     1      -7.041   6.550  69.807  1.00  0.00    -0.072 C  
HETATM   15  C   UNL     1      -7.696   6.057  71.091  1.00  0.00    -0.109 C  
HETATM   16  C   UNL     1      -9.171   6.337  71.304  1.00  0.00    -0.157 A  
HETATM   17  C   UNL     1      -9.784   5.565  72.317  1.00  0.00    -0.181 A  
HETATM   18  C   UNL     1     -11.132   5.703  72.632  1.00  0.00    -0.331 A  
HETATM   19  C   UNL     1     -11.901   6.619  71.935  1.00  0.00    -0.375 A  
HETATM   20  C   UNL     1     -11.312   7.397  70.936  1.00  0.00    -0.300 A  
HETATM   21  C   UNL     1      -9.943   7.288  70.600  1.00  0.00    -0.186 A  
ENDBRANCH   6   7
ENDBRANCH   5   6
ENDBRANCH   4   5
ENDBRANCH   2   4
TORSDOF 4
ENDMDL
MODEL      189
REMARK 921   NORMALIZED FREE ENERGY PREDICTED BY IDOCK:   -3.18 KCAL/MOL
REMARK 922        TOTAL FREE ENERGY PREDICTED BY IDOCK:   -4.22 KCAL/MOL
REMARK 923 INTER-LIGAND FREE ENERGY PREDICTED BY IDOCK:   -3.58 KCAL/MOL
REMARK 924 INTRA-LIGAND FREE ENERGY PREDICTED BY IDOCK:   -0.64 KCAL/MOL
REMARK 927      BINDING AFFINITY PREDICTED BY RF-SCORE:    0.00 PKD
ROOT
HETATM    1  C   UNL     1      -5.674   9.741  68.253  1.00  0.00    -0.043 C  
HETATM    2  N   UNL     1      -6.488  10.743  67.559  1.00  0.00    -0.057 NA 
HETATM    3  C   UNL     1      -6.309  10.599  66.111  1.00  0.00    -0.128 C  
ENDROOT
BRANCH   2   4
HETATM    4  C   UNL     1      -7.917  10.639  67.899  1.00  0.00    -0.106 C  
BRANCH   4   5
HETATM    5  C   UNL     1      -8.655   9.483  67.216  1.00  0.00    -0.128 C  
BRANCH   5   6
HETATM    6  C   UNL     1      -9.982   9.111  67.890  1.00  0.00    -0.186 C  
BRANCH   6   7
HETATM    7  N   UNL     1      -9.873   7.815  68.610  1.00  0.00    -0.164 NA 
HETATM    8  C   UNL     1      -9.648   7.937  69.996  1.00  0.00    -0.168 A  
HETATM    9  C   UNL     1     -10.709   8.310  70.835  1.00  0.00    -0.250 A  
HETATM   10  C   UNL     1     -10.545   8.381  72.221  1.00  0.00    -0.412 A  
HETATM   11  C   UNL     1      -9.306   8.104  72.785  1.00  0.00    -0.344 A  
HETATM   12  C   UNL     1      -8.240   7.738  71.966  1.00  0.00    -0.134 A  
HETATM   13  C   UNL     1      -8.406   7.643  70.573  1.00  0.00    -0.126 A  
HETATM   14  C   UNL     1      -7.275   7.162  69.713  1.00  0.00    -0.079 C  
HETATM   15  C   UNL     1      -7.584   5.791  69.125  1.00  0.00    -0.089 C  
HETATM   16  C   UNL     1      -8.688   5.680  68.091  1.00  0.00    -0.102 A  
HETATM   17  C   UNL     1      -8.683   4.482  67.342  1.00  0.00    -0.107 A  
HETATM   18  C   UNL     1      -9.630   4.230  66.353  1.00  0.00    -0.209 A  
HETATM   19  C   UNL     1     -10.605   5.177  66.090  1.00  0.00    -0.293 A  
HETATM   20  C   UNL     1     -10.630   6.364  66.825  1.00  0.00    -0.328 A  
HETATM   21  C   UNL     1      -9.689   6.645  67.843  1.00  0.00    -0.122 A  
ENDBRANCH   6   7
ENDBRANCH   5   6
ENDBRANCH   4   5
ENDBRANCH   2   4
TORSDOF 4
ENDMDL
MODEL      190
REMARK 921   NORMALIZED FREE ENERGY PREDICTED BY IDOCK:   -3.17 KCAL/MOL
REMARK 922        TOTAL FREE ENERGY PREDICTED BY IDOCK:   -4.21 KCAL/MOL
REMARK 923 INTER-LIGAND FREE ENERGY PREDICTED BY IDOCK:   -4.18 KCAL/MOL
REMARK 924 INTRA-LIGAND FREE ENERGY PREDICTED BY IDOCK:   -0.03 KCAL/MOL
REMARK 927      BINDING AFFINITY PREDICTED BY RF-SCORE:    0.00 PKD
ROOT
HETATM    1  C   UNL     1     -11.690  13.688  64.829  1.00  0.00    -0.377 C  
HETATM    2  N   UNL     1     -11.268  14.905  65.529  1.00  0.00    -0.342 NA 
HETATM    3  C   UNL     1     -11.828  16.077  64.849  1.00  0.00     0.261 C  
ENDROOT
BRANCH   2   4
HETATM    4  C   UNL     1     -11.675  14.907  66.945  1.00  0.00    -0.248 C  
BRANCH   4   5
HETATM    5  C   UNL     1     -10.839  15.817  67.849  1.00  0.00    -0.314 C  
BRANCH   5   6
HETATM    6  C   UNL     1      -9.350  15.861  67.479  1.00  0.00    -0.217 C  
BRANCH   6   7
HETATM    7  N   UNL     1      -8.610  16.817  68.344  1.00  0.00    -0.226 NA 
HETATM    8  C   UNL     1      -8.950  18.169  68.139  1.00  0.00    -0.290 A  
HETATM    9  C   UNL     1     -10.165  18.657  68.646  1.00  0.00    -0.359 A  
HETATM   10  C   UNL     1     -10.513  20.005  68.521  1.00  0.00    -0.315 A  
HETATM   11  C   UNL     1      -9.658  20.880  67.862  1.00  0.00    -0.095 A  
HETATM   12  C   UNL     1      -8.451  20.412  67.349  1.00  0.00    -0.394 A  
HETATM   13  C   UNL     1      -8.087  19.061  67.492  1.00  0.00    -0.292 A  
HETATM   14  C   UNL     1      -6.745  18.590  67.012  1.00  0.00    -0.207 C  
HETATM   15  C   UNL     1      -5.849  18.215  68.185  1.00  0.00    -0.172 C  
HETATM   16  C   UNL     1      -6.211  16.995  69.010  1.00  0.00    -0.190 A  
HETATM   17  C   UNL     1      -5.173  16.506  69.835  1.00  0.00    -0.165 A  
HETATM   18  C   UNL     1      -5.347  15.392  70.651  1.00  0.00    -0.138 A  
HETATM   19  C   UNL     1      -6.567  14.739  70.656  1.00  0.00     0.124 A  
HETATM   20  C   UNL     1      -7.607  15.212  69.854  1.00  0.00     0.003 A  
HETATM   21  C   UNL     1      -7.465  16.347  69.022  1.00  0.00    -0.227 A  
ENDBRANCH   6   7
ENDBRANCH   5   6
ENDBRANCH   4   5
ENDBRANCH   2   4
TORSDOF 4
ENDMDL
MODEL      191
REMARK 921   NORMALIZED FREE ENERGY PREDICTED BY IDOCK:   -3.16 KCAL/MOL
REMARK 922        TOTAL FREE ENERGY PREDICTED BY IDOCK:   -4.20 KCAL/MOL
REMARK 923 INTER-LIGAND FREE ENERGY PREDICTED BY IDOCK:   -3.51 KCAL/MOL
REMARK 924 INTRA-LIGAND FREE ENERGY PREDICTED BY IDOCK:   -0.69 KCAL/MOL
REMARK 927      BINDING AFFINITY PREDICTED BY RF-SCORE:    0.00 PKD
ROOT
HETATM    1  C   UNL     1      -6.781  10.050  65.053  1.00  0.00    -0.128 C  
HETATM    2  N   UNL     1      -7.662   8.926  65.384  1.00  0.00    -0.090 NA 
HETATM    3  C   UNL     1      -7.666   7.967  64.275  1.00  0.00    -0.128 C  
ENDROOT
BRANCH   2   4
HETATM    4  C   UNL     1      -7.261   8.248  66.629  1.00  0.00    -0.081 C  
BRANCH   4   5
HETATM    5  C   UNL     1      -8.173   8.522  67.829  1.00  0.00    -0.122 C  
BRANCH   5   6
HETATM    6  C   UNL     1      -9.233   7.436  68.062  1.00  0.00    -0.132 C  
BRANCH   6   7
HETATM    7  N   UNL     1      -9.127   6.869  69.432  1.00  0.00    -0.141 NA 
HETATM    8  C   UNL     1     -10.152   7.277  70.310  1.00  0.00    -0.192 A  
HETATM    9  C   UNL     1     -11.433   6.716  70.180  1.00  0.00    -0.444 A  
HETATM   10  C   UNL     1     -12.460   7.044  71.068  1.00  0.00    -0.373 A  
HETATM   11  C   UNL     1     -12.227   7.962  72.086  1.00  0.00    -0.353 A  
HETATM   12  C   UNL     1     -10.963   8.532  72.226  1.00  0.00    -0.426 A  
HETATM   13  C   UNL     1      -9.920   8.187  71.348  1.00  0.00    -0.230 A  
HETATM   14  C   UNL     1      -8.543   8.741  71.565  1.00  0.00    -0.253 C  
HETATM   15  C   UNL     1      -7.578   7.646  72.001  1.00  0.00    -0.089 C  
HETATM   16  C   UNL     1      -7.209   6.567  71.001  1.00  0.00    -0.078 A  
HETATM   17  C   UNL     1      -6.066   5.808  71.340  1.00  0.00    -0.030 A  
HETATM   18  C   UNL     1      -5.598   4.782  70.524  1.00  0.00    -0.015 A  
HETATM   19  C   UNL     1      -6.264   4.495  69.345  1.00  0.00    -0.027 A  
HETATM   20  C   UNL     1      -7.400   5.229  68.997  1.00  0.00    -0.066 A  
HETATM   21  C   UNL     1      -7.906   6.270  69.809  1.00  0.00    -0.110 A  
ENDBRANCH   6   7
ENDBRANCH   5   6
ENDBRANCH   4   5
ENDBRANCH   2   4
TORSDOF 4
ENDMDL
MODEL      192
REMARK 921   NORMALIZED FREE ENERGY PREDICTED BY IDOCK:   -3.09 KCAL/MOL
REMARK 922        TOTAL FREE ENERGY PREDICTED BY IDOCK:   -4.11 KCAL/MOL
REMARK 923 INTER-LIGAND FREE ENERGY PREDICTED BY IDOCK:   -3.49 KCAL/MOL
REMARK 924 INTRA-LIGAND FREE ENERGY PREDICTED BY IDOCK:   -0.62 KCAL/MOL
REMARK 927      BINDING AFFINITY PREDICTED BY RF-SCORE:    0.00 PKD
ROOT
HETATM    1  C   UNL     1      -9.501  11.096  62.720  1.00  0.00    -0.329 C  
HETATM    2  N   UNL     1     -10.159  11.254  64.020  1.00  0.00    -0.296 NA 
HETATM    3  C   UNL     1     -11.531  11.730  63.818  1.00  0.00    -0.420 C  
ENDROOT
BRANCH   2   4
HETATM    4  C   UNL     1     -10.174  10.003  64.797  1.00  0.00     0.100 C  
BRANCH   4   5
HETATM    5  C   UNL     1      -9.169   9.955  65.952  1.00  0.00    -0.223 C  
BRANCH   5   6
HETATM    6  C   UNL     1      -8.926  11.317  66.619  1.00  0.00    -0.176 C  
BRANCH   6   7
HETATM    7  N   UNL     1      -9.051  11.220  68.097  1.00  0.00    -0.160 NA 
HETATM    8  C   UNL     1      -7.968  10.579  68.731  1.00  0.00    -0.127 A  
HETATM    9  C   UNL     1      -6.754  11.268  68.882  1.00  0.00    -0.081 A  
HETATM   10  C   UNL     1      -5.675  10.694  69.560  1.00  0.00    -0.039 A  
HETATM   11  C   UNL     1      -5.788   9.409  70.075  1.00  0.00    -0.035 A  
HETATM   12  C   UNL     1      -6.984   8.709  69.930  1.00  0.00    -0.043 A  
HETATM   13  C   UNL     1      -8.079   9.291  69.268  1.00  0.00    -0.106 A  
HETATM   14  C   UNL     1      -9.388   8.560  69.196  1.00  0.00    -0.153 C  
HETATM   15  C   UNL     1     -10.446   9.255  70.045  1.00  0.00    -0.254 C  
HETATM   16  C   UNL     1     -10.947  10.616  69.604  1.00  0.00    -0.331 A  
HETATM   17  C   UNL     1     -12.151  11.034  70.216  1.00  0.00    -0.448 A  
HETATM   18  C   UNL     1     -12.741  12.258  69.916  1.00  0.00     0.366 A  
HETATM   19  C   UNL     1     -12.139  13.093  68.991  1.00  0.00    -0.240 A  
HETATM   20  C   UNL     1     -10.945  12.701  68.381  1.00  0.00    -0.284 A  
HETATM   21  C   UNL     1     -10.315  11.469  68.673  1.00  0.00    -0.210 A  
ENDBRANCH   6   7
ENDBRANCH   5   6
ENDBRANCH   4   5
ENDBRANCH   2   4
TORSDOF 4
ENDMDL
MODEL      193
REMARK 921   NORMALIZED FREE ENERGY PREDICTED BY IDOCK:   -3.06 KCAL/MOL
REMARK 922        TOTAL FREE ENERGY PREDICTED BY IDOCK:   -4.07 KCAL/MOL
REMARK 923 INTER-LIGAND FREE ENERGY PREDICTED BY IDOCK:   -3.51 KCAL/MOL
REMARK 924 INTRA-LIGAND FREE ENERGY PREDICTED BY IDOCK:   -0.56 KCAL/MOL
REMARK 927      BINDING AFFINITY PREDICTED BY RF-SCORE:    0.00 PKD
ROOT
HETATM    1  C   UNL     1      -9.467  11.159  62.719  1.00  0.00    -0.329 C  
HETATM    2  N   UNL     1     -10.090  11.524  63.995  1.00  0.00    -0.291 NA 
HETATM    3  C   UNL     1     -11.432  12.061  63.747  1.00  0.00    -0.461 C  
ENDROOT
BRANCH   2   4
HETATM    4  C   UNL     1     -10.171  10.386  64.925  1.00  0.00    -0.260 C  
BRANCH   4   5
HETATM    5  C   UNL     1      -9.151  10.419  66.068  1.00  0.00    -0.187 C  
BRANCH   5   6
HETATM    6  C   UNL     1      -9.732  10.009  67.428  1.00  0.00    -0.161 C  
BRANCH   6   7
HETATM    7  N   UNL     1      -8.911   8.945  68.064  1.00  0.00    -0.139 NA 
HETATM    8  C   UNL     1      -7.690   9.398  68.602  1.00  0.00    -0.084 A  
HETATM    9  C   UNL     1      -7.693  10.112  69.811  1.00  0.00    -0.176 A  
HETATM   10  C   UNL     1      -6.501  10.523  70.413  1.00  0.00    -0.117 A  
HETATM   11  C   UNL     1      -5.286  10.248  69.797  1.00  0.00    -0.038 A  
HETATM   12  C   UNL     1      -5.264   9.545  68.594  1.00  0.00    -0.033 A  
HETATM   13  C   UNL     1      -6.460   9.109  67.997  1.00  0.00    -0.059 A  
HETATM   14  C   UNL     1      -6.417   8.277  66.749  1.00  0.00    -0.056 C  
HETATM   15  C   UNL     1      -6.874   6.852  67.030  1.00  0.00    -0.065 C  
HETATM   16  C   UNL     1      -8.330   6.615  67.381  1.00  0.00    -0.121 A  
HETATM   17  C   UNL     1      -8.757   5.272  67.279  1.00  0.00    -0.107 A  
HETATM   18  C   UNL     1     -10.064   4.892  67.566  1.00  0.00    -0.184 A  
HETATM   19  C   UNL     1     -10.979   5.854  67.961  1.00  0.00    -0.252 A  
HETATM   20  C   UNL     1     -10.574   7.186  68.075  1.00  0.00    -0.251 A  
HETATM   21  C   UNL     1      -9.251   7.601  67.801  1.00  0.00    -0.136 A  
ENDBRANCH   6   7
ENDBRANCH   5   6
ENDBRANCH   4   5
ENDBRANCH   2   4
TORSDOF 4
ENDMDL
MODEL      194
REMARK 921   NORMALIZED FREE ENERGY PREDICTED BY IDOCK:   -3.03 KCAL/MOL
REMARK 922        TOTAL FREE ENERGY PREDICTED BY IDOCK:   -4.03 KCAL/MOL
REMARK 923 INTER-LIGAND FREE ENERGY PREDICTED BY IDOCK:   -3.61 KCAL/MOL
REMARK 924 INTRA-LIGAND FREE ENERGY PREDICTED BY IDOCK:   -0.43 KCAL/MOL
REMARK 927      BINDING AFFINITY PREDICTED BY RF-SCORE:    0.00 PKD
ROOT
HETATM    1  C   UNL     1     -10.300   1.863  73.448  1.00  0.00    -0.109 C  
HETATM    2  N   UNL     1     -10.021   3.290  73.265  1.00  0.00    -0.110 NA 
HETATM    3  C   UNL     1     -10.702   4.059  74.311  1.00  0.00    -0.178 C  
ENDROOT
BRANCH   2   4
HETATM    4  C   UNL     1      -8.579   3.587  73.285  1.00  0.00    -0.086 C  
BRANCH   4   5
HETATM    5  C   UNL     1      -7.996   4.019  71.936  1.00  0.00    -0.079 C  
BRANCH   5   6
HETATM    6  C   UNL     1      -9.047   4.177  70.829  1.00  0.00    -0.111 C  
BRANCH   6   7
HETATM    7  N   UNL     1      -8.995   5.537  70.231  1.00  0.00    -0.135 NA 
HETATM    8  C   UNL     1      -9.822   6.484  70.868  1.00  0.00    -0.183 A  
HETATM    9  C   UNL     1      -9.430   7.017  72.107  1.00  0.00    -0.150 A  
HETATM   10  C   UNL     1     -10.187   8.005  72.742  1.00  0.00    -0.389 A  
HETATM   11  C   UNL     1     -11.365   8.454  72.159  1.00  0.00    -0.437 A  
HETATM   12  C   UNL     1     -11.772   7.932  70.932  1.00  0.00    -0.271 A  
HETATM   13  C   UNL     1     -11.001   6.955  70.278  1.00  0.00    -0.322 A  
HETATM   14  C   UNL     1     -11.405   6.467  68.918  1.00  0.00    -0.292 C  
HETATM   15  C   UNL     1     -10.416   6.933  67.857  1.00  0.00    -0.262 C  
HETATM   16  C   UNL     1      -9.014   6.357  67.873  1.00  0.00    -0.114 A  
HETATM   17  C   UNL     1      -8.277   6.551  66.682  1.00  0.00    -0.112 A  
HETATM   18  C   UNL     1      -6.976   6.080  66.539  1.00  0.00    -0.067 A  
HETATM   19  C   UNL     1      -6.382   5.397  67.587  1.00  0.00    -0.039 A  
HETATM   20  C   UNL     1      -7.090   5.202  68.773  1.00  0.00    -0.057 A  
HETATM   21  C   UNL     1      -8.410   5.678  68.954  1.00  0.00    -0.103 A  
ENDBRANCH   6   7
ENDBRANCH   5   6
ENDBRANCH   4   5
ENDBRANCH   2   4
TORSDOF 4
ENDMDL
MODEL      195
REMARK 921   NORMALIZED FREE ENERGY PREDICTED BY IDOCK:   -3.03 KCAL/MOL
REMARK 922        TOTAL FREE ENERGY PREDICTED BY IDOCK:   -4.03 KCAL/MOL
REMARK 923 INTER-LIGAND FREE ENERGY PREDICTED BY IDOCK:   -3.77 KCAL/MOL
REMARK 924 INTRA-LIGAND FREE ENERGY PREDICTED BY IDOCK:   -0.26 KCAL/MOL
REMARK 927      BINDING AFFINITY PREDICTED BY RF-SCORE:    0.00 PKD
ROOT
HETATM    1  C   UNL     1     -10.566   6.668  72.563  1.00  0.00    -0.217 C  
HETATM    2  N   UNL     1      -9.263   6.376  71.958  1.00  0.00    -0.148 NA 
HETATM    3  C   UNL     1      -9.236   4.980  71.508  1.00  0.00    -0.146 C  
ENDROOT
BRANCH   2   4
HETATM    4  C   UNL     1      -8.954   7.271  70.830  1.00  0.00    -0.150 C  
BRANCH   4   5
HETATM    5  C   UNL     1      -9.235   6.677  69.447  1.00  0.00    -0.142 C  
BRANCH   5   6
HETATM    6  C   UNL     1      -8.322   7.226  68.341  1.00  0.00    -0.125 C  
BRANCH   6   7
HETATM    7  N   UNL     1      -9.096   7.530  67.109  1.00  0.00    -0.124 NA 
HETATM    8  C   UNL     1      -9.097   6.494  66.153  1.00  0.00    -0.124 A  
HETATM    9  C   UNL     1      -9.893   5.358  66.369  1.00  0.00    -0.196 A  
HETATM   10  C   UNL     1      -9.973   4.338  65.418  1.00  0.00    -0.233 A  
HETATM   11  C   UNL     1      -9.233   4.427  64.245  1.00  0.00    -0.145 A  
HETATM   12  C   UNL     1      -8.433   5.545  64.017  1.00  0.00    -0.043 A  
HETATM   13  C   UNL     1      -8.367   6.585  64.961  1.00  0.00    -0.076 A  
HETATM   14  C   UNL     1      -7.571   7.821  64.662  1.00  0.00    -0.113 C  
HETATM   15  C   UNL     1      -8.487   9.022  64.462  1.00  0.00    -0.191 C  
HETATM   16  C   UNL     1      -9.251   9.555  65.658  1.00  0.00    -0.281 A  
HETATM   17  C   UNL     1      -9.788  10.852  65.491  1.00  0.00    -0.298 A  
HETATM   18  C   UNL     1     -10.514  11.482  66.498  1.00  0.00    -0.284 A  
HETATM   19  C   UNL     1     -10.717  10.826  67.700  1.00  0.00    -0.305 A  
HETATM   20  C   UNL     1     -10.201   9.541  67.881  1.00  0.00    -0.251 A  
HETATM   21  C   UNL     1      -9.469   8.871  66.874  1.00  0.00    -0.177 A  
ENDBRANCH   6   7
ENDBRANCH   5   6
ENDBRANCH   4   5
ENDBRANCH   2   4
TORSDOF 4
ENDMDL
MODEL      196
REMARK 921   NORMALIZED FREE ENERGY PREDICTED BY IDOCK:   -3.02 KCAL/MOL
REMARK 922        TOTAL FREE ENERGY PREDICTED BY IDOCK:   -4.02 KCAL/MOL
REMARK 923 INTER-LIGAND FREE ENERGY PREDICTED BY IDOCK:   -3.85 KCAL/MOL
REMARK 924 INTRA-LIGAND FREE ENERGY PREDICTED BY IDOCK:   -0.17 KCAL/MOL
REMARK 927      BINDING AFFINITY PREDICTED BY RF-SCORE:    0.00 PKD
ROOT
HETATM    1  C   UNL     1      -6.024   8.500  65.829  1.00  0.00    -0.048 C  
HETATM    2  N   UNL     1      -6.885   9.533  65.245  1.00  0.00    -0.084 NA 
HETATM    3  C   UNL     1      -6.493   9.763  63.851  1.00  0.00    -0.119 C  
ENDROOT
BRANCH   2   4
HETATM    4  C   UNL     1      -8.312   9.177  65.310  1.00  0.00    -0.146 C  
BRANCH   4   5
HETATM    5  C   UNL     1      -8.913   9.195  66.719  1.00  0.00    -0.152 C  
BRANCH   5   6
HETATM    6  C   UNL     1      -9.562  10.533  67.099  1.00  0.00    -0.168 C  
BRANCH   6   7
HETATM    7  N   UNL     1      -9.639  10.692  68.575  1.00  0.00    -0.168 NA 
HETATM    8  C   UNL     1      -8.791   9.828  69.298  1.00  0.00    -0.169 A  
HETATM    9  C   UNL     1      -7.414  10.096  69.344  1.00  0.00    -0.119 A  
HETATM   10  C   UNL     1      -6.547   9.303  70.101  1.00  0.00    -0.052 A  
HETATM   11  C   UNL     1      -7.044   8.211  70.802  1.00  0.00    -0.049 A  
HETATM   12  C   UNL     1      -8.408   7.927  70.762  1.00  0.00    -0.115 A  
HETATM   13  C   UNL     1      -9.287   8.736  70.021  1.00  0.00    -0.175 A  
HETATM   14  C   UNL     1     -10.764   8.471  70.058  1.00  0.00    -0.234 C  
HETATM   15  C   UNL     1     -11.497   9.585  70.794  1.00  0.00    -0.378 C  
HETATM   16  C   UNL     1     -11.553  10.958  70.155  1.00  0.00    -0.425 A  
HETATM   17  C   UNL     1     -12.526  11.828  70.698  1.00  0.00    -0.364 A  
HETATM   18  C   UNL     1     -12.703  13.123  70.219  1.00  0.00    -0.012 A  
HETATM   19  C   UNL     1     -11.909  13.576  69.180  1.00  0.00    -0.386 A  
HETATM   20  C   UNL     1     -10.937  12.735  68.636  1.00  0.00    -0.295 A  
HETATM   21  C   UNL     1     -10.726  11.418  69.107  1.00  0.00    -0.189 A  
ENDBRANCH   6   7
ENDBRANCH   5   6
ENDBRANCH   4   5
ENDBRANCH   2   4
TORSDOF 4
ENDMDL
MODEL      197
REMARK 921   NORMALIZED FREE ENERGY PREDICTED BY IDOCK:   -3.00 KCAL/MOL
REMARK 922        TOTAL FREE ENERGY PREDICTED BY IDOCK:   -4.00 KCAL/MOL
REMARK 923 INTER-LIGAND FREE ENERGY PREDICTED BY IDOCK:   -3.17 KCAL/MOL
REMARK 924 INTRA-LIGAND FREE ENERGY PREDICTED BY IDOCK:   -0.83 KCAL/MOL
REMARK 927      BINDING AFFINITY PREDICTED BY RF-SCORE:    0.00 PKD
ROOT
HETATM    1  C   UNL     1      -6.795  10.255  66.865  1.00  0.00    -0.086 C  
HETATM    2  N   UNL     1      -5.812  10.544  67.913  1.00  0.00    -0.044 NA 
HETATM    3  C   UNL     1      -6.251  11.712  68.685  1.00  0.00    -0.053 C  
ENDROOT
BRANCH   2   4
HETATM    4  C   UNL     1      -5.601   9.400  68.815  1.00  0.00    -0.037 C  
BRANCH   4   5
HETATM    5  C   UNL     1      -6.309   8.110  68.389  1.00  0.00    -0.050 C  
BRANCH   5   6
HETATM    6  C   UNL     1      -7.248   7.537  69.459  1.00  0.00    -0.082 C  
BRANCH   6   7
HETATM    7  N   UNL     1      -8.623   7.353  68.923  1.00  0.00    -0.129 NA 
HETATM    8  C   UNL     1      -8.827   6.127  68.257  1.00  0.00    -0.112 A  
HETATM    9  C   UNL     1      -8.966   4.950  69.009  1.00  0.00    -0.134 A  
HETATM   10  C   UNL     1      -9.233   3.725  68.394  1.00  0.00    -0.213 A  
HETATM   11  C   UNL     1      -9.338   3.656  67.010  1.00  0.00    -0.223 A  
HETATM   12  C   UNL     1      -9.198   4.814  66.247  1.00  0.00    -0.141 A  
HETATM   13  C   UNL     1      -8.952   6.053  66.865  1.00  0.00    -0.117 A  
HETATM   14  C   UNL     1      -8.891   7.304  66.039  1.00  0.00    -0.161 C  
HETATM   15  C   UNL     1     -10.085   8.205  66.328  1.00  0.00    -0.074 C  
HETATM   16  C   UNL     1     -10.180   8.864  67.690  1.00  0.00    -0.296 A  
HETATM   17  C   UNL     1     -11.094   9.940  67.768  1.00  0.00    -0.196 A  
HETATM   18  C   UNL     1     -11.294  10.649  68.948  1.00  0.00    -0.337 A  
HETATM   19  C   UNL     1     -10.580  10.297  70.081  1.00  0.00    -0.303 A  
HETATM   20  C   UNL     1      -9.679   9.232  70.026  1.00  0.00    -0.234 A  
HETATM   21  C   UNL     1      -9.461   8.486  68.845  1.00  0.00    -0.147 A  
ENDBRANCH   6   7
ENDBRANCH   5   6
ENDBRANCH   4   5
ENDBRANCH   2   4
TORSDOF 4
ENDMDL
MODEL      198
REMARK 921   NORMALIZED FREE ENERGY PREDICTED BY IDOCK:   -3.00 KCAL/MOL
REMARK 922        TOTAL FREE ENERGY PREDICTED BY IDOCK:   -3.99 KCAL/MOL
REMARK 923 INTER-LIGAND FREE ENERGY PREDICTED BY IDOCK:   -3.41 KCAL/MOL
REMARK 924 INTRA-LIGAND FREE ENERGY PREDICTED BY IDOCK:   -0.58 KCAL/MOL
REMARK 927      BINDING AFFINITY PREDICTED BY RF-SCORE:    0.00 PKD
ROOT
HETATM    1  C   UNL     1      -7.720  13.014  67.998  1.00  0.00    -0.145 C  
HETATM    2  N   UNL     1      -7.275  11.618  67.970  1.00  0.00    -0.078 NA 
HETATM    3  C   UNL     1      -5.847  11.555  68.298  1.00  0.00    -0.045 C  
ENDROOT
BRANCH   2   4
HETATM    4  C   UNL     1      -8.039  10.767  68.898  1.00  0.00    -0.145 C  
BRANCH   4   5
HETATM    5  C   UNL     1      -7.832   9.262  68.704  1.00  0.00    -0.089 C  
BRANCH   5   6
HETATM    6  C   UNL     1      -9.139   8.457  68.666  1.00  0.00    -0.140 C  
BRANCH   6   7
HETATM    7  N   UNL     1      -9.460   8.019  67.282  1.00  0.00    -0.149 NA 
HETATM    8  C   UNL     1      -9.272   6.642  67.051  1.00  0.00    -0.135 A  
HETATM    9  C   UNL     1     -10.209   5.725  67.554  1.00  0.00    -0.239 A  
HETATM   10  C   UNL     1     -10.096   4.358  67.294  1.00  0.00    -0.101 A  
HETATM   11  C   UNL     1      -9.025   3.883  66.546  1.00  0.00    -0.137 A  
HETATM   12  C   UNL     1      -8.083   4.777  66.044  1.00  0.00    -0.107 A  
HETATM   13  C   UNL     1      -8.205   6.157  66.284  1.00  0.00    -0.116 A  
HETATM   14  C   UNL     1      -7.233   7.116  65.663  1.00  0.00    -0.070 C  
HETATM   15  C   UNL     1      -7.913   7.967  64.597  1.00  0.00    -0.143 C  
HETATM   16  C   UNL     1      -8.950   8.982  65.036  1.00  0.00    -0.198 A  
HETATM   17  C   UNL     1      -9.272   9.960  64.068  1.00  0.00    -0.302 A  
HETATM   18  C   UNL     1     -10.204  10.963  64.318  1.00  0.00    -0.430 A  
HETATM   19  C   UNL     1     -10.834  11.011  65.550  1.00  0.00    -0.159 A  
HETATM   20  C   UNL     1     -10.535  10.049  66.517  1.00  0.00    -0.223 A  
HETATM   21  C   UNL     1      -9.601   9.012  66.289  1.00  0.00    -0.260 A  
ENDBRANCH   6   7
ENDBRANCH   5   6
ENDBRANCH   4   5
ENDBRANCH   2   4
TORSDOF 4
ENDMDL
MODEL      199
REMARK 921   NORMALIZED FREE ENERGY PREDICTED BY IDOCK:   -2.98 KCAL/MOL
REMARK 922        TOTAL FREE ENERGY PREDICTED BY IDOCK:   -3.97 KCAL/MOL
REMARK 923 INTER-LIGAND FREE ENERGY PREDICTED BY IDOCK:   -3.60 KCAL/MOL
REMARK 924 INTRA-LIGAND FREE ENERGY PREDICTED BY IDOCK:   -0.37 KCAL/MOL
REMARK 927      BINDING AFFINITY PREDICTED BY RF-SCORE:    0.00 PKD
ROOT
HETATM    1  C   UNL     1     -10.146  11.408  68.295  1.00  0.00    -0.196 C  
HETATM    2  N   UNL     1     -10.467   9.987  68.127  1.00  0.00    -0.198 NA 
HETATM    3  C   UNL     1      -9.454   9.356  67.274  1.00  0.00    -0.133 C  
ENDROOT
BRANCH   2   4
HETATM    4  C   UNL     1     -10.551   9.275  69.413  1.00  0.00    -0.223 C  
BRANCH   4   5
HETATM    5  C   UNL     1      -9.320   9.427  70.311  1.00  0.00    -0.294 C  
BRANCH   5   6
HETATM    6  C   UNL     1      -9.435   8.686  71.650  1.00  0.00    -0.269 C  
BRANCH   6   7
HETATM    7  N   UNL     1      -8.878   7.311  71.552  1.00  0.00    -0.122 NA 
HETATM    8  C   UNL     1      -7.863   7.164  70.585  1.00  0.00    -0.096 A  
HETATM    9  C   UNL     1      -6.578   7.661  70.854  1.00  0.00    -0.038 A  
HETATM   10  C   UNL     1      -5.527   7.480  69.952  1.00  0.00    -0.023 A  
HETATM   11  C   UNL     1      -5.754   6.820  68.750  1.00  0.00    -0.018 A  
HETATM   12  C   UNL     1      -7.025   6.325  68.464  1.00  0.00    -0.080 A  
HETATM   13  C   UNL     1      -8.080   6.484  69.380  1.00  0.00    -0.119 A  
HETATM   14  C   UNL     1      -9.419   5.869  69.097  1.00  0.00    -0.151 C  
HETATM   15  C   UNL     1      -9.705   4.724  70.061  1.00  0.00    -0.280 C  
HETATM   16  C   UNL     1      -9.934   5.050  71.523  1.00  0.00    -0.254 A  
HETATM   17  C   UNL     1     -10.533   4.015  72.277  1.00  0.00    -0.121 A  
HETATM   18  C   UNL     1     -10.811   4.159  73.633  1.00  0.00    -0.346 A  
HETATM   19  C   UNL     1     -10.497   5.349  74.266  1.00  0.00    -0.294 A  
HETATM   20  C   UNL     1      -9.898   6.381  73.541  1.00  0.00    -0.199 A  
HETATM   21  C   UNL     1      -9.593   6.261  72.165  1.00  0.00    -0.150 A  
ENDBRANCH   6   7
ENDBRANCH   5   6
ENDBRANCH   4   5
ENDBRANCH   2   4
TORSDOF 4
ENDMDL
MODEL      200
REMARK 921   NORMALIZED FREE ENERGY PREDICTED BY IDOCK:   -2.96 KCAL/MOL
REMARK 922        TOTAL FREE ENERGY PREDICTED BY IDOCK:   -3.95 KCAL/MOL
REMARK 923 INTER-LIGAND FREE ENERGY PREDICTED BY IDOCK:   -4.04 KCAL/MOL
REMARK 924 INTRA-LIGAND FREE ENERGY PREDICTED BY IDOCK:    0.09 KCAL/MOL
REMARK 927      BINDING AFFINITY PREDICTED BY RF-SCORE:    0.00 PKD
ROOT
HETATM    1  C   UNL     1     -12.556  14.080  65.593  1.00  0.00    -0.512 C  
HETATM    2  N   UNL     1     -11.299  14.805  65.805  1.00  0.00    -0.342 NA 
HETATM    3  C   UNL     1     -11.268  15.338  67.171  1.00  0.00    -0.291 C  
ENDROOT
BRANCH   2   4
HETATM    4  C   UNL     1     -10.117  13.959  65.572  1.00  0.00    -0.298 C  
BRANCH   4   5
HETATM    5  C   UNL     1     -10.079  12.670  66.398  1.00  0.00    -0.263 C  
BRANCH   5   6
HETATM    6  C   UNL     1      -9.734  11.418  65.579  1.00  0.00    -0.230 C  
BRANCH   6   7
HETATM    7  N   UNL     1      -8.751  10.563  66.295  1.00  0.00    -0.147 NA 
HETATM    8  C   UNL     1      -7.576  11.233  66.690  1.00  0.00    -0.140 A  
HETATM    9  C   UNL     1      -7.618  12.102  67.792  1.00  0.00    -0.131 A  
HETATM   10  C   UNL     1      -6.463  12.737  68.256  1.00  0.00    -0.083 A  
HETATM   11  C   UNL     1      -5.252  12.532  67.606  1.00  0.00    -0.107 A  
HETATM   12  C   UNL     1      -5.195  11.677  66.507  1.00  0.00    -0.059 A  
HETATM   13  C   UNL     1      -6.349  11.018  66.050  1.00  0.00    -0.060 A  
HETATM   14  C   UNL     1      -6.255  10.034  64.922  1.00  0.00    -0.117 C  
HETATM   15  C   UNL     1      -6.507   8.615  65.417  1.00  0.00    -0.063 C  
HETATM   16  C   UNL     1      -7.901   8.251  65.889  1.00  0.00    -0.093 A  
HETATM   17  C   UNL     1      -8.152   6.864  65.992  1.00  0.00    -0.119 A  
HETATM   18  C   UNL     1      -9.383   6.369  66.410  1.00  0.00    -0.176 A  
HETATM   19  C   UNL     1     -10.397   7.255  66.732  1.00  0.00    -0.311 A  
HETATM   20  C   UNL     1     -10.166   8.629  66.644  1.00  0.00    -0.343 A  
HETATM   21  C   UNL     1      -8.923   9.163  66.233  1.00  0.00    -0.158 A  
ENDBRANCH   6   7
ENDBRANCH   5   6
ENDBRANCH   4   5
ENDBRANCH   2   4
TORSDOF 4
ENDMDL
MODEL      201
REMARK 921   NORMALIZED FREE ENERGY PREDICTED BY IDOCK:   -2.90 KCAL/MOL
REMARK 922        TOTAL FREE ENERGY PREDICTED BY IDOCK:   -3.87 KCAL/MOL
REMARK 923 INTER-LIGAND FREE ENERGY PREDICTED BY IDOCK:   -4.37 KCAL/MOL
REMARK 924 INTRA-LIGAND FREE ENERGY PREDICTED BY IDOCK:    0.50 KCAL/MOL
REMARK 927      BINDING AFFINITY PREDICTED BY RF-SCORE:    0.00 PKD
ROOT
HETATM    1  C   UNL     1     -10.766  11.434  63.735  1.00  0.00    -0.403 C  
HETATM    2  N   UNL     1     -10.354  12.514  64.637  1.00  0.00    -0.310 NA 
HETATM    3  C   UNL     1     -11.442  13.490  64.758  1.00  0.00    -0.346 C  
ENDROOT
BRANCH   2   4
HETATM    4  C   UNL     1      -9.976  12.018  65.970  1.00  0.00    -0.234 C  
BRANCH   4   5
HETATM    5  C   UNL     1      -9.044  12.944  66.758  1.00  0.00    -0.211 C  
BRANCH   5   6
HETATM    6  C   UNL     1      -9.233  12.864  68.279  1.00  0.00    -0.187 C  
BRANCH   6   7
HETATM    7  N   UNL     1     -10.500  13.519  68.697  1.00  0.00    -0.245 NA 
HETATM    8  C   UNL     1     -10.579  14.889  68.377  1.00  0.00    -0.244 A  
HETATM    9  C   UNL     1     -10.824  15.273  67.049  1.00  0.00    -0.321 A  
HETATM   10  C   UNL     1     -10.974  16.617  66.699  1.00  0.00     0.104 A  
HETATM   11  C   UNL     1     -10.854  17.601  67.673  1.00  0.00    -0.227 A  
HETATM   12  C   UNL     1     -10.606  17.239  68.995  1.00  0.00    -0.247 A  
HETATM   13  C   UNL     1     -10.477  15.886  69.355  1.00  0.00    -0.265 A  
HETATM   14  C   UNL     1     -10.298  15.507  70.796  1.00  0.00     0.209 C  
HETATM   15  C   UNL     1     -11.534  14.791  71.327  1.00  0.00    -0.257 C  
HETATM   16  C   UNL     1     -11.856  13.410  70.791  1.00  0.00    -0.065 A  
HETATM   17  C   UNL     1     -12.782  12.673  71.563  1.00  0.00    -0.326 A  
HETATM   18  C   UNL     1     -13.179  11.388  71.204  1.00  0.00    -0.049 A  
HETATM   19  C   UNL     1     -12.653  10.809  70.062  1.00  0.00    -0.247 A  
HETATM   20  C   UNL     1     -11.743  11.524  69.282  1.00  0.00    -0.397 A  
HETATM   21  C   UNL     1     -11.328  12.835  69.614  1.00  0.00    -0.099 A  
ENDBRANCH   6   7
ENDBRANCH   5   6
ENDBRANCH   4   5
ENDBRANCH   2   4
TORSDOF 4
ENDMDL
MODEL      202
REMARK 921   NORMALIZED FREE ENERGY PREDICTED BY IDOCK:   -2.87 KCAL/MOL
REMARK 922        TOTAL FREE ENERGY PREDICTED BY IDOCK:   -3.84 KCAL/MOL
REMARK 923 INTER-LIGAND FREE ENERGY PREDICTED BY IDOCK:   -4.32 KCAL/MOL
REMARK 924 INTRA-LIGAND FREE ENERGY PREDICTED BY IDOCK:    0.48 KCAL/MOL
REMARK 927      BINDING AFFINITY PREDICTED BY RF-SCORE:    0.00 PKD
ROOT
HETATM    1  C   UNL     1     -12.174  13.348  70.598  1.00  0.00    -0.350 C  
HETATM    2  N   UNL     1     -12.416  14.517  69.747  1.00  0.00    -0.270 NA 
HETATM    3  C   UNL     1     -12.598  15.703  70.589  1.00  0.00    -0.414 C  
ENDROOT
BRANCH   2   4
HETATM    4  C   UNL     1     -11.323  14.748  68.788  1.00  0.00    -0.282 C  
BRANCH   4   5
HETATM    5  C   UNL     1     -11.431  13.945  67.489  1.00  0.00    -0.368 C  
BRANCH   5   6
HETATM    6  C   UNL     1     -10.074  13.540  66.896  1.00  0.00    -0.256 C  
BRANCH   6   7
HETATM    7  N   UNL     1      -9.195  12.936  67.932  1.00  0.00    -0.200 NA 
HETATM    8  C   UNL     1      -8.031  13.679  68.212  1.00  0.00    -0.150 A  
HETATM    9  C   UNL     1      -8.130  14.849  68.982  1.00  0.00    -0.165 A  
HETATM   10  C   UNL     1      -6.994  15.581  69.337  1.00  0.00    -0.187 A  
HETATM   11  C   UNL     1      -5.741  15.166  68.901  1.00  0.00    -0.094 A  
HETATM   12  C   UNL     1      -5.625  14.011  68.131  1.00  0.00    -0.123 A  
HETATM   13  C   UNL     1      -6.763  13.259  67.791  1.00  0.00    -0.154 A  
HETATM   14  C   UNL     1      -6.614  11.970  67.037  1.00  0.00    -0.108 C  
HETATM   15  C   UNL     1      -6.970  10.780  67.919  1.00  0.00    -0.073 C  
HETATM   16  C   UNL     1      -8.414  10.601  68.344  1.00  0.00    -0.132 A  
HETATM   17  C   UNL     1      -8.732   9.318  68.846  1.00  0.00    -0.131 A  
HETATM   18  C   UNL     1     -10.016   8.996  69.276  1.00  0.00    -0.188 A  
HETATM   19  C   UNL     1     -11.014   9.952  69.210  1.00  0.00    -0.244 A  
HETATM   20  C   UNL     1     -10.717  11.227  68.724  1.00  0.00    -0.240 A  
HETATM   21  C   UNL     1      -9.421  11.589  68.290  1.00  0.00    -0.189 A  
ENDBRANCH   6   7
ENDBRANCH   5   6
ENDBRANCH   4   5
ENDBRANCH   2   4
TORSDOF 4
ENDMDL
MODEL      203
REMARK 921   NORMALIZED FREE ENERGY PREDICTED BY IDOCK:   -2.86 KCAL/MOL
REMARK 922        TOTAL FREE ENERGY PREDICTED BY IDOCK:   -3.83 KCAL/MOL
REMARK 923 INTER-LIGAND FREE ENERGY PREDICTED BY IDOCK:   -3.63 KCAL/MOL
REMARK 924 INTRA-LIGAND FREE ENERGY PREDICTED BY IDOCK:   -0.20 KCAL/MOL
REMARK 927      BINDING AFFINITY PREDICTED BY RF-SCORE:    0.00 PKD
ROOT
HETATM    1  C   UNL     1     -11.072   5.574  73.077  1.00  0.00    -0.300 C  
HETATM    2  N   UNL     1     -11.823   6.687  72.490  1.00  0.00    -0.175 NA 
HETATM    3  C   UNL     1     -11.140   7.949  72.792  1.00  0.00    -0.400 C  
ENDROOT
BRANCH   2   4
HETATM    4  C   UNL     1     -11.992   6.545  71.034  1.00  0.00    -0.297 C  
BRANCH   4   5
HETATM    5  C   UNL     1     -10.683   6.431  70.247  1.00  0.00    -0.322 C  
BRANCH   5   6
HETATM    6  C   UNL     1     -10.801   6.874  68.782  1.00  0.00    -0.192 C  
BRANCH   6   7
HETATM    7  N   UNL     1      -9.475   6.866  68.111  1.00  0.00    -0.123 NA 
HETATM    8  C   UNL     1      -8.734   8.054  68.275  1.00  0.00    -0.130 A  
HETATM    9  C   UNL     1      -8.106   8.308  69.505  1.00  0.00    -0.114 A  
HETATM   10  C   UNL     1      -7.310   9.441  69.691  1.00  0.00    -0.077 A  
HETATM   11  C   UNL     1      -7.151  10.352  68.654  1.00  0.00    -0.076 A  
HETATM   12  C   UNL     1      -7.771  10.118  67.428  1.00  0.00    -0.095 A  
HETATM   13  C   UNL     1      -8.555   8.968  67.229  1.00  0.00    -0.115 A  
HETATM   14  C   UNL     1      -9.144   8.684  65.879  1.00  0.00    -0.259 C  
HETATM   15  C   UNL     1      -8.479   7.472  65.239  1.00  0.00    -0.075 C  
HETATM   16  C   UNL     1      -8.718   6.108  65.856  1.00  0.00    -0.158 A  
HETATM   17  C   UNL     1      -8.377   5.013  65.029  1.00  0.00    -0.140 A  
HETATM   18  C   UNL     1      -8.539   3.696  65.450  1.00  0.00    -0.112 A  
HETATM   19  C   UNL     1      -9.051   3.445  66.712  1.00  0.00    -0.183 A  
HETATM   20  C   UNL     1      -9.386   4.513  67.546  1.00  0.00    -0.172 A  
HETATM   21  C   UNL     1      -9.223   5.862  67.152  1.00  0.00    -0.116 A  
ENDBRANCH   6   7
ENDBRANCH   5   6
ENDBRANCH   4   5
ENDBRANCH   2   4
TORSDOF 4
ENDMDL
MODEL      204
REMARK 921   NORMALIZED FREE ENERGY PREDICTED BY IDOCK:   -2.85 KCAL/MOL
REMARK 922        TOTAL FREE ENERGY PREDICTED BY IDOCK:   -3.81 KCAL/MOL
REMARK 923 INTER-LIGAND FREE ENERGY PREDICTED BY IDOCK:   -3.15 KCAL/MOL
REMARK 924 INTRA-LIGAND FREE ENERGY PREDICTED BY IDOCK:   -0.66 KCAL/MOL
REMARK 927      BINDING AFFINITY PREDICTED BY RF-SCORE:    0.00 PKD
ROOT
HETATM    1  C   UNL     1     -11.609   8.566  71.108  1.00  0.00    -0.281 C  
HETATM    2  N   UNL     1     -10.597   9.310  70.352  1.00  0.00    -0.229 NA 
HETATM    3  C   UNL     1      -9.265   8.985  70.870  1.00  0.00    -0.259 C  
ENDROOT
BRANCH   2   4
HETATM    4  C   UNL     1     -10.655   9.025  68.908  1.00  0.00    -0.180 C  
BRANCH   4   5
HETATM    5  C   UNL     1     -10.775   7.540  68.552  1.00  0.00    -0.115 C  
BRANCH   5   6
HETATM    6  C   UNL     1     -10.798   7.265  67.043  1.00  0.00    -0.280 C  
BRANCH   6   7
HETATM    7  N   UNL     1      -9.451   6.874  66.548  1.00  0.00    -0.169 NA 
HETATM    8  C   UNL     1      -9.179   5.494  66.636  1.00  0.00    -0.135 A  
HETATM    9  C   UNL     1      -9.769   4.616  65.713  1.00  0.00    -0.206 A  
HETATM   10  C   UNL     1      -9.476   3.250  65.723  1.00  0.00    -0.091 A  
HETATM   11  C   UNL     1      -8.607   2.737  66.679  1.00  0.00    -0.113 A  
HETATM   12  C   UNL     1      -8.016   3.593  67.606  1.00  0.00    -0.081 A  
HETATM   13  C   UNL     1      -8.290   4.972  67.584  1.00  0.00    -0.105 A  
HETATM   14  C   UNL     1      -7.580   5.894  68.532  1.00  0.00    -0.090 C  
HETATM   15  C   UNL     1      -6.611   6.800  67.784  1.00  0.00    -0.058 C  
HETATM   16  C   UNL     1      -7.178   7.858  66.858  1.00  0.00    -0.089 A  
HETATM   17  C   UNL     1      -6.267   8.872  66.483  1.00  0.00    -0.061 A  
HETATM   18  C   UNL     1      -6.636   9.915  65.639  1.00  0.00    -0.093 A  
HETATM   19  C   UNL     1      -7.931   9.969  65.152  1.00  0.00    -0.145 A  
HETATM   20  C   UNL     1      -8.843   8.972  65.504  1.00  0.00    -0.233 A  
HETATM   21  C   UNL     1      -8.496   7.894  66.351  1.00  0.00    -0.138 A  
ENDBRANCH   6   7
ENDBRANCH   5   6
ENDBRANCH   4   5
ENDBRANCH   2   4
TORSDOF 4
ENDMDL
MODEL      205
REMARK 921   NORMALIZED FREE ENERGY PREDICTED BY IDOCK:   -2.78 KCAL/MOL
REMARK 922        TOTAL FREE ENERGY PREDICTED BY IDOCK:   -3.73 KCAL/MOL
REMARK 923 INTER-LIGAND FREE ENERGY PREDICTED BY IDOCK:   -3.16 KCAL/MOL
REMARK 924 INTRA-LIGAND FREE ENERGY PREDICTED BY IDOCK:   -0.57 KCAL/MOL
REMARK 927      BINDING AFFINITY PREDICTED BY RF-SCORE:    0.00 PKD
ROOT
HETATM    1  C   UNL     1      -7.432  10.216  66.822  1.00  0.00    -0.104 C  
HETATM    2  N   UNL     1      -7.849   9.109  65.956  1.00  0.00    -0.101 NA 
HETATM    3  C   UNL     1      -7.286   9.300  64.616  1.00  0.00    -0.100 C  
ENDROOT
BRANCH   2   4
HETATM    4  C   UNL     1      -7.442   7.798  66.487  1.00  0.00    -0.088 C  
BRANCH   4   5
HETATM    5  C   UNL     1      -7.533   7.668  68.010  1.00  0.00    -0.104 C  
BRANCH   5   6
HETATM    6  C   UNL     1      -8.401   6.492  68.481  1.00  0.00    -0.121 C  
BRANCH   6   7
HETATM    7  N   UNL     1      -9.477   6.953  69.396  1.00  0.00    -0.149 NA 
HETATM    8  C   UNL     1      -9.965   8.246  69.116  1.00  0.00    -0.196 A  
HETATM    9  C   UNL     1     -10.821   8.435  68.019  1.00  0.00    -0.013 A  
HETATM   10  C   UNL     1     -11.378   9.686  67.743  1.00  0.00     0.296 A  
HETATM   11  C   UNL     1     -11.063  10.775  68.547  1.00  0.00    -0.317 A  
HETATM   12  C   UNL     1     -10.211  10.606  69.636  1.00  0.00    -0.156 A  
HETATM   13  C   UNL     1      -9.666   9.344  69.931  1.00  0.00    -0.236 A  
HETATM   14  C   UNL     1      -8.821   9.159  71.158  1.00  0.00    -0.233 C  
HETATM   15  C   UNL     1      -9.541   8.297  72.188  1.00  0.00    -0.338 C  
HETATM   16  C   UNL     1      -9.767   6.832  71.873  1.00  0.00    -0.160 A  
HETATM   17  C   UNL     1     -10.107   6.029  72.986  1.00  0.00    -0.195 A  
HETATM   18  C   UNL     1     -10.344   4.664  72.862  1.00  0.00    -0.242 A  
HETATM   19  C   UNL     1     -10.243   4.068  71.616  1.00  0.00    -0.110 A  
HETATM   20  C   UNL     1      -9.917   4.845  70.504  1.00  0.00    -0.311 A  
HETATM   21  C   UNL     1      -9.680   6.237  70.595  1.00  0.00    -0.176 A  
ENDBRANCH   6   7
ENDBRANCH   5   6
ENDBRANCH   4   5
ENDBRANCH   2   4
TORSDOF 4
ENDMDL
MODEL      206
REMARK 921   NORMALIZED FREE ENERGY PREDICTED BY IDOCK:   -2.78 KCAL/MOL
REMARK 922        TOTAL FREE ENERGY PREDICTED BY IDOCK:   -3.72 KCAL/MOL
REMARK 923 INTER-LIGAND FREE ENERGY PREDICTED BY IDOCK:   -3.50 KCAL/MOL
REMARK 924 INTRA-LIGAND FREE ENERGY PREDICTED BY IDOCK:   -0.22 KCAL/MOL
REMARK 927      BINDING AFFINITY PREDICTED BY RF-SCORE:    0.00 PKD
ROOT
HETATM    1  C   UNL     1      -6.235  12.045  68.150  1.00  0.00    -0.053 C  
HETATM    2  N   UNL     1      -7.457  11.260  67.953  1.00  0.00    -0.091 NA 
HETATM    3  C   UNL     1      -8.593  12.167  67.756  1.00  0.00    -0.164 C  
ENDROOT
BRANCH   2   4
HETATM    4  C   UNL     1      -7.352  10.335  66.812  1.00  0.00    -0.106 C  
BRANCH   4   5
HETATM    5  C   UNL     1      -7.164   8.864  67.196  1.00  0.00    -0.083 C  
BRANCH   5   6
HETATM    6  C   UNL     1      -6.987   8.635  68.704  1.00  0.00    -0.064 C  
BRANCH   6   7
HETATM    7  N   UNL     1      -8.101   7.820  69.256  1.00  0.00    -0.125 NA 
HETATM    8  C   UNL     1      -8.868   7.149  68.282  1.00  0.00    -0.127 A  
HETATM    9  C   UNL     1      -8.344   6.006  67.660  1.00  0.00    -0.108 A  
HETATM   10  C   UNL     1      -9.095   5.275  66.737  1.00  0.00    -0.118 A  
HETATM   11  C   UNL     1     -10.377   5.695  66.402  1.00  0.00    -0.241 A  
HETATM   12  C   UNL     1     -10.911   6.831  67.006  1.00  0.00    -0.439 A  
HETATM   13  C   UNL     1     -10.167   7.556  67.953  1.00  0.00    -0.245 A  
HETATM   14  C   UNL     1     -10.788   8.726  68.660  1.00  0.00    -0.018 C  
HETATM   15  C   UNL     1     -11.013   8.412  70.134  1.00  0.00    -0.216 C  
HETATM   16  C   UNL     1      -9.802   8.250  71.031  1.00  0.00    -0.225 A  
HETATM   17  C   UNL     1     -10.075   8.317  72.417  1.00  0.00    -0.383 A  
HETATM   18  C   UNL     1      -9.069   8.188  73.370  1.00  0.00    -0.309 A  
HETATM   19  C   UNL     1      -7.763   7.993  72.957  1.00  0.00    -0.189 A  
HETATM   20  C   UNL     1      -7.474   7.917  71.593  1.00  0.00    -0.073 A  
HETATM   21  C   UNL     1      -8.475   8.033  70.600  1.00  0.00    -0.125 A  
ENDBRANCH   6   7
ENDBRANCH   5   6
ENDBRANCH   4   5
ENDBRANCH   2   4
TORSDOF 4
ENDMDL
MODEL      207
REMARK 921   NORMALIZED FREE ENERGY PREDICTED BY IDOCK:   -2.76 KCAL/MOL
REMARK 922        TOTAL FREE ENERGY PREDICTED BY IDOCK:   -3.70 KCAL/MOL
REMARK 923 INTER-LIGAND FREE ENERGY PREDICTED BY IDOCK:   -3.91 KCAL/MOL
REMARK 924 INTRA-LIGAND FREE ENERGY PREDICTED BY IDOCK:    0.21 KCAL/MOL
REMARK 927      BINDING AFFINITY PREDICTED BY RF-SCORE:    0.00 PKD
ROOT
HETATM    1  C   UNL     1      -7.730   8.349  68.840  1.00  0.00    -0.105 C  
HETATM    2  N   UNL     1      -6.729   9.108  69.597  1.00  0.00    -0.045 NA 
HETATM    3  C   UNL     1      -5.512   8.303  69.739  1.00  0.00    -0.026 C  
ENDROOT
BRANCH   2   4
HETATM    4  C   UNL     1      -6.406  10.397  68.964  1.00  0.00    -0.044 C  
BRANCH   4   5
HETATM    5  C   UNL     1      -7.344  10.804  67.823  1.00  0.00    -0.093 C  
BRANCH   5   6
HETATM    6  C   UNL     1      -7.069  12.207  67.265  1.00  0.00    -0.144 C  
BRANCH   6   7
HETATM    7  N   UNL     1      -8.222  13.114  67.501  1.00  0.00    -0.171 NA 
HETATM    8  C   UNL     1      -9.434  12.451  67.784  1.00  0.00    -0.199 A  
HETATM    9  C   UNL     1      -9.627  11.881  69.052  1.00  0.00     0.192 A  
HETATM   10  C   UNL     1     -10.836  11.272  69.395  1.00  0.00    -0.239 A  
HETATM   11  C   UNL     1     -11.863  11.200  68.462  1.00  0.00    -0.330 A  
HETATM   12  C   UNL     1     -11.687  11.756  67.196  1.00  0.00    -0.267 A  
HETATM   13  C   UNL     1     -10.480  12.391  66.854  1.00  0.00    -0.243 A  
HETATM   14  C   UNL     1     -10.336  13.062  65.520  1.00  0.00    -0.304 C  
HETATM   15  C   UNL     1     -10.258  14.575  65.678  1.00  0.00    -0.379 C  
HETATM   16  C   UNL     1      -9.030  15.170  66.339  1.00  0.00    -0.314 A  
HETATM   17  C   UNL     1      -8.859  16.559  66.137  1.00  0.00    -0.342 A  
HETATM   18  C   UNL     1      -7.781  17.252  66.677  1.00  0.00    -0.298 A  
HETATM   19  C   UNL     1      -6.843  16.568  67.432  1.00  0.00    -0.191 A  
HETATM   20  C   UNL     1      -6.999  15.198  67.649  1.00  0.00    -0.206 A  
HETATM   21  C   UNL     1      -8.089  14.467  67.123  1.00  0.00    -0.168 A  
ENDBRANCH   6   7
ENDBRANCH   5   6
ENDBRANCH   4   5
ENDBRANCH   2   4
TORSDOF 4
ENDMDL
MODEL      208
REMARK 921   NORMALIZED FREE ENERGY PREDICTED BY IDOCK:   -2.76 KCAL/MOL
REMARK 922        TOTAL FREE ENERGY PREDICTED BY IDOCK:   -3.70 KCAL/MOL
REMARK 923 INTER-LIGAND FREE ENERGY PREDICTED BY IDOCK:   -3.03 KCAL/MOL
REMARK 924 INTRA-LIGAND FREE ENERGY PREDICTED BY IDOCK:   -0.67 KCAL/MOL
REMARK 927      BINDING AFFINITY PREDICTED BY RF-SCORE:    0.00 PKD
ROOT
HETATM    1  C   UNL     1      -6.519  14.301  68.610  1.00  0.00    -0.089 C  
HETATM    2  N   UNL     1      -6.684  13.161  67.704  1.00  0.00    -0.151 NA 
HETATM    3  C   UNL     1      -5.625  12.178  67.959  1.00  0.00    -0.060 C  
ENDROOT
BRANCH   2   4
HETATM    4  C   UNL     1      -8.003  12.521  67.842  1.00  0.00    -0.157 C  
BRANCH   4   5
HETATM    5  C   UNL     1      -8.030  11.029  67.499  1.00  0.00    -0.116 C  
BRANCH   5   6
HETATM    6  C   UNL     1      -9.367  10.551  66.917  1.00  0.00    -0.159 C  
BRANCH   6   7
HETATM    7  N   UNL     1      -9.187   9.326  66.094  1.00  0.00    -0.180 NA 
HETATM    8  C   UNL     1      -9.504   8.126  66.762  1.00  0.00    -0.198 A  
HETATM    9  C   UNL     1     -10.851   7.787  66.965  1.00  0.00    -0.176 A  
HETATM   10  C   UNL     1     -11.211   6.577  67.565  1.00  0.00    -0.288 A  
HETATM   11  C   UNL     1     -10.223   5.699  67.996  1.00  0.00    -0.234 A  
HETATM   12  C   UNL     1      -8.881   6.022  67.807  1.00  0.00    -0.106 A  
HETATM   13  C   UNL     1      -8.515   7.228  67.183  1.00  0.00    -0.118 A  
HETATM   14  C   UNL     1      -7.070   7.522  66.907  1.00  0.00    -0.084 C  
HETATM   15  C   UNL     1      -6.785   7.491  65.410  1.00  0.00    -0.045 C  
HETATM   16  C   UNL     1      -7.384   8.577  64.538  1.00  0.00    -0.093 A  
HETATM   17  C   UNL     1      -6.805   8.696  63.254  1.00  0.00    -0.089 A  
HETATM   18  C   UNL     1      -7.243   9.646  62.336  1.00  0.00    -0.113 A  
HETATM   19  C   UNL     1      -8.272  10.503  62.686  1.00  0.00    -0.192 A  
HETATM   20  C   UNL     1      -8.862  10.396  63.947  1.00  0.00    -0.222 A  
HETATM   21  C   UNL     1      -8.447   9.435  64.897  1.00  0.00    -0.163 A  
ENDBRANCH   6   7
ENDBRANCH   5   6
ENDBRANCH   4   5
ENDBRANCH   2   4
TORSDOF 4
ENDMDL
MODEL      209
REMARK 921   NORMALIZED FREE ENERGY PREDICTED BY IDOCK:   -2.74 KCAL/MOL
REMARK 922        TOTAL FREE ENERGY PREDICTED BY IDOCK:   -3.67 KCAL/MOL
REMARK 923 INTER-LIGAND FREE ENERGY PREDICTED BY IDOCK:   -3.37 KCAL/MOL
REMARK 924 INTRA-LIGAND FREE ENERGY PREDICTED BY IDOCK:   -0.30 KCAL/MOL
REMARK 927      BINDING AFFINITY PREDICTED BY RF-SCORE:    0.00 PKD
ROOT
HETATM    1  C   UNL     1      -9.485  11.148  62.858  1.00  0.00    -0.359 C  
HETATM    2  N   UNL     1     -10.081  11.686  64.085  1.00  0.00    -0.275 NA 
HETATM    3  C   UNL     1     -11.482  12.039  63.832  1.00  0.00    -0.435 C  
ENDROOT
BRANCH   2   4
HETATM    4  C   UNL     1      -9.999  10.740  65.210  1.00  0.00    -0.282 C  
BRANCH   4   5
HETATM    5  C   UNL     1      -9.006  11.135  66.307  1.00  0.00    -0.202 C  
BRANCH   5   6
HETATM    6  C   UNL     1      -8.825  12.651  66.462  1.00  0.00    -0.062 C  
BRANCH   6   7
HETATM    7  N   UNL     1      -8.892  13.056  67.891  1.00  0.00    -0.183 NA 
HETATM    8  C   UNL     1     -10.142  13.572  68.290  1.00  0.00    -0.247 A  
HETATM    9  C   UNL     1     -11.217  12.692  68.492  1.00  0.00    -0.315 A  
HETATM   10  C   UNL     1     -12.454  13.154  68.950  1.00  0.00     0.313 A  
HETATM   11  C   UNL     1     -12.641  14.510  69.186  1.00  0.00     0.153 A  
HETATM   12  C   UNL     1     -11.586  15.398  68.985  1.00  0.00    -0.361 A  
HETATM   13  C   UNL     1     -10.333  14.936  68.547  1.00  0.00    -0.237 A  
HETATM   14  C   UNL     1      -9.183  15.890  68.420  1.00  0.00    -0.197 C  
HETATM   15  C   UNL     1      -8.121  15.605  69.474  1.00  0.00    -0.174 C  
HETATM   16  C   UNL     1      -7.329  14.317  69.373  1.00  0.00    -0.011 A  
HETATM   17  C   UNL     1      -6.148  14.282  70.149  1.00  0.00    -0.160 A  
HETATM   18  C   UNL     1      -5.310  13.170  70.162  1.00  0.00    -0.107 A  
HETATM   19  C   UNL     1      -5.636  12.066  69.393  1.00  0.00    -0.069 A  
HETATM   20  C   UNL     1      -6.803  12.079  68.626  1.00  0.00    -0.091 A  
HETATM   21  C   UNL     1      -7.679  13.188  68.600  1.00  0.00    -0.073 A  
ENDBRANCH   6   7
ENDBRANCH   5   6
ENDBRANCH   4   5
ENDBRANCH   2   4
TORSDOF 4
ENDMDL
MODEL      210
REMARK 921   NORMALIZED FREE ENERGY PREDICTED BY IDOCK:   -2.73 KCAL/MOL
REMARK 922        TOTAL FREE ENERGY PREDICTED BY IDOCK:   -3.66 KCAL/MOL
REMARK 923 INTER-LIGAND FREE ENERGY PREDICTED BY IDOCK:   -3.63 KCAL/MOL
REMARK 924 INTRA-LIGAND FREE ENERGY PREDICTED BY IDOCK:   -0.03 KCAL/MOL
REMARK 927      BINDING AFFINITY PREDICTED BY RF-SCORE:    0.00 PKD
ROOT
HETATM    1  C   UNL     1     -10.661   1.597  74.047  1.00  0.00    -0.124 C  
HETATM    2  N   UNL     1     -10.418   2.819  73.275  1.00  0.00    -0.145 NA 
HETATM    3  C   UNL     1     -10.962   3.971  74.002  1.00  0.00    -0.166 C  
ENDROOT
BRANCH   2   4
HETATM    4  C   UNL     1      -8.988   3.033  72.999  1.00  0.00    -0.086 C  
BRANCH   4   5
HETATM    5  C   UNL     1      -8.689   3.703  71.654  1.00  0.00    -0.124 C  
BRANCH   5   6
HETATM    6  C   UNL     1      -9.899   4.416  71.035  1.00  0.00    -0.190 C  
BRANCH   6   7
HETATM    7  N   UNL     1      -9.595   5.845  70.757  1.00  0.00    -0.168 NA 
HETATM    8  C   UNL     1      -9.661   6.198  69.394  1.00  0.00    -0.145 A  
HETATM    9  C   UNL     1     -10.916   6.349  68.783  1.00  0.00    -0.404 A  
HETATM   10  C   UNL     1     -11.028   6.760  67.453  1.00  0.00    -0.407 A  
HETATM   11  C   UNL     1      -9.882   7.001  66.705  1.00  0.00    -0.223 A  
HETATM   12  C   UNL     1      -8.628   6.850  67.294  1.00  0.00    -0.120 A  
HETATM   13  C   UNL     1      -8.511   6.459  68.639  1.00  0.00    -0.123 A  
HETATM   14  C   UNL     1      -7.159   6.387  69.285  1.00  0.00    -0.080 C  
HETATM   15  C   UNL     1      -6.998   7.481  70.333  1.00  0.00    -0.052 C  
HETATM   16  C   UNL     1      -7.832   7.400  71.597  1.00  0.00    -0.087 A  
HETATM   17  C   UNL     1      -7.388   8.222  72.657  1.00  0.00    -0.141 A  
HETATM   18  C   UNL     1      -8.045   8.259  73.883  1.00  0.00    -0.266 A  
HETATM   19  C   UNL     1      -9.165   7.468  74.077  1.00  0.00    -0.279 A  
HETATM   20  C   UNL     1      -9.623   6.655  73.039  1.00  0.00    -0.162 A  
HETATM   21  C   UNL     1      -8.984   6.603  71.779  1.00  0.00    -0.140 A  
ENDBRANCH   6   7
ENDBRANCH   5   6
ENDBRANCH   4   5
ENDBRANCH   2   4
TORSDOF 4
ENDMDL
MODEL      211
REMARK 921   NORMALIZED FREE ENERGY PREDICTED BY IDOCK:   -2.71 KCAL/MOL
REMARK 922        TOTAL FREE ENERGY PREDICTED BY IDOCK:   -3.64 KCAL/MOL
REMARK 923 INTER-LIGAND FREE ENERGY PREDICTED BY IDOCK:   -3.02 KCAL/MOL
REMARK 924 INTRA-LIGAND FREE ENERGY PREDICTED BY IDOCK:   -0.62 KCAL/MOL
REMARK 927      BINDING AFFINITY PREDICTED BY RF-SCORE:    0.00 PKD
ROOT
HETATM    1  C   UNL     1      -9.821  10.852  63.317  1.00  0.00    -0.365 C  
HETATM    2  N   UNL     1      -8.962  10.069  64.209  1.00  0.00    -0.215 NA 
HETATM    3  C   UNL     1      -7.570  10.174  63.761  1.00  0.00    -0.133 C  
ENDROOT
BRANCH   2   4
HETATM    4  C   UNL     1      -9.069  10.502  65.613  1.00  0.00    -0.182 C  
BRANCH   4   5
HETATM    5  C   UNL     1      -8.158   9.748  66.586  1.00  0.00    -0.116 C  
BRANCH   5   6
HETATM    6  C   UNL     1      -8.722   9.648  68.011  1.00  0.00    -0.119 C  
BRANCH   6   7
HETATM    7  N   UNL     1      -8.499   8.293  68.582  1.00  0.00    -0.125 NA 
HETATM    8  C   UNL     1      -7.547   8.251  69.621  1.00  0.00    -0.094 A  
HETATM    9  C   UNL     1      -7.897   8.727  70.894  1.00  0.00    -0.137 A  
HETATM   10  C   UNL     1      -7.007   8.645  71.968  1.00  0.00    -0.081 A  
HETATM   11  C   UNL     1      -5.739   8.108  71.775  1.00  0.00    -0.036 A  
HETATM   12  C   UNL     1      -5.373   7.636  70.516  1.00  0.00    -0.023 A  
HETATM   13  C   UNL     1      -6.274   7.696  69.438  1.00  0.00    -0.034 A  
HETATM   14  C   UNL     1      -5.899   7.104  68.112  1.00  0.00    -0.022 C  
HETATM   15  C   UNL     1      -6.734   5.865  67.813  1.00  0.00    -0.058 C  
HETATM   16  C   UNL     1      -8.216   6.040  67.546  1.00  0.00    -0.106 A  
HETATM   17  C   UNL     1      -8.846   4.930  66.938  1.00  0.00    -0.106 A  
HETATM   18  C   UNL     1     -10.203   4.935  66.627  1.00  0.00    -0.291 A  
HETATM   19  C   UNL     1     -10.961   6.057  66.915  1.00  0.00    -0.350 A  
HETATM   20  C   UNL     1     -10.358   7.160  67.523  1.00  0.00    -0.303 A  
HETATM   21  C   UNL     1      -8.985   7.182  67.861  1.00  0.00    -0.122 A  
ENDBRANCH   6   7
ENDBRANCH   5   6
ENDBRANCH   4   5
ENDBRANCH   2   4
TORSDOF 4
ENDMDL
MODEL      212
REMARK 921   NORMALIZED FREE ENERGY PREDICTED BY IDOCK:   -2.70 KCAL/MOL
REMARK 922        TOTAL FREE ENERGY PREDICTED BY IDOCK:   -3.63 KCAL/MOL
REMARK 923 INTER-LIGAND FREE ENERGY PREDICTED BY IDOCK:   -3.55 KCAL/MOL
REMARK 924 INTRA-LIGAND FREE ENERGY PREDICTED BY IDOCK:   -0.08 KCAL/MOL
REMARK 927      BINDING AFFINITY PREDICTED BY RF-SCORE:    0.00 PKD
ROOT
HETATM    1  C   UNL     1     -11.233  10.264  69.998  1.00  0.00    -0.311 C  
HETATM    2  N   UNL     1     -10.746   9.298  69.009  1.00  0.00    -0.201 NA 
HETATM    3  C   UNL     1      -9.859   9.978  68.059  1.00  0.00    -0.142 C  
ENDROOT
BRANCH   2   4
HETATM    4  C   UNL     1     -10.039   8.167  69.631  1.00  0.00    -0.199 C  
BRANCH   4   5
HETATM    5  C   UNL     1     -10.889   6.906  69.819  1.00  0.00    -0.295 C  
BRANCH   5   6
HETATM    6  C   UNL     1     -10.677   6.212  71.171  1.00  0.00    -0.256 C  
BRANCH   6   7
HETATM    7  N   UNL     1      -9.410   5.436  71.184  1.00  0.00    -0.148 NA 
HETATM    8  C   UNL     1      -9.441   4.260  70.407  1.00  0.00    -0.174 A  
HETATM    9  C   UNL     1      -9.364   4.358  69.008  1.00  0.00    -0.219 A  
HETATM   10  C   UNL     1      -9.327   3.216  68.204  1.00  0.00    -0.247 A  
HETATM   11  C   UNL     1      -9.394   1.957  68.788  1.00  0.00    -0.221 A  
HETATM   12  C   UNL     1      -9.477   1.842  70.174  1.00  0.00    -0.138 A  
HETATM   13  C   UNL     1      -9.491   2.988  70.988  1.00  0.00    -0.228 A  
HETATM   14  C   UNL     1      -9.491   2.847  72.482  1.00  0.00    -0.168 C  
HETATM   15  C   UNL     1      -8.168   3.317  73.073  1.00  0.00    -0.080 C  
HETATM   16  C   UNL     1      -7.831   4.793  73.007  1.00  0.00    -0.097 A  
HETATM   17  C   UNL     1      -6.787   5.204  73.867  1.00  0.00    -0.076 A  
HETATM   18  C   UNL     1      -6.361   6.528  73.925  1.00  0.00    -0.065 A  
HETATM   19  C   UNL     1      -6.975   7.474  73.123  1.00  0.00    -0.075 A  
HETATM   20  C   UNL     1      -8.003   7.086  72.261  1.00  0.00    -0.092 A  
HETATM   21  C   UNL     1      -8.451   5.748  72.172  1.00  0.00    -0.122 A  
ENDBRANCH   6   7
ENDBRANCH   5   6
ENDBRANCH   4   5
ENDBRANCH   2   4
TORSDOF 4
ENDMDL
MODEL      213
REMARK 921   NORMALIZED FREE ENERGY PREDICTED BY IDOCK:   -2.66 KCAL/MOL
REMARK 922        TOTAL FREE ENERGY PREDICTED BY IDOCK:   -3.58 KCAL/MOL
REMARK 923 INTER-LIGAND FREE ENERGY PREDICTED BY IDOCK:   -3.54 KCAL/MOL
REMARK 924 INTRA-LIGAND FREE ENERGY PREDICTED BY IDOCK:   -0.04 KCAL/MOL
REMARK 927      BINDING AFFINITY PREDICTED BY RF-SCORE:    0.00 PKD
ROOT
HETATM    1  C   UNL     1     -10.445   6.086  73.747  1.00  0.00    -0.275 C  
HETATM    2  N   UNL     1     -10.008   7.483  73.669  1.00  0.00    -0.316 NA 
HETATM    3  C   UNL     1      -8.543   7.535  73.644  1.00  0.00    -0.196 C  
ENDROOT
BRANCH   2   4
HETATM    4  C   UNL     1     -10.552   8.176  72.489  1.00  0.00    -0.340 C  
BRANCH   4   5
HETATM    5  C   UNL     1      -9.684   8.076  71.231  1.00  0.00    -0.199 C  
BRANCH   5   6
HETATM    6  C   UNL     1      -9.936   9.198  70.214  1.00  0.00    -0.208 C  
BRANCH   6   7
HETATM    7  N   UNL     1      -8.907   9.191  69.141  1.00  0.00    -0.143 NA 
HETATM    8  C   UNL     1      -8.093  10.342  69.109  1.00  0.00    -0.138 A  
HETATM    9  C   UNL     1      -7.084  10.498  70.073  1.00  0.00    -0.133 A  
HETATM   10  C   UNL     1      -6.214  11.590  70.039  1.00  0.00    -0.142 A  
HETATM   11  C   UNL     1      -6.360  12.560  69.054  1.00  0.00    -0.092 A  
HETATM   12  C   UNL     1      -7.360  12.424  68.094  1.00  0.00    -0.111 A  
HETATM   13  C   UNL     1      -8.223  11.314  68.110  1.00  0.00    -0.140 A  
HETATM   14  C   UNL     1      -9.237  11.135  67.019  1.00  0.00    -0.172 C  
HETATM   15  C   UNL     1      -8.882   9.945  66.136  1.00  0.00    -0.163 C  
HETATM   16  C   UNL     1      -8.974   8.553  66.729  1.00  0.00    -0.173 A  
HETATM   17  C   UNL     1      -8.981   7.503  65.783  1.00  0.00    -0.077 A  
HETATM   18  C   UNL     1      -9.062   6.168  66.169  1.00  0.00    -0.158 A  
HETATM   19  C   UNL     1      -9.142   5.854  67.514  1.00  0.00    -0.106 A  
HETATM   20  C   UNL     1      -9.129   6.877  68.464  1.00  0.00    -0.127 A  
HETATM   21  C   UNL     1      -9.036   8.242  68.105  1.00  0.00    -0.134 A  
ENDBRANCH   6   7
ENDBRANCH   5   6
ENDBRANCH   4   5
ENDBRANCH   2   4
TORSDOF 4
ENDMDL
MODEL      214
REMARK 921   NORMALIZED FREE ENERGY PREDICTED BY IDOCK:   -2.65 KCAL/MOL
REMARK 922        TOTAL FREE ENERGY PREDICTED BY IDOCK:   -3.56 KCAL/MOL
REMARK 923 INTER-LIGAND FREE ENERGY PREDICTED BY IDOCK:   -3.66 KCAL/MOL
REMARK 924 INTRA-LIGAND FREE ENERGY PREDICTED BY IDOCK:    0.10 KCAL/MOL
REMARK 927      BINDING AFFINITY PREDICTED BY RF-SCORE:    0.00 PKD
ROOT
HETATM    1  C   UNL     1     -12.163   6.113  72.303  1.00  0.00    -0.122 C  
HETATM    2  N   UNL     1     -12.244   7.443  71.693  1.00  0.00    -0.314 NA 
HETATM    3  C   UNL     1     -13.581   8.002  71.918  1.00  0.00    -0.313 C  
ENDROOT
BRANCH   2   4
HETATM    4  C   UNL     1     -11.222   8.364  72.218  1.00  0.00    -0.376 C  
BRANCH   4   5
HETATM    5  C   UNL     1     -10.354   9.034  71.148  1.00  0.00    -0.362 C  
BRANCH   5   6
HETATM    6  C   UNL     1      -8.923   8.484  71.078  1.00  0.00    -0.179 C  
BRANCH   6   7
HETATM    7  N   UNL     1      -8.785   7.488  69.984  1.00  0.00    -0.139 NA 
HETATM    8  C   UNL     1      -8.249   6.249  70.391  1.00  0.00    -0.121 A  
HETATM    9  C   UNL     1      -9.058   5.350  71.103  1.00  0.00    -0.163 A  
HETATM   10  C   UNL     1      -8.588   4.086  71.469  1.00  0.00    -0.127 A  
HETATM   11  C   UNL     1      -7.287   3.714  71.151  1.00  0.00    -0.033 A  
HETATM   12  C   UNL     1      -6.468   4.597  70.449  1.00  0.00    -0.034 A  
HETATM   13  C   UNL     1      -6.945   5.860  70.058  1.00  0.00    -0.066 A  
HETATM   14  C   UNL     1      -6.083   6.764  69.227  1.00  0.00    -0.026 C  
HETATM   15  C   UNL     1      -6.645   6.908  67.819  1.00  0.00    -0.055 C  
HETATM   16  C   UNL     1      -7.954   7.650  67.635  1.00  0.00    -0.121 A  
HETATM   17  C   UNL     1      -8.231   8.051  66.308  1.00  0.00    -0.116 A  
HETATM   18  C   UNL     1      -9.392   8.743  65.977  1.00  0.00    -0.296 A  
HETATM   19  C   UNL     1     -10.304   9.054  66.970  1.00  0.00    -0.339 A  
HETATM   20  C   UNL     1     -10.052   8.660  68.286  1.00  0.00    -0.225 A  
HETATM   21  C   UNL     1      -8.887   7.946  68.653  1.00  0.00    -0.134 A  
ENDBRANCH   6   7
ENDBRANCH   5   6
ENDBRANCH   4   5
ENDBRANCH   2   4
TORSDOF 4
ENDMDL
MODEL      215
REMARK 921   NORMALIZED FREE ENERGY PREDICTED BY IDOCK:   -2.64 KCAL/MOL
REMARK 922        TOTAL FREE ENERGY PREDICTED BY IDOCK:   -3.55 KCAL/MOL
REMARK 923 INTER-LIGAND FREE ENERGY PREDICTED BY IDOCK:   -2.68 KCAL/MOL
REMARK 924 INTRA-LIGAND FREE ENERGY PREDICTED BY IDOCK:   -0.87 KCAL/MOL
REMARK 927      BINDING AFFINITY PREDICTED BY RF-SCORE:    0.00 PKD
ROOT
HETATM    1  C   UNL     1     -10.777   6.210  67.708  1.00  0.00    -0.303 C  
HETATM    2  N   UNL     1     -10.200   7.322  68.468  1.00  0.00    -0.176 NA 
HETATM    3  C   UNL     1     -10.456   8.581  67.762  1.00  0.00    -0.223 C  
ENDROOT
BRANCH   2   4
HETATM    4  C   UNL     1     -10.733   7.401  69.839  1.00  0.00    -0.243 C  
BRANCH   4   5
HETATM    5  C   UNL     1      -9.928   6.623  70.884  1.00  0.00    -0.204 C  
BRANCH   5   6
HETATM    6  C   UNL     1      -8.423   6.564  70.589  1.00  0.00    -0.134 C  
BRANCH   6   7
HETATM    7  N   UNL     1      -7.898   5.182  70.752  1.00  0.00    -0.086 NA 
HETATM    8  C   UNL     1      -8.152   4.331  69.657  1.00  0.00    -0.059 A  
HETATM    9  C   UNL     1      -7.396   4.476  68.483  1.00  0.00    -0.061 A  
HETATM   10  C   UNL     1      -7.571   3.613  67.398  1.00  0.00    -0.074 A  
HETATM   11  C   UNL     1      -8.527   2.607  67.463  1.00  0.00    -0.107 A  
HETATM   12  C   UNL     1      -9.290   2.452  68.619  1.00  0.00    -0.244 A  
HETATM   13  C   UNL     1      -9.101   3.304  69.721  1.00  0.00    -0.200 A  
HETATM   14  C   UNL     1      -9.867   3.070  70.990  1.00  0.00    -0.083 C  
HETATM   15  C   UNL     1      -8.942   2.597  72.105  1.00  0.00    -0.124 C  
HETATM   16  C   UNL     1      -7.922   3.572  72.659  1.00  0.00    -0.072 A  
HETATM   17  C   UNL     1      -7.355   3.199  73.899  1.00  0.00    -0.051 A  
HETATM   18  C   UNL     1      -6.405   3.989  74.539  1.00  0.00    -0.038 A  
HETATM   19  C   UNL     1      -6.001   5.175  73.952  1.00  0.00    -0.042 A  
HETATM   20  C   UNL     1      -6.544   5.557  72.724  1.00  0.00    -0.070 A  
HETATM   21  C   UNL     1      -7.503   4.772  72.043  1.00  0.00    -0.082 A  
ENDBRANCH   6   7
ENDBRANCH   5   6
ENDBRANCH   4   5
ENDBRANCH   2   4
TORSDOF 4
ENDMDL
MODEL      216
REMARK 921   NORMALIZED FREE ENERGY PREDICTED BY IDOCK:   -2.64 KCAL/MOL
REMARK 922        TOTAL FREE ENERGY PREDICTED BY IDOCK:   -3.55 KCAL/MOL
REMARK 923 INTER-LIGAND FREE ENERGY PREDICTED BY IDOCK:   -3.19 KCAL/MOL
REMARK 924 INTRA-LIGAND FREE ENERGY PREDICTED BY IDOCK:   -0.36 KCAL/MOL
REMARK 927      BINDING AFFINITY PREDICTED BY RF-SCORE:    0.00 PKD
ROOT
HETATM    1  C   UNL     1      -7.788   5.741  64.783  1.00  0.00    -0.114 C  
HETATM    2  N   UNL     1      -8.766   4.907  65.488  1.00  0.00    -0.134 NA 
HETATM    3  C   UNL     1      -9.290   3.889  64.572  1.00  0.00    -0.155 C  
ENDROOT
BRANCH   2   4
HETATM    4  C   UNL     1      -8.195   4.260  66.681  1.00  0.00    -0.102 C  
BRANCH   4   5
HETATM    5  C   UNL     1      -9.070   4.343  67.935  1.00  0.00    -0.154 C  
BRANCH   5   6
HETATM    6  C   UNL     1      -9.554   5.764  68.260  1.00  0.00    -0.121 C  
BRANCH   6   7
HETATM    7  N   UNL     1      -9.086   6.196  69.603  1.00  0.00    -0.136 NA 
HETATM    8  C   UNL     1      -7.827   5.681  69.973  1.00  0.00    -0.090 A  
HETATM    9  C   UNL     1      -6.666   6.223  69.399  1.00  0.00    -0.052 A  
HETATM   10  C   UNL     1      -5.396   5.787  69.784  1.00  0.00    -0.005 A  
HETATM   11  C   UNL     1      -5.270   4.780  70.734  1.00  0.00    -0.004 A  
HETATM   12  C   UNL     1      -6.412   4.227  71.310  1.00  0.00    -0.019 A  
HETATM   13  C   UNL     1      -7.691   4.679  70.942  1.00  0.00    -0.072 A  
HETATM   14  C   UNL     1      -8.907   4.137  71.635  1.00  0.00    -0.147 C  
HETATM   15  C   UNL     1      -9.561   5.207  72.501  1.00  0.00    -0.173 C  
HETATM   16  C   UNL     1     -10.225   6.385  71.817  1.00  0.00    -0.222 A  
HETATM   17  C   UNL     1     -11.100   7.134  72.636  1.00  0.00    -0.330 A  
HETATM   18  C   UNL     1     -11.787   8.245  72.155  1.00  0.00    -0.431 A  
HETATM   19  C   UNL     1     -11.614   8.630  70.836  1.00  0.00    -0.307 A  
HETATM   20  C   UNL     1     -10.748   7.908  70.014  1.00  0.00    -0.244 A  
HETATM   21  C   UNL     1     -10.028   6.782  70.476  1.00  0.00    -0.183 A  
ENDBRANCH   6   7
ENDBRANCH   5   6
ENDBRANCH   4   5
ENDBRANCH   2   4
TORSDOF 4
ENDMDL
MODEL      217
REMARK 921   NORMALIZED FREE ENERGY PREDICTED BY IDOCK:   -2.61 KCAL/MOL
REMARK 922        TOTAL FREE ENERGY PREDICTED BY IDOCK:   -3.52 KCAL/MOL
REMARK 923 INTER-LIGAND FREE ENERGY PREDICTED BY IDOCK:   -3.52 KCAL/MOL
REMARK 924 INTRA-LIGAND FREE ENERGY PREDICTED BY IDOCK:   -0.00 KCAL/MOL
REMARK 927      BINDING AFFINITY PREDICTED BY RF-SCORE:    0.00 PKD
ROOT
HETATM    1  C   UNL     1     -10.955   5.585  72.485  1.00  0.00    -0.263 C  
HETATM    2  N   UNL     1     -10.723   6.304  71.228  1.00  0.00    -0.239 NA 
HETATM    3  C   UNL     1     -12.005   6.775  70.693  1.00  0.00    -0.362 C  
ENDROOT
BRANCH   2   4
HETATM    4  C   UNL     1      -9.803   7.441  71.394  1.00  0.00    -0.185 C  
BRANCH   4   5
HETATM    5  C   UNL     1      -8.544   7.378  70.524  1.00  0.00    -0.139 C  
BRANCH   5   6
HETATM    6  C   UNL     1      -8.403   6.070  69.733  1.00  0.00    -0.126 C  
BRANCH   6   7
HETATM    7  N   UNL     1      -8.429   6.325  68.268  1.00  0.00    -0.115 NA 
HETATM    8  C   UNL     1      -8.993   7.564  67.904  1.00  0.00    -0.131 A  
HETATM    9  C   UNL     1      -8.250   8.740  68.091  1.00  0.00    -0.114 A  
HETATM   10  C   UNL     1      -8.744   9.982  67.685  1.00  0.00    -0.121 A  
HETATM   11  C   UNL     1     -10.006  10.068  67.109  1.00  0.00    -0.251 A  
HETATM   12  C   UNL     1     -10.759   8.912  66.920  1.00  0.00    -0.153 A  
HETATM   13  C   UNL     1     -10.256   7.657  67.306  1.00  0.00    -0.342 A  
HETATM   14  C   UNL     1     -11.041   6.412  67.017  1.00  0.00    -0.405 C  
HETATM   15  C   UNL     1     -10.348   5.566  65.956  1.00  0.00    -0.058 C  
HETATM   16  C   UNL     1      -9.032   4.900  66.309  1.00  0.00    -0.121 A  
HETATM   17  C   UNL     1      -8.633   3.868  65.429  1.00  0.00    -0.114 A  
HETATM   18  C   UNL     1      -7.450   3.159  65.618  1.00  0.00    -0.073 A  
HETATM   19  C   UNL     1      -6.640   3.466  66.697  1.00  0.00    -0.041 A  
HETATM   20  C   UNL     1      -7.013   4.488  67.573  1.00  0.00    -0.060 A  
HETATM   21  C   UNL     1      -8.203   5.234  67.402  1.00  0.00    -0.103 A  
ENDBRANCH   6   7
ENDBRANCH   5   6
ENDBRANCH   4   5
ENDBRANCH   2   4
TORSDOF 4
ENDMDL
MODEL      218
REMARK 921   NORMALIZED FREE ENERGY PREDICTED BY IDOCK:   -2.60 KCAL/MOL
REMARK 922        TOTAL FREE ENERGY PREDICTED BY IDOCK:   -3.51 KCAL/MOL
REMARK 923 INTER-LIGAND FREE ENERGY PREDICTED BY IDOCK:   -3.22 KCAL/MOL
REMARK 924 INTRA-LIGAND FREE ENERGY PREDICTED BY IDOCK:   -0.29 KCAL/MOL
REMARK 927      BINDING AFFINITY PREDICTED BY RF-SCORE:    0.00 PKD
ROOT
HETATM    1  C   UNL     1     -11.886   9.701  70.214  1.00  0.00    -0.099 C  
HETATM    2  N   UNL     1     -11.169   8.541  70.753  1.00  0.00    -0.255 NA 
HETATM    3  C   UNL     1     -11.987   7.900  71.787  1.00  0.00    -0.298 C  
ENDROOT
BRANCH   2   4
HETATM    4  C   UNL     1     -10.824   7.562  69.709  1.00  0.00    -0.225 C  
BRANCH   4   5
HETATM    5  C   UNL     1     -11.108   6.103  70.081  1.00  0.00    -0.448 C  
BRANCH   5   6
HETATM    6  C   UNL     1     -10.077   5.110  69.527  1.00  0.00    -0.246 C  
BRANCH   6   7
HETATM    7  N   UNL     1      -9.205   4.583  70.609  1.00  0.00    -0.125 NA 
HETATM    8  C   UNL     1      -9.590   4.973  71.907  1.00  0.00    -0.152 A  
HETATM    9  C   UNL     1     -10.701   4.360  72.509  1.00  0.00    -0.164 A  
HETATM   10  C   UNL     1     -11.078   4.670  73.818  1.00  0.00    -0.333 A  
HETATM   11  C   UNL     1     -10.364   5.621  74.536  1.00  0.00    -0.254 A  
HETATM   12  C   UNL     1      -9.262   6.243  73.953  1.00  0.00    -0.144 A  
HETATM   13  C   UNL     1      -8.865   5.917  72.644  1.00  0.00    -0.121 A  
HETATM   14  C   UNL     1      -7.625   6.530  72.061  1.00  0.00    -0.093 C  
HETATM   15  C   UNL     1      -6.531   5.484  71.889  1.00  0.00    -0.051 C  
HETATM   16  C   UNL     1      -6.727   4.396  70.852  1.00  0.00    -0.035 A  
HETATM   17  C   UNL     1      -5.554   3.691  70.500  1.00  0.00    -0.013 A  
HETATM   18  C   UNL     1      -5.569   2.664  69.561  1.00  0.00    -0.017 A  
HETATM   19  C   UNL     1      -6.762   2.321  68.948  1.00  0.00    -0.033 A  
HETATM   20  C   UNL     1      -7.933   3.002  69.288  1.00  0.00    -0.058 A  
HETATM   21  C   UNL     1      -7.953   4.042  70.246  1.00  0.00    -0.051 A  
ENDBRANCH   6   7
ENDBRANCH   5   6
ENDBRANCH   4   5
ENDBRANCH   2   4
TORSDOF 4
ENDMDL
MODEL      219
REMARK 921   NORMALIZED FREE ENERGY PREDICTED BY IDOCK:   -2.56 KCAL/MOL
REMARK 922        TOTAL FREE ENERGY PREDICTED BY IDOCK:   -3.45 KCAL/MOL
REMARK 923 INTER-LIGAND FREE ENERGY PREDICTED BY IDOCK:   -3.17 KCAL/MOL
REMARK 924 INTRA-LIGAND FREE ENERGY PREDICTED BY IDOCK:   -0.29 KCAL/MOL
REMARK 927      BINDING AFFINITY PREDICTED BY RF-SCORE:    0.00 PKD
ROOT
HETATM    1  C   UNL     1     -11.597   6.066  72.126  1.00  0.00    -0.293 C  
HETATM    2  N   UNL     1     -12.157   6.710  70.934  1.00  0.00    -0.366 NA 
HETATM    3  C   UNL     1     -12.242   8.157  71.157  1.00  0.00    -0.239 C  
ENDROOT
BRANCH   2   4
HETATM    4  C   UNL     1     -11.364   6.436  69.724  1.00  0.00    -0.427 C  
BRANCH   4   5
HETATM    5  C   UNL     1     -10.237   5.417  69.914  1.00  0.00    -0.351 C  
BRANCH   5   6
HETATM    6  C   UNL     1      -9.763   4.766  68.607  1.00  0.00    -0.157 C  
BRANCH   6   7
HETATM    7  N   UNL     1      -8.486   5.368  68.141  1.00  0.00    -0.098 NA 
HETATM    8  C   UNL     1      -7.713   5.955  69.163  1.00  0.00    -0.091 A  
HETATM    9  C   UNL     1      -6.997   5.129  70.044  1.00  0.00    -0.056 A  
HETATM   10  C   UNL     1      -6.168   5.669  71.030  1.00  0.00    -0.034 A  
HETATM   11  C   UNL     1      -6.064   7.048  71.166  1.00  0.00    -0.036 A  
HETATM   12  C   UNL     1      -6.772   7.883  70.304  1.00  0.00    -0.038 A  
HETATM   13  C   UNL     1      -7.589   7.343  69.295  1.00  0.00    -0.101 A  
HETATM   14  C   UNL     1      -8.276   8.253  68.318  1.00  0.00    -0.128 C  
HETATM   15  C   UNL     1      -7.680   8.102  66.924  1.00  0.00    -0.096 C  
HETATM   16  C   UNL     1      -7.902   6.799  66.181  1.00  0.00    -0.102 A  
HETATM   17  C   UNL     1      -7.640   6.855  64.793  1.00  0.00    -0.108 A  
HETATM   18  C   UNL     1      -7.798   5.743  63.971  1.00  0.00    -0.118 A  
HETATM   19  C   UNL     1      -8.226   4.547  64.522  1.00  0.00    -0.107 A  
HETATM   20  C   UNL     1      -8.482   4.471  65.892  1.00  0.00    -0.114 A  
HETATM   21  C   UNL     1      -8.321   5.579  66.755  1.00  0.00    -0.108 A  
ENDBRANCH   6   7
ENDBRANCH   5   6
ENDBRANCH   4   5
ENDBRANCH   2   4
TORSDOF 4
ENDMDL
MODEL      220
REMARK 921   NORMALIZED FREE ENERGY PREDICTED BY IDOCK:   -2.37 KCAL/MOL
REMARK 922        TOTAL FREE ENERGY PREDICTED BY IDOCK:   -3.22 KCAL/MOL
REMARK 923 INTER-LIGAND FREE ENERGY PREDICTED BY IDOCK:   -3.19 KCAL/MOL
REMARK 924 INTRA-LIGAND FREE ENERGY PREDICTED BY IDOCK:   -0.03 KCAL/MOL
REMARK 927      BINDING AFFINITY PREDICTED BY RF-SCORE:    0.00 PKD
ROOT
HETATM    1  C   UNL     1     -13.254  10.362  70.633  1.00  0.00    -0.127 C  
HETATM    2  N   UNL     1     -12.624   9.324  71.455  1.00  0.00    -0.334 NA 
HETATM    3  C   UNL     1     -13.638   8.693  72.306  1.00  0.00    -0.383 C  
ENDROOT
BRANCH   2   4
HETATM    4  C   UNL     1     -11.945   8.300  70.643  1.00  0.00    -0.025 C  
BRANCH   4   5
HETATM    5  C   UNL     1     -12.066   6.872  71.183  1.00  0.00    -0.428 C  
BRANCH   5   6
HETATM    6  C   UNL     1     -11.203   5.851  70.430  1.00  0.00    -0.237 C  
BRANCH   6   7
HETATM    7  N   UNL     1      -9.998   5.482  71.219  1.00  0.00    -0.185 NA 
HETATM    8  C   UNL     1      -8.883   6.316  71.000  1.00  0.00    -0.136 A  
HETATM    9  C   UNL     1      -8.860   7.598  71.572  1.00  0.00    -0.138 A  
HETATM   10  C   UNL     1      -7.748   8.432  71.434  1.00  0.00    -0.116 A  
HETATM   11  C   UNL     1      -6.650   8.004  70.697  1.00  0.00    -0.037 A  
HETATM   12  C   UNL     1      -6.658   6.737  70.119  1.00  0.00    -0.044 A  
HETATM   13  C   UNL     1      -7.766   5.885  70.274  1.00  0.00    -0.096 A  
HETATM   14  C   UNL     1      -7.724   4.491  69.721  1.00  0.00    -0.054 C  
HETATM   15  C   UNL     1      -7.679   3.461  70.844  1.00  0.00    -0.043 C  
HETATM   16  C   UNL     1      -8.903   3.296  71.722  1.00  0.00    -0.129 A  
HETATM   17  C   UNL     1      -8.927   2.110  72.492  1.00  0.00    -0.093 A  
HETATM   18  C   UNL     1      -9.984   1.811  73.347  1.00  0.00    -0.140 A  
HETATM   19  C   UNL     1     -11.045   2.694  73.449  1.00  0.00    -0.288 A  
HETATM   20  C   UNL     1     -11.035   3.874  72.703  1.00  0.00     0.029 A  
HETATM   21  C   UNL     1      -9.972   4.212  71.834  1.00  0.00    -0.183 A  
ENDBRANCH   6   7
ENDBRANCH   5   6
ENDBRANCH   4   5
ENDBRANCH   2   4
TORSDOF 4
ENDMDL
MODEL      221
REMARK 921   NORMALIZED FREE ENERGY PREDICTED BY IDOCK:   -2.35 KCAL/MOL
REMARK 922        TOTAL FREE ENERGY PREDICTED BY IDOCK:   -3.19 KCAL/MOL
REMARK 923 INTER-LIGAND FREE ENERGY PREDICTED BY IDOCK:   -3.26 KCAL/MOL
REMARK 924 INTRA-LIGAND FREE ENERGY PREDICTED BY IDOCK:    0.07 KCAL/MOL
REMARK 927      BINDING AFFINITY PREDICTED BY RF-SCORE:    0.00 PKD
ROOT
HETATM    1  C   UNL     1     -11.627  12.264  64.303  1.00  0.00    -0.371 C  
HETATM    2  N   UNL     1     -10.431  12.785  64.972  1.00  0.00    -0.305 NA 
HETATM    3  C   UNL     1     -10.465  14.250  64.960  1.00  0.00    -0.435 C  
ENDROOT
BRANCH   2   4
HETATM    4  C   UNL     1     -10.305  12.299  66.356  1.00  0.00    -0.225 C  
BRANCH   4   5
HETATM    5  C   UNL     1      -8.911  11.789  66.731  1.00  0.00    -0.191 C  
BRANCH   5   6
HETATM    6  C   UNL     1      -8.349  10.747  65.754  1.00  0.00    -0.158 C  
BRANCH   6   7
HETATM    7  N   UNL     1      -7.852   9.547  66.477  1.00  0.00    -0.100 NA 
HETATM    8  C   UNL     1      -7.892   8.357  65.722  1.00  0.00    -0.101 A  
HETATM    9  C   UNL     1      -6.933   8.145  64.719  1.00  0.00    -0.074 A  
HETATM   10  C   UNL     1      -6.897   6.953  63.992  1.00  0.00    -0.054 A  
HETATM   11  C   UNL     1      -7.841   5.964  64.240  1.00  0.00    -0.116 A  
HETATM   12  C   UNL     1      -8.803   6.159  65.228  1.00  0.00     0.029 A  
HETATM   13  C   UNL     1      -8.829   7.348  65.979  1.00  0.00    -0.173 A  
HETATM   14  C   UNL     1      -9.815   7.508  67.098  1.00  0.00    -0.263 C  
HETATM   15  C   UNL     1      -9.108   7.513  68.448  1.00  0.00    -0.133 C  
HETATM   16  C   UNL     1      -8.216   8.689  68.793  1.00  0.00    -0.121 A  
HETATM   17  C   UNL     1      -7.886   8.804  70.162  1.00  0.00    -0.094 A  
HETATM   18  C   UNL     1      -7.077   9.832  70.638  1.00  0.00    -0.097 A  
HETATM   19  C   UNL     1      -6.581  10.772  69.751  1.00  0.00    -0.128 A  
HETATM   20  C   UNL     1      -6.890  10.670  68.394  1.00  0.00    -0.064 A  
HETATM   21  C   UNL     1      -7.700   9.632  67.877  1.00  0.00    -0.087 A  
ENDBRANCH   6   7
ENDBRANCH   5   6
ENDBRANCH   4   5
ENDBRANCH   2   4
TORSDOF 4
ENDMDL
MODEL      222
REMARK 921   NORMALIZED FREE ENERGY PREDICTED BY IDOCK:   -2.32 KCAL/MOL
REMARK 922        TOTAL FREE ENERGY PREDICTED BY IDOCK:   -3.15 KCAL/MOL
REMARK 923 INTER-LIGAND FREE ENERGY PREDICTED BY IDOCK:   -3.01 KCAL/MOL
REMARK 924 INTRA-LIGAND FREE ENERGY PREDICTED BY IDOCK:   -0.14 KCAL/MOL
REMARK 927      BINDING AFFINITY PREDICTED BY RF-SCORE:    0.00 PKD
ROOT
HETATM    1  C   UNL     1      -8.943   9.388  62.584  1.00  0.00    -0.203 C  
HETATM    2  N   UNL     1      -7.622   9.286  63.212  1.00  0.00    -0.103 NA 
HETATM    3  C   UNL     1      -6.703  10.232  62.570  1.00  0.00    -0.132 C  
ENDROOT
BRANCH   2   4
HETATM    4  C   UNL     1      -7.668   9.539  64.661  1.00  0.00    -0.120 C  
BRANCH   4   5
HETATM    5  C   UNL     1      -8.737   8.742  65.416  1.00  0.00    -0.217 C  
BRANCH   5   6
HETATM    6  C   UNL     1      -9.251   9.441  66.683  1.00  0.00    -0.153 C  
BRANCH   6   7
HETATM    7  N   UNL     1      -8.631   8.862  67.904  1.00  0.00    -0.125 NA 
HETATM    8  C   UNL     1      -9.281   7.712  68.396  1.00  0.00    -0.140 A  
HETATM    9  C   UNL     1      -9.109   6.487  67.731  1.00  0.00    -0.112 A  
HETATM   10  C   UNL     1      -9.683   5.311  68.221  1.00  0.00    -0.185 A  
HETATM   11  C   UNL     1     -10.462   5.349  69.371  1.00  0.00    -0.331 A  
HETATM   12  C   UNL     1     -10.647   6.558  70.040  1.00  0.00    -0.280 A  
HETATM   13  C   UNL     1     -10.053   7.739  69.564  1.00  0.00    -0.194 A  
HETATM   14  C   UNL     1     -10.188   9.015  70.342  1.00  0.00    -0.250 C  
HETATM   15  C   UNL     1      -8.851   9.430  70.942  1.00  0.00    -0.168 C  
HETATM   16  C   UNL     1      -7.747   9.880  70.005  1.00  0.00    -0.188 A  
HETATM   17  C   UNL     1      -6.685  10.575  70.626  1.00  0.00     0.145 A  
HETATM   18  C   UNL     1      -5.597  11.054  69.902  1.00  0.00    -0.066 A  
HETATM   19  C   UNL     1      -5.550  10.850  68.534  1.00  0.00    -0.043 A  
HETATM   20  C   UNL     1      -6.586  10.159  67.903  1.00  0.00    -0.066 A  
HETATM   21  C   UNL     1      -7.699   9.651  68.612  1.00  0.00    -0.080 A  
ENDBRANCH   6   7
ENDBRANCH   5   6
ENDBRANCH   4   5
ENDBRANCH   2   4
TORSDOF 4
ENDMDL
MODEL      223
REMARK 921   NORMALIZED FREE ENERGY PREDICTED BY IDOCK:   -2.17 KCAL/MOL
REMARK 922        TOTAL FREE ENERGY PREDICTED BY IDOCK:   -2.98 KCAL/MOL
REMARK 923 INTER-LIGAND FREE ENERGY PREDICTED BY IDOCK:   -3.36 KCAL/MOL
REMARK 924 INTRA-LIGAND FREE ENERGY PREDICTED BY IDOCK:    0.38 KCAL/MOL
REMARK 927      BINDING AFFINITY PREDICTED BY RF-SCORE:    0.00 PKD
ROOT
HETATM    1  C   UNL     1     -10.788   5.795  73.199  1.00  0.00    -0.276 C  
HETATM    2  N   UNL     1     -10.394   7.203  73.095  1.00  0.00    -0.260 NA 
HETATM    3  C   UNL     1      -8.936   7.312  73.209  1.00  0.00    -0.152 C  
ENDROOT
BRANCH   2   4
HETATM    4  C   UNL     1     -10.845   7.820  71.836  1.00  0.00    -0.235 C  
BRANCH   4   5
HETATM    5  C   UNL     1      -9.827   7.759  70.693  1.00  0.00    -0.182 C  
BRANCH   5   6
HETATM    6  C   UNL     1     -10.036   8.835  69.619  1.00  0.00    -0.204 C  
BRANCH   6   7
HETATM    7  N   UNL     1      -8.859   8.929  68.717  1.00  0.00    -0.137 NA 
HETATM    8  C   UNL     1      -9.095   9.642  67.525  1.00  0.00    -0.130 A  
HETATM    9  C   UNL     1      -9.171  11.043  67.565  1.00  0.00    -0.149 A  
HETATM   10  C   UNL     1      -9.341  11.793  66.399  1.00  0.00    -0.229 A  
HETATM   11  C   UNL     1      -9.464  11.148  65.174  1.00  0.00    -0.257 A  
HETATM   12  C   UNL     1      -9.396   9.758  65.116  1.00  0.00    -0.322 A  
HETATM   13  C   UNL     1      -9.203   9.000  66.285  1.00  0.00    -0.258 A  
HETATM   14  C   UNL     1      -9.044   7.511  66.197  1.00  0.00    -0.179 C  
HETATM   15  C   UNL     1      -7.621   7.094  66.548  1.00  0.00    -0.092 C  
HETATM   16  C   UNL     1      -7.150   7.265  67.978  1.00  0.00    -0.081 A  
HETATM   17  C   UNL     1      -5.978   6.547  68.309  1.00  0.00    -0.021 A  
HETATM   18  C   UNL     1      -5.420   6.598  69.583  1.00  0.00    -0.014 A  
HETATM   19  C   UNL     1      -6.027   7.370  70.559  1.00  0.00    -0.031 A  
HETATM   20  C   UNL     1      -7.181   8.092  70.250  1.00  0.00    -0.052 A  
HETATM   21  C   UNL     1      -7.766   8.069  68.962  1.00  0.00    -0.100 A  
ENDBRANCH   6   7
ENDBRANCH   5   6
ENDBRANCH   4   5
ENDBRANCH   2   4
TORSDOF 4
ENDMDL
MODEL      224
REMARK 921   NORMALIZED FREE ENERGY PREDICTED BY IDOCK:   -2.15 KCAL/MOL
REMARK 922        TOTAL FREE ENERGY PREDICTED BY IDOCK:   -2.95 KCAL/MOL
REMARK 923 INTER-LIGAND FREE ENERGY PREDICTED BY IDOCK:   -2.78 KCAL/MOL
REMARK 924 INTRA-LIGAND FREE ENERGY PREDICTED BY IDOCK:   -0.17 KCAL/MOL
REMARK 927      BINDING AFFINITY PREDICTED BY RF-SCORE:    0.00 PKD
ROOT
HETATM    1  C   UNL     1     -11.758   9.478  70.810  1.00  0.00    -0.298 C  
HETATM    2  N   UNL     1     -11.234  10.306  69.719  1.00  0.00    -0.265 NA 
HETATM    3  C   UNL     1     -11.671  11.693  69.906  1.00  0.00    -0.337 C  
ENDROOT
BRANCH   2   4
HETATM    4  C   UNL     1      -9.765  10.252  69.631  1.00  0.00    -0.185 C  
BRANCH   4   5
HETATM    5  C   UNL     1      -9.211  10.203  68.204  1.00  0.00    -0.137 C  
BRANCH   5   6
HETATM    6  C   UNL     1      -9.504   8.886  67.471  1.00  0.00    -0.141 C  
BRANCH   6   7
HETATM    7  N   UNL     1      -8.252   8.133  67.200  1.00  0.00    -0.119 NA 
HETATM    8  C   UNL     1      -7.737   8.309  65.900  1.00  0.00    -0.087 A  
HETATM    9  C   UNL     1      -7.082   9.507  65.576  1.00  0.00    -0.090 A  
HETATM   10  C   UNL     1      -6.501   9.698  64.320  1.00  0.00    -0.106 A  
HETATM   11  C   UNL     1      -6.592   8.699  63.358  1.00  0.00    -0.089 A  
HETATM   12  C   UNL     1      -7.243   7.505  63.661  1.00  0.00    -0.079 A  
HETATM   13  C   UNL     1      -7.809   7.300  64.931  1.00  0.00    -0.126 A  
HETATM   14  C   UNL     1      -8.430   5.977  65.272  1.00  0.00    -0.131 C  
HETATM   15  C   UNL     1      -7.596   5.237  66.311  1.00  0.00    -0.088 C  
HETATM   16  C   UNL     1      -7.529   5.799  67.717  1.00  0.00    -0.078 A  
HETATM   17  C   UNL     1      -7.049   4.899  68.696  1.00  0.00    -0.057 A  
HETATM   18  C   UNL     1      -6.931   5.264  70.034  1.00  0.00    -0.060 A  
HETATM   19  C   UNL     1      -7.294   6.541  70.424  1.00  0.00    -0.085 A  
HETATM   20  C   UNL     1      -7.763   7.447  69.471  1.00  0.00    -0.108 A  
HETATM   21  C   UNL     1      -7.885   7.111  68.103  1.00  0.00    -0.118 A  
ENDBRANCH   6   7
ENDBRANCH   5   6
ENDBRANCH   4   5
ENDBRANCH   2   4
TORSDOF 4
ENDMDL
MODEL      225
REMARK 921   NORMALIZED FREE ENERGY PREDICTED BY IDOCK:   -2.13 KCAL/MOL
REMARK 922        TOTAL FREE ENERGY PREDICTED BY IDOCK:   -2.93 KCAL/MOL
REMARK 923 INTER-LIGAND FREE ENERGY PREDICTED BY IDOCK:   -2.52 KCAL/MOL
REMARK 924 INTRA-LIGAND FREE ENERGY PREDICTED BY IDOCK:   -0.41 KCAL/MOL
REMARK 927      BINDING AFFINITY PREDICTED BY RF-SCORE:    0.00 PKD
ROOT
HETATM    1  C   UNL     1     -11.496   6.376  72.441  1.00  0.00    -0.282 C  
HETATM    2  N   UNL     1     -12.292   6.741  71.266  1.00  0.00    -0.365 NA 
HETATM    3  C   UNL     1     -12.978   8.013  71.517  1.00  0.00    -0.303 C  
ENDROOT
BRANCH   2   4
HETATM    4  C   UNL     1     -11.476   6.847  70.045  1.00  0.00    -0.277 C  
BRANCH   4   5
HETATM    5  C   UNL     1     -10.009   6.442  70.219  1.00  0.00    -0.199 C  
BRANCH   5   6
HETATM    6  C   UNL     1      -9.082   6.987  69.124  1.00  0.00    -0.136 C  
BRANCH   6   7
HETATM    7  N   UNL     1      -7.698   7.168  69.634  1.00  0.00    -0.107 NA 
HETATM    8  C   UNL     1      -7.244   6.125  70.467  1.00  0.00    -0.083 A  
HETATM    9  C   UNL     1      -6.868   4.901  69.893  1.00  0.00    -0.048 A  
HETATM   10  C   UNL     1      -6.353   3.863  70.673  1.00  0.00    -0.026 A  
HETATM   11  C   UNL     1      -6.232   4.027  72.048  1.00  0.00    -0.014 A  
HETATM   12  C   UNL     1      -6.605   5.234  72.635  1.00  0.00    -0.064 A  
HETATM   13  C   UNL     1      -7.103   6.289  71.850  1.00  0.00    -0.085 A  
HETATM   14  C   UNL     1      -7.417   7.612  72.484  1.00  0.00    -0.092 C  
HETATM   15  C   UNL     1      -6.435   8.682  72.025  1.00  0.00    -0.074 C  
HETATM   16  C   UNL     1      -6.481   9.133  70.578  1.00  0.00    -0.056 A  
HETATM   17  C   UNL     1      -5.808  10.348  70.311  1.00  0.00    -0.082 A  
HETATM   18  C   UNL     1      -5.761  10.895  69.033  1.00  0.00    -0.040 A  
HETATM   19  C   UNL     1      -6.391  10.239  67.990  1.00  0.00    -0.056 A  
HETATM   20  C   UNL     1      -7.053   9.034  68.232  1.00  0.00    -0.077 A  
HETATM   21  C   UNL     1      -7.110   8.446  69.517  1.00  0.00    -0.053 A  
ENDBRANCH   6   7
ENDBRANCH   5   6
ENDBRANCH   4   5
ENDBRANCH   2   4
TORSDOF 4
ENDMDL
MODEL      226
REMARK 921   NORMALIZED FREE ENERGY PREDICTED BY IDOCK:   -2.01 KCAL/MOL
REMARK 922        TOTAL FREE ENERGY PREDICTED BY IDOCK:   -2.78 KCAL/MOL
REMARK 923 INTER-LIGAND FREE ENERGY PREDICTED BY IDOCK:   -2.57 KCAL/MOL
REMARK 924 INTRA-LIGAND FREE ENERGY PREDICTED BY IDOCK:   -0.21 KCAL/MOL
REMARK 927      BINDING AFFINITY PREDICTED BY RF-SCORE:    0.00 PKD
ROOT
HETATM    1  C   UNL     1      -9.011   5.321  70.522  1.00  0.00    -0.136 C  
HETATM    2  N   UNL     1      -9.622   6.194  69.515  1.00  0.00    -0.142 NA 
HETATM    3  C   UNL     1     -10.674   5.459  68.805  1.00  0.00    -0.041 C  
ENDROOT
BRANCH   2   4
HETATM    4  C   UNL     1     -10.180   7.423  70.103  1.00  0.00    -0.205 C  
BRANCH   4   5
HETATM    5  C   UNL     1      -9.418   8.704  69.752  1.00  0.00    -0.166 C  
BRANCH   5   6
HETATM    6  C   UNL     1      -8.106   8.457  68.995  1.00  0.00    -0.116 C  
BRANCH   6   7
HETATM    7  N   UNL     1      -8.039   9.274  67.755  1.00  0.00    -0.104 NA 
HETATM    8  C   UNL     1      -8.948  10.351  67.720  1.00  0.00    -0.131 A  
HETATM    9  C   UNL     1      -8.686  11.498  68.486  1.00  0.00    -0.138 A  
HETATM   10  C   UNL     1      -9.526  12.613  68.431  1.00  0.00    -0.163 A  
HETATM   11  C   UNL     1     -10.659  12.585  67.627  1.00  0.00    -0.234 A  
HETATM   12  C   UNL     1     -10.937  11.453  66.864  1.00  0.00    -0.355 A  
HETATM   13  C   UNL     1     -10.082  10.337  66.899  1.00  0.00    -0.274 A  
HETATM   14  C   UNL     1     -10.346   9.160  66.006  1.00  0.00     0.074 C  
HETATM   15  C   UNL     1      -9.279   9.048  64.924  1.00  0.00    -0.056 C  
HETATM   16  C   UNL     1      -7.868   8.678  65.337  1.00  0.00    -0.101 A  
HETATM   17  C   UNL     1      -7.032   8.250  64.281  1.00  0.00    -0.073 A  
HETATM   18  C   UNL     1      -5.710   7.874  64.497  1.00  0.00    -0.044 A  
HETATM   19  C   UNL     1      -5.194   7.916  65.781  1.00  0.00    -0.028 A  
HETATM   20  C   UNL     1      -6.001   8.344  66.836  1.00  0.00    -0.053 A  
HETATM   21  C   UNL     1      -7.345   8.742  66.647  1.00  0.00    -0.082 A  
ENDBRANCH   6   7
ENDBRANCH   5   6
ENDBRANCH   4   5
ENDBRANCH   2   4
TORSDOF 4
ENDMDL
MODEL      227
REMARK 921   NORMALIZED FREE ENERGY PREDICTED BY IDOCK:   -1.97 KCAL/MOL
REMARK 922        TOTAL FREE ENERGY PREDICTED BY IDOCK:   -2.72 KCAL/MOL
REMARK 923 INTER-LIGAND FREE ENERGY PREDICTED BY IDOCK:   -2.44 KCAL/MOL
REMARK 924 INTRA-LIGAND FREE ENERGY PREDICTED BY IDOCK:   -0.29 KCAL/MOL
REMARK 927      BINDING AFFINITY PREDICTED BY RF-SCORE:    0.00 PKD
ROOT
HETATM    1  C   UNL     1      -5.151   9.250  69.512  1.00  0.00    -0.035 C  
HETATM    2  N   UNL     1      -6.594   9.015  69.616  1.00  0.00    -0.042 NA 
HETATM    3  C   UNL     1      -7.315  10.224  69.205  1.00  0.00    -0.099 C  
ENDROOT
BRANCH   2   4
HETATM    4  C   UNL     1      -7.036   7.869  68.805  1.00  0.00    -0.066 C  
BRANCH   4   5
HETATM    5  C   UNL     1      -8.442   8.007  68.214  1.00  0.00    -0.123 C  
BRANCH   5   6
HETATM    6  C   UNL     1      -9.535   7.329  69.051  1.00  0.00    -0.147 C  
BRANCH   6   7
HETATM    7  N   UNL     1      -9.386   5.850  69.031  1.00  0.00    -0.122 NA 
HETATM    8  C   UNL     1      -9.282   5.259  70.307  1.00  0.00    -0.143 A  
HETATM    9  C   UNL     1     -10.433   5.129  71.101  1.00  0.00    -0.240 A  
HETATM   10  C   UNL     1     -10.387   4.492  72.343  1.00  0.00    -0.256 A  
HETATM   11  C   UNL     1      -9.179   3.999  72.822  1.00  0.00    -0.135 A  
HETATM   12  C   UNL     1      -8.027   4.124  72.050  1.00  0.00    -0.085 A  
HETATM   13  C   UNL     1      -8.073   4.744  70.789  1.00  0.00    -0.085 A  
HETATM   14  C   UNL     1      -6.843   4.793  69.931  1.00  0.00    -0.048 C  
HETATM   15  C   UNL     1      -6.999   3.902  68.705  1.00  0.00    -0.047 C  
HETATM   16  C   UNL     1      -8.004   4.302  67.643  1.00  0.00    -0.091 A  
HETATM   17  C   UNL     1      -7.849   3.649  66.400  1.00  0.00    -0.089 A  
HETATM   18  C   UNL     1      -8.691   3.908  65.323  1.00  0.00    -0.116 A  
HETATM   19  C   UNL     1      -9.711   4.834  65.467  1.00  0.00    -0.166 A  
HETATM   20  C   UNL     1      -9.885   5.484  66.690  1.00  0.00    -0.190 A  
HETATM   21  C   UNL     1      -9.053   5.234  67.806  1.00  0.00    -0.110 A  
ENDBRANCH   6   7
ENDBRANCH   5   6
ENDBRANCH   4   5
ENDBRANCH   2   4
TORSDOF 4
ENDMDL
MODEL      228
REMARK 921   NORMALIZED FREE ENERGY PREDICTED BY IDOCK:   -1.74 KCAL/MOL
REMARK 922        TOTAL FREE ENERGY PREDICTED BY IDOCK:   -2.45 KCAL/MOL
REMARK 923 INTER-LIGAND FREE ENERGY PREDICTED BY IDOCK:   -3.05 KCAL/MOL
REMARK 924 INTRA-LIGAND FREE ENERGY PREDICTED BY IDOCK:    0.60 KCAL/MOL
REMARK 927      BINDING AFFINITY PREDICTED BY RF-SCORE:    0.00 PKD
ROOT
HETATM    1  C   UNL     1      -6.716  12.130  68.770  1.00  0.00    -0.088 C  
HETATM    2  N   UNL     1      -7.700  11.438  67.933  1.00  0.00    -0.109 NA 
HETATM    3  C   UNL     1      -8.913  12.255  67.829  1.00  0.00    -0.177 C  
ENDROOT
BRANCH   2   4
HETATM    4  C   UNL     1      -7.182  11.140  66.588  1.00  0.00    -0.144 C  
BRANCH   4   5
HETATM    5  C   UNL     1      -6.938   9.654  66.310  1.00  0.00    -0.092 C  
BRANCH   5   6
HETATM    6  C   UNL     1      -7.502   8.721  67.391  1.00  0.00    -0.089 C  
BRANCH   6   7
HETATM    7  N   UNL     1      -8.400   7.695  66.799  1.00  0.00    -0.122 NA 
HETATM    8  C   UNL     1      -9.181   6.994  67.740  1.00  0.00    -0.124 A  
HETATM    9  C   UNL     1     -10.293   7.628  68.318  1.00  0.00    -0.238 A  
HETATM   10  C   UNL     1     -11.131   6.950  69.206  1.00  0.00    -0.229 A  
HETATM   11  C   UNL     1     -10.853   5.632  69.550  1.00  0.00    -0.345 A  
HETATM   12  C   UNL     1      -9.751   4.990  68.989  1.00  0.00    -0.238 A  
HETATM   13  C   UNL     1      -8.918   5.661  68.077  1.00  0.00    -0.108 A  
HETATM   14  C   UNL     1      -7.787   4.930  67.415  1.00  0.00    -0.095 C  
HETATM   15  C   UNL     1      -8.060   4.741  65.928  1.00  0.00    -0.107 C  
HETATM   16  C   UNL     1      -8.065   5.963  65.032  1.00  0.00    -0.132 A  
HETATM   17  C   UNL     1      -7.969   5.688  63.649  1.00  0.00    -0.116 A  
HETATM   18  C   UNL     1      -7.959   6.704  62.697  1.00  0.00    -0.095 A  
HETATM   19  C   UNL     1      -8.042   8.022  63.110  1.00  0.00    -0.114 A  
HETATM   20  C   UNL     1      -8.146   8.314  64.472  1.00  0.00    -0.146 A  
HETATM   21  C   UNL     1      -8.169   7.304  65.462  1.00  0.00    -0.139 A  
ENDBRANCH   6   7
ENDBRANCH   5   6
ENDBRANCH   4   5
ENDBRANCH   2   4
TORSDOF 4
ENDMDL
MODEL      229
REMARK 921   NORMALIZED FREE ENERGY PREDICTED BY IDOCK:   -1.73 KCAL/MOL
REMARK 922        TOTAL FREE ENERGY PREDICTED BY IDOCK:   -2.42 KCAL/MOL
REMARK 923 INTER-LIGAND FREE ENERGY PREDICTED BY IDOCK:   -2.36 KCAL/MOL
REMARK 924 INTRA-LIGAND FREE ENERGY PREDICTED BY IDOCK:   -0.06 KCAL/MOL
REMARK 927      BINDING AFFINITY PREDICTED BY RF-SCORE:    0.00 PKD
ROOT
HETATM    1  C   UNL     1      -5.259   9.392  69.415  1.00  0.00    -0.035 C  
HETATM    2  N   UNL     1      -5.890   9.548  68.101  1.00  0.00    -0.041 NA 
HETATM    3  C   UNL     1      -5.784  10.946  67.672  1.00  0.00    -0.043 C  
ENDROOT
BRANCH   2   4
HETATM    4  C   UNL     1      -5.294   8.667  67.083  1.00  0.00    -0.037 C  
BRANCH   4   5
HETATM    5  C   UNL     1      -6.304   7.973  66.165  1.00  0.00    -0.046 C  
BRANCH   5   6
HETATM    6  C   UNL     1      -7.737   7.963  66.716  1.00  0.00    -0.099 C  
BRANCH   6   7
HETATM    7  N   UNL     1      -8.065   6.652  67.334  1.00  0.00    -0.120 NA 
HETATM    8  C   UNL     1      -7.851   5.543  66.491  1.00  0.00    -0.101 A  
HETATM    9  C   UNL     1      -6.540   5.100  66.255  1.00  0.00    -0.049 A  
HETATM   10  C   UNL     1      -6.286   3.967  65.479  1.00  0.00    -0.032 A  
HETATM   11  C   UNL     1      -7.344   3.274  64.902  1.00  0.00    -0.071 A  
HETATM   12  C   UNL     1      -8.651   3.703  65.121  1.00  0.00    -0.113 A  
HETATM   13  C   UNL     1      -8.912   4.829  65.921  1.00  0.00    -0.130 A  
HETATM   14  C   UNL     1     -10.328   5.226  66.219  1.00  0.00    -0.287 C  
HETATM   15  C   UNL     1     -10.659   4.995  67.688  1.00  0.00     0.008 C  
HETATM   16  C   UNL     1      -9.980   5.864  68.728  1.00  0.00    -0.195 A  
HETATM   17  C   UNL     1     -10.582   5.843  70.007  1.00  0.00    -0.364 A  
HETATM   18  C   UNL     1     -10.078   6.589  71.068  1.00  0.00    -0.208 A  
HETATM   19  C   UNL     1      -8.958   7.378  70.872  1.00  0.00    -0.149 A  
HETATM   20  C   UNL     1      -8.344   7.405  69.618  1.00  0.00    -0.132 A  
HETATM   21  C   UNL     1      -8.825   6.651  68.523  1.00  0.00    -0.122 A  
ENDBRANCH   6   7
ENDBRANCH   5   6
ENDBRANCH   4   5
ENDBRANCH   2   4
TORSDOF 4
ENDMDL
MODEL      230
REMARK 921   NORMALIZED FREE ENERGY PREDICTED BY IDOCK:   -1.70 KCAL/MOL
REMARK 922        TOTAL FREE ENERGY PREDICTED BY IDOCK:   -2.39 KCAL/MOL
REMARK 923 INTER-LIGAND FREE ENERGY PREDICTED BY IDOCK:   -2.13 KCAL/MOL
REMARK 924 INTRA-LIGAND FREE ENERGY PREDICTED BY IDOCK:   -0.26 KCAL/MOL
REMARK 927      BINDING AFFINITY PREDICTED BY RF-SCORE:    0.00 PKD
ROOT
HETATM    1  C   UNL     1      -7.858   4.715  65.738  1.00  0.00    -0.095 C  
HETATM    2  N   UNL     1      -8.552   4.149  66.898  1.00  0.00    -0.107 NA 
HETATM    3  C   UNL     1      -9.585   3.214  66.440  1.00  0.00     0.046 C  
ENDROOT
BRANCH   2   4
HETATM    4  C   UNL     1      -7.633   3.465  67.823  1.00  0.00    -0.065 C  
BRANCH   4   5
HETATM    5  C   UNL     1      -8.276   2.993  69.131  1.00  0.00    -0.077 C  
BRANCH   5   6
HETATM    6  C   UNL     1      -9.607   3.685  69.453  1.00  0.00    -0.126 C  
BRANCH   6   7
HETATM    7  N   UNL     1      -9.446   4.674  70.551  1.00  0.00    -0.161 NA 
HETATM    8  C   UNL     1      -8.908   5.912  70.144  1.00  0.00    -0.142 A  
HETATM    9  C   UNL     1      -9.722   6.821  69.450  1.00  0.00    -0.155 A  
HETATM   10  C   UNL     1      -9.248   8.083  69.085  1.00  0.00    -0.151 A  
HETATM   11  C   UNL     1      -7.941   8.445  69.386  1.00  0.00    -0.112 A  
HETATM   12  C   UNL     1      -7.118   7.553  70.070  1.00  0.00    -0.060 A  
HETATM   13  C   UNL     1      -7.597   6.290  70.460  1.00  0.00    -0.096 A  
HETATM   14  C   UNL     1      -6.729   5.375  71.273  1.00  0.00    -0.048 C  
HETATM   15  C   UNL     1      -7.272   5.226  72.688  1.00  0.00    -0.089 C  
HETATM   16  C   UNL     1      -8.583   4.491  72.886  1.00  0.00    -0.109 A  
HETATM   17  C   UNL     1      -8.842   4.084  74.215  1.00  0.00    -0.095 A  
HETATM   18  C   UNL     1     -10.003   3.397  74.559  1.00  0.00    -0.190 A  
HETATM   19  C   UNL     1     -10.931   3.099  73.576  1.00  0.00    -0.323 A  
HETATM   20  C   UNL     1     -10.697   3.499  72.260  1.00  0.00     0.161 A  
HETATM   21  C   UNL     1      -9.533   4.208  71.880  1.00  0.00    -0.140 A  
ENDBRANCH   6   7
ENDBRANCH   5   6
ENDBRANCH   4   5
ENDBRANCH   2   4
TORSDOF 4
ENDMDL
MODEL      231
REMARK 921   NORMALIZED FREE ENERGY PREDICTED BY IDOCK:   -1.66 KCAL/MOL
REMARK 922        TOTAL FREE ENERGY PREDICTED BY IDOCK:   -2.34 KCAL/MOL
REMARK 923 INTER-LIGAND FREE ENERGY PREDICTED BY IDOCK:   -2.78 KCAL/MOL
REMARK 924 INTRA-LIGAND FREE ENERGY PREDICTED BY IDOCK:    0.44 KCAL/MOL
REMARK 927      BINDING AFFINITY PREDICTED BY RF-SCORE:    0.00 PKD
ROOT
HETATM    1  C   UNL     1      -6.656  12.185  68.909  1.00  0.00    -0.090 C  
HETATM    2  N   UNL     1      -7.509  11.147  68.324  1.00  0.00    -0.088 NA 
HETATM    3  C   UNL     1      -8.837  11.705  68.050  1.00  0.00    -0.162 C  
ENDROOT
BRANCH   2   4
HETATM    4  C   UNL     1      -6.940  10.583  67.088  1.00  0.00    -0.089 C  
BRANCH   4   5
HETATM    5  C   UNL     1      -6.341   9.182  67.240  1.00  0.00    -0.059 C  
BRANCH   5   6
HETATM    6  C   UNL     1      -6.652   8.519  68.589  1.00  0.00    -0.055 C  
BRANCH   6   7
HETATM    7  N   UNL     1      -7.893   7.703  68.513  1.00  0.00    -0.119 NA 
HETATM    8  C   UNL     1      -8.697   7.759  69.669  1.00  0.00    -0.135 A  
HETATM    9  C   UNL     1      -9.470   8.905  69.915  1.00  0.00    -0.177 A  
HETATM   10  C   UNL     1     -10.329   8.977  71.015  1.00  0.00    -0.348 A  
HETATM   11  C   UNL     1     -10.407   7.910  71.901  1.00  0.00    -0.271 A  
HETATM   12  C   UNL     1      -9.643   6.766  71.675  1.00  0.00    -0.163 A  
HETATM   13  C   UNL     1      -8.795   6.681  70.557  1.00  0.00    -0.152 A  
HETATM   14  C   UNL     1      -8.046   5.411  70.278  1.00  0.00    -0.097 C  
HETATM   15  C   UNL     1      -8.583   4.727  69.027  1.00  0.00    -0.093 C  
HETATM   16  C   UNL     1      -8.358   5.395  67.685  1.00  0.00    -0.099 A  
HETATM   17  C   UNL     1      -8.557   4.558  66.563  1.00  0.00    -0.112 A  
HETATM   18  C   UNL     1      -8.389   5.022  65.262  1.00  0.00    -0.135 A  
HETATM   19  C   UNL     1      -8.013   6.338  65.054  1.00  0.00    -0.120 A  
HETATM   20  C   UNL     1      -7.819   7.182  66.149  1.00  0.00    -0.105 A  
HETATM   21  C   UNL     1      -7.993   6.744  67.483  1.00  0.00    -0.115 A  
ENDBRANCH   6   7
ENDBRANCH   5   6
ENDBRANCH   4   5
ENDBRANCH   2   4
TORSDOF 4
ENDMDL
MODEL      232
REMARK 921   NORMALIZED FREE ENERGY PREDICTED BY IDOCK:   -1.47 KCAL/MOL
REMARK 922        TOTAL FREE ENERGY PREDICTED BY IDOCK:   -2.11 KCAL/MOL
REMARK 923 INTER-LIGAND FREE ENERGY PREDICTED BY IDOCK:   -2.66 KCAL/MOL
REMARK 924 INTRA-LIGAND FREE ENERGY PREDICTED BY IDOCK:    0.55 KCAL/MOL
REMARK 927      BINDING AFFINITY PREDICTED BY RF-SCORE:    0.00 PKD
ROOT
HETATM    1  C   UNL     1      -8.869  11.608  68.125  1.00  0.00    -0.164 C  
HETATM    2  N   UNL     1      -8.156  10.387  67.737  1.00  0.00    -0.103 NA 
HETATM    3  C   UNL     1      -6.711  10.624  67.804  1.00  0.00    -0.068 C  
ENDROOT
BRANCH   2   4
HETATM    4  C   UNL     1      -8.514   9.236  68.583  1.00  0.00    -0.123 C  
BRANCH   4   5
HETATM    5  C   UNL     1      -8.545   9.531  70.085  1.00  0.00    -0.250 C  
BRANCH   5   6
HETATM    6  C   UNL     1      -9.383   8.532  70.895  1.00  0.00    -0.174 C  
BRANCH   6   7
HETATM    7  N   UNL     1      -8.672   7.235  71.049  1.00  0.00    -0.139 NA 
HETATM    8  C   UNL     1      -9.045   6.253  70.110  1.00  0.00    -0.153 A  
HETATM    9  C   UNL     1      -8.578   6.349  68.790  1.00  0.00    -0.123 A  
HETATM   10  C   UNL     1      -8.871   5.363  67.844  1.00  0.00    -0.105 A  
HETATM   11  C   UNL     1      -9.662   4.278  68.201  1.00  0.00    -0.165 A  
HETATM   12  C   UNL     1     -10.139   4.169  69.505  1.00  0.00     0.125 A  
HETATM   13  C   UNL     1      -9.827   5.147  70.466  1.00  0.00    -0.285 A  
HETATM   14  C   UNL     1     -10.274   4.972  71.888  1.00  0.00    -0.267 C  
HETATM   15  C   UNL     1      -9.084   4.715  72.804  1.00  0.00    -0.134 C  
HETATM   16  C   UNL     1      -8.096   5.841  73.038  1.00  0.00    -0.118 A  
HETATM   17  C   UNL     1      -7.239   5.660  74.147  1.00  0.00    -0.085 A  
HETATM   18  C   UNL     1      -6.278   6.605  74.495  1.00  0.00    -0.073 A  
HETATM   19  C   UNL     1      -6.155   7.758  73.739  1.00  0.00    -0.071 A  
HETATM   20  C   UNL     1      -6.987   7.951  72.635  1.00  0.00    -0.091 A  
HETATM   21  C   UNL     1      -7.966   7.005  72.249  1.00  0.00    -0.092 A  
ENDBRANCH   6   7
ENDBRANCH   5   6
ENDBRANCH   4   5
ENDBRANCH   2   4
TORSDOF 4
ENDMDL
MODEL      233
REMARK 921   NORMALIZED FREE ENERGY PREDICTED BY IDOCK:   -1.01 KCAL/MOL
REMARK 922        TOTAL FREE ENERGY PREDICTED BY IDOCK:   -1.54 KCAL/MOL
REMARK 923 INTER-LIGAND FREE ENERGY PREDICTED BY IDOCK:   -1.65 KCAL/MOL
REMARK 924 INTRA-LIGAND FREE ENERGY PREDICTED BY IDOCK:    0.11 KCAL/MOL
REMARK 927      BINDING AFFINITY PREDICTED BY RF-SCORE:    0.00 PKD
ROOT
HETATM    1  C   UNL     1     -10.664   7.119  67.465  1.00  0.00    -0.274 C  
HETATM    2  N   UNL     1      -9.866   8.290  67.840  1.00  0.00    -0.162 NA 
HETATM    3  C   UNL     1     -10.758   9.423  68.107  1.00  0.00    -0.178 C  
ENDROOT
BRANCH   2   4
HETATM    4  C   UNL     1      -9.015   8.036  69.015  1.00  0.00    -0.145 C  
BRANCH   4   5
HETATM    5  C   UNL     1      -8.029   6.876  68.853  1.00  0.00    -0.116 C  
BRANCH   5   6
HETATM    6  C   UNL     1      -6.645   7.305  68.346  1.00  0.00    -0.049 C  
BRANCH   6   7
HETATM    7  N   UNL     1      -6.481   6.988  66.903  1.00  0.00    -0.052 NA 
HETATM    8  C   UNL     1      -6.491   8.114  66.055  1.00  0.00    -0.046 A  
HETATM    9  C   UNL     1      -5.359   8.943  65.999  1.00  0.00    -0.037 A  
HETATM   10  C   UNL     1      -5.302  10.032  65.126  1.00  0.00    -0.063 A  
HETATM   11  C   UNL     1      -6.391  10.324  64.313  1.00  0.00    -0.096 A  
HETATM   12  C   UNL     1      -7.525   9.515  64.361  1.00  0.00    -0.118 A  
HETATM   13  C   UNL     1      -7.577   8.404  65.221  1.00  0.00    -0.090 A  
HETATM   14  C   UNL     1      -8.768   7.492  65.197  1.00  0.00     0.106 C  
HETATM   15  C   UNL     1      -8.398   6.129  64.625  1.00  0.00    -0.044 C  
HETATM   16  C   UNL     1      -7.472   5.236  65.427  1.00  0.00    -0.077 A  
HETATM   17  C   UNL     1      -7.456   3.881  65.023  1.00  0.00    -0.077 A  
HETATM   18  C   UNL     1      -6.659   2.935  65.661  1.00  0.00    -0.036 A  
HETATM   19  C   UNL     1      -5.861   3.324  66.722  1.00  0.00    -0.023 A  
HETATM   20  C   UNL     1      -5.857   4.659  67.130  1.00  0.00    -0.022 A  
HETATM   21  C   UNL     1      -6.647   5.646  66.496  1.00  0.00    -0.056 A  
ENDBRANCH   6   7
ENDBRANCH   5   6
ENDBRANCH   4   5
ENDBRANCH   2   4
TORSDOF 4
ENDMDL
MODEL      234
REMARK 921   NORMALIZED FREE ENERGY PREDICTED BY IDOCK:   -0.58 KCAL/MOL
REMARK 922        TOTAL FREE ENERGY PREDICTED BY IDOCK:   -1.01 KCAL/MOL
REMARK 923 INTER-LIGAND FREE ENERGY PREDICTED BY IDOCK:   -1.93 KCAL/MOL
REMARK 924 INTRA-LIGAND FREE ENERGY PREDICTED BY IDOCK:    0.93 KCAL/MOL
REMARK 927      BINDING AFFINITY PREDICTED BY RF-SCORE:    0.00 PKD
ROOT
HETATM    1  C   UNL     1      -7.824   4.666  65.721  1.00  0.00    -0.095 C  
HETATM    2  N   UNL     1      -8.173   3.908  66.927  1.00  0.00    -0.099 NA 
HETATM    3  C   UNL     1      -9.330   3.051  66.646  1.00  0.00    -0.083 C  
ENDROOT
BRANCH   2   4
HETATM    4  C   UNL     1      -7.053   3.090  67.419  1.00  0.00    -0.053 C  
BRANCH   4   5
HETATM    5  C   UNL     1      -7.346   2.309  68.703  1.00  0.00    -0.044 C  
BRANCH   5   6
HETATM    6  C   UNL     1      -8.585   2.806  69.461  1.00  0.00    -0.068 C  
BRANCH   6   7
HETATM    7  N   UNL     1      -8.216   3.819  70.485  1.00  0.00    -0.057 NA 
HETATM    8  C   UNL     1      -7.711   3.276  71.684  1.00  0.00    -0.053 A  
HETATM    9  C   UNL     1      -6.400   2.773  71.713  1.00  0.00    -0.015 A  
HETATM   10  C   UNL     1      -5.838   2.285  72.895  1.00  0.00    -0.008 A  
HETATM   11  C   UNL     1      -6.592   2.267  74.063  1.00  0.00    -0.021 A  
HETATM   12  C   UNL     1      -7.896   2.757  74.050  1.00  0.00    -0.060 A  
HETATM   13  C   UNL     1      -8.458   3.271  72.868  1.00  0.00    -0.081 A  
HETATM   14  C   UNL     1      -9.831   3.875  72.890  1.00  0.00    -0.191 C  
HETATM   15  C   UNL     1      -9.766   5.381  72.667  1.00  0.00    -0.173 C  
HETATM   16  C   UNL     1      -9.340   5.892  71.305  1.00  0.00    -0.172 A  
HETATM   17  C   UNL     1      -9.639   7.251  71.059  1.00  0.00    -0.158 A  
HETATM   18  C   UNL     1      -9.313   7.869  69.855  1.00  0.00    -0.156 A  
HETATM   19  C   UNL     1      -8.682   7.135  68.865  1.00  0.00    -0.128 A  
HETATM   20  C   UNL     1      -8.372   5.793  69.092  1.00  0.00    -0.105 A  
HETATM   21  C   UNL     1      -8.680   5.140  70.308  1.00  0.00    -0.116 A  
ENDBRANCH   6   7
ENDBRANCH   5   6
ENDBRANCH   4   5
ENDBRANCH   2   4
TORSDOF 4
ENDMDL
MODEL      235
REMARK 921   NORMALIZED FREE ENERGY PREDICTED BY IDOCK:    3.82 KCAL/MOL
REMARK 922        TOTAL FREE ENERGY PREDICTED BY IDOCK:    4.42 KCAL/MOL
REMARK 923 INTER-LIGAND FREE ENERGY PREDICTED BY IDOCK:    4.21 KCAL/MOL
REMARK 924 INTRA-LIGAND FREE ENERGY PREDICTED BY IDOCK:    0.22 KCAL/MOL
REMARK 927      BINDING AFFINITY PREDICTED BY RF-SCORE:    0.00 PKD
ROOT
HETATM    1  C   UNL     1      -8.068  18.269  67.972  1.00  0.00    -0.270 C  
HETATM    2  N   UNL     1      -6.975  18.040  67.023  1.00  0.00    -0.185 NA 
HETATM    3  C   UNL     1      -5.788  18.781  67.458  1.00  0.00    -0.170 C  
ENDROOT
BRANCH   2   4
HETATM    4  C   UNL     1      -6.648  16.611  66.879  1.00  0.00    -0.207 C  
BRANCH   4   5
HETATM    5  C   UNL     1      -7.827  15.722  66.471  1.00  0.00    -0.098 C  
BRANCH   5   6
HETATM    6  C   UNL     1      -7.464  14.237  66.331  1.00  0.00     2.096 C  
BRANCH   6   7
HETATM    7  N   UNL     1      -8.002  13.444  67.466  1.00  0.00    -0.172 NA 
HETATM    8  C   UNL     1      -8.381  14.214  68.585  1.00  0.00    -0.123 A  
HETATM    9  C   UNL     1      -9.573  14.953  68.540  1.00  0.00    -0.215 A  
HETATM   10  C   UNL     1     -10.019  15.677  69.648  1.00  0.00    -0.290 A  
HETATM   11  C   UNL     1      -9.259  15.695  70.812  1.00  0.00     1.913 A  
HETATM   12  C   UNL     1      -8.070  14.972  70.872  1.00  0.00     2.199 A  
HETATM   13  C   UNL     1      -7.630  14.222  69.767  1.00  0.00     0.327 A  
HETATM   14  C   UNL     1      -6.394  13.378  69.876  1.00  0.00    -0.060 C  
HETATM   15  C   UNL     1      -6.743  11.896  69.837  1.00  0.00     0.119 C  
HETATM   16  C   UNL     1      -7.275  11.312  68.543  1.00  0.00    -0.094 A  
HETATM   17  C   UNL     1      -7.240   9.901  68.468  1.00  0.00    -0.076 A  
HETATM   18  C   UNL     1      -7.691   9.214  67.345  1.00  0.00    -0.092 A  
HETATM   19  C   UNL     1      -8.186   9.927  66.266  1.00  0.00    -0.114 A  
HETATM   20  C   UNL     1      -8.237  11.321  66.325  1.00  0.00    -0.126 A  
HETATM   21  C   UNL     1      -7.796  12.048  67.456  1.00  0.00    -0.155 A  
ENDBRANCH   6   7
ENDBRANCH   5   6
ENDBRANCH   4   5
ENDBRANCH   2   4
TORSDOF 4
ENDMDL
MODEL      236
REMARK 921   NORMALIZED FREE ENERGY PREDICTED BY IDOCK:    4.62 KCAL/MOL
REMARK 922        TOTAL FREE ENERGY PREDICTED BY IDOCK:    5.41 KCAL/MOL
REMARK 923 INTER-LIGAND FREE ENERGY PREDICTED BY IDOCK:    0.24 KCAL/MOL
REMARK 924 INTRA-LIGAND FREE ENERGY PREDICTED BY IDOCK:    5.17 KCAL/MOL
REMARK 927      BINDING AFFINITY PREDICTED BY RF-SCORE:    0.00 PKD
ROOT
HETATM    1  C   UNL     1     -10.078  15.628  67.776  1.00  0.00    -0.226 C  
HETATM    2  N   UNL     1      -9.854  14.640  68.836  1.00  0.00    -0.224 NA 
HETATM    3  C   UNL     1      -8.657  13.852  68.523  1.00  0.00    -0.137 C  
ENDROOT
BRANCH   2   4
HETATM    4  C   UNL     1      -9.710  15.263  70.162  1.00  0.00     0.138 C  
BRANCH   4   5
HETATM    5  C   UNL     1      -9.775  16.793  70.161  1.00  0.00     1.127 C  
BRANCH   5   6
HETATM    6  C   UNL     1      -9.498  17.424  68.790  1.00  0.00    -0.256 C  
BRANCH   6   7
HETATM    7  N   UNL     1      -8.045  17.675  68.599  1.00  0.00    -0.282 NA 
HETATM    8  C   UNL     1      -7.750  18.743  67.727  1.00  0.00    -0.237 A  
HETATM    9  C   UNL     1      -7.916  20.063  68.175  1.00  0.00    -0.243 A  
HETATM   10  C   UNL     1      -7.575  21.150  67.367  1.00  0.00    -0.092 A  
HETATM   11  C   UNL     1      -7.087  20.931  66.084  1.00  0.00    -0.029 A  
HETATM   12  C   UNL     1      -6.921  19.627  65.621  1.00  0.00    -0.325 A  
HETATM   13  C   UNL     1      -7.241  18.530  66.440  1.00  0.00    -0.270 A  
HETATM   14  C   UNL     1      -6.974  17.133  65.961  1.00  0.00    -0.080 C  
HETATM   15  C   UNL     1      -5.849  16.489  66.762  1.00  0.00     0.031 C  
HETATM   16  C   UNL     1      -6.096  16.161  68.221  1.00  0.00    -0.112 A  
HETATM   17  C   UNL     1      -5.167  15.264  68.796  1.00  0.00    -0.095 A  
HETATM   18  C   UNL     1      -5.259  14.863  70.125  1.00  0.00    -0.104 A  
HETATM   19  C   UNL     1      -6.288  15.350  70.911  1.00  0.00     0.451 A  
HETATM   20  C   UNL     1      -7.212  16.244  70.365  1.00  0.00     1.422 A  
HETATM   21  C   UNL     1      -7.139  16.678  69.021  1.00  0.00    -0.216 A  
ENDBRANCH   6   7
ENDBRANCH   5   6
ENDBRANCH   4   5
ENDBRANCH   2   4
TORSDOF 4
ENDMDL
MODEL      237
REMARK 921   NORMALIZED FREE ENERGY PREDICTED BY IDOCK:   13.66 KCAL/MOL
REMARK 922        TOTAL FREE ENERGY PREDICTED BY IDOCK:   16.55 KCAL/MOL
REMARK 923 INTER-LIGAND FREE ENERGY PREDICTED BY IDOCK:   16.30 KCAL/MOL
REMARK 924 INTRA-LIGAND FREE ENERGY PREDICTED BY IDOCK:    0.25 KCAL/MOL
REMARK 927      BINDING AFFINITY PREDICTED BY RF-SCORE:    0.00 PKD
ROOT
HETATM    1  C   UNL     1      -8.823  13.314  65.563  1.00  0.00     1.287 C  
HETATM    2  N   UNL     1      -9.985  13.065  64.705  1.00  0.00    -0.193 NA 
HETATM    3  C   UNL     1     -10.923  12.179  65.400  1.00  0.00    -0.302 C  
ENDROOT
BRANCH   2   4
HETATM    4  C   UNL     1     -10.669  14.308  64.311  1.00  0.00     0.114 C  
BRANCH   4   5
HETATM    5  C   UNL     1     -11.141  15.176  65.481  1.00  0.00    -0.347 C  
BRANCH   5   6
HETATM    6  C   UNL     1     -10.476  16.559  65.534  1.00  0.00    -0.301 C  
BRANCH   6   7
HETATM    7  N   UNL     1     -10.530  17.127  66.906  1.00  0.00    -0.305 NA 
HETATM    8  C   UNL     1     -10.994  18.457  66.967  1.00  0.00    -0.021 A  
HETATM    9  C   UNL     1     -12.365  18.715  66.810  1.00  0.00     4.847 A  
HETATM   10  C   UNL     1     -12.875  20.010  66.926  1.00  0.00     5.149 A  
HETATM   11  C   UNL     1     -12.015  21.073  67.175  1.00  0.00     5.885 A  
HETATM   12  C   UNL     1     -10.650  20.835  67.328  1.00  0.00     0.631 A  
HETATM   13  C   UNL     1     -10.135  19.530  67.235  1.00  0.00    -0.523 A  
HETATM   14  C   UNL     1      -8.678  19.278  67.489  1.00  0.00    -0.335 C  
HETATM   15  C   UNL     1      -8.479  18.497  68.782  1.00  0.00    -0.271 C  
HETATM   16  C   UNL     1      -8.947  17.057  68.836  1.00  0.00    -0.210 A  
HETATM   17  C   UNL     1      -8.424  16.300  69.909  1.00  0.00     0.812 A  
HETATM   18  C   UNL     1      -8.756  14.962  70.095  1.00  0.00     0.731 A  
HETATM   19  C   UNL     1      -9.621  14.347  69.206  1.00  0.00     0.109 A  
HETATM   20  C   UNL     1     -10.155  15.080  68.144  1.00  0.00    -0.220 A  
HETATM   21  C   UNL     1      -9.845  16.444  67.934  1.00  0.00    -0.238 A  
ENDBRANCH   6   7
ENDBRANCH   5   6
ENDBRANCH   4   5
ENDBRANCH   2   4
TORSDOF 4
ENDMDL
MODEL      238
REMARK 921   NORMALIZED FREE ENERGY PREDICTED BY IDOCK:   18.27 KCAL/MOL
REMARK 922        TOTAL FREE ENERGY PREDICTED BY IDOCK:   22.24 KCAL/MOL
REMARK 923 INTER-LIGAND FREE ENERGY PREDICTED BY IDOCK:   22.01 KCAL/MOL
REMARK 924 INTRA-LIGAND FREE ENERGY PREDICTED BY IDOCK:    0.24 KCAL/MOL
REMARK 927      BINDING AFFINITY PREDICTED BY RF-SCORE:    0.00 PKD
ROOT
HETATM    1  C   UNL     1      -7.485  12.071  69.951  1.00  0.00     1.141 C  
HETATM    2  N   UNL     1      -8.140  10.922  70.585  1.00  0.00     1.654 NA 
HETATM    3  C   UNL     1      -9.017  11.394  71.661  1.00  0.00    12.304 C  
ENDROOT
BRANCH   2   4
HETATM    4  C   UNL     1      -8.915  10.118  69.624  1.00  0.00    -0.169 C  
BRANCH   4   5
HETATM    5  C   UNL     1      -8.238   9.916  68.266  1.00  0.00    -0.109 C  
BRANCH   5   6
HETATM    6  C   UNL     1      -8.668   8.631  67.545  1.00  0.00    -0.135 C  
BRANCH   6   7
HETATM    7  N   UNL     1      -7.931   8.462  66.265  1.00  0.00    -0.097 NA 
HETATM    8  C   UNL     1      -7.868   9.626  65.472  1.00  0.00    -0.111 A  
HETATM    9  C   UNL     1      -6.991  10.660  65.837  1.00  0.00    -0.116 A  
HETATM   10  C   UNL     1      -6.850  11.802  65.046  1.00  0.00     2.718 A  
HETATM   11  C   UNL     1      -7.608  11.939  63.889  1.00  0.00     3.229 A  
HETATM   12  C   UNL     1      -8.487  10.926  63.515  1.00  0.00     0.056 A  
HETATM   13  C   UNL     1      -8.615   9.764  64.296  1.00  0.00    -0.202 A  
HETATM   14  C   UNL     1      -9.500   8.643  63.835  1.00  0.00     1.581 C  
HETATM   15  C   UNL     1      -8.674   7.425  63.441  1.00  0.00     0.689 C  
HETATM   16  C   UNL     1      -7.936   6.669  64.528  1.00  0.00    -0.106 A  
HETATM   17  C   UNL     1      -7.495   5.377  64.160  1.00  0.00    -0.060 A  
HETATM   18  C   UNL     1      -6.804   4.557  65.047  1.00  0.00    -0.049 A  
HETATM   19  C   UNL     1      -6.542   5.011  66.328  1.00  0.00    -0.049 A  
HETATM   20  C   UNL     1      -6.963   6.287  66.707  1.00  0.00    -0.068 A  
HETATM   21  C   UNL     1      -7.657   7.148  65.826  1.00  0.00    -0.094 A  
ENDBRANCH   6   7
ENDBRANCH   5   6
ENDBRANCH   4   5
ENDBRANCH   2   4
TORSDOF 4
ENDMDL
MODEL      239
REMARK 921   NORMALIZED FREE ENERGY PREDICTED BY IDOCK:   18.53 KCAL/MOL
REMARK 922        TOTAL FREE ENERGY PREDICTED BY IDOCK:   22.57 KCAL/MOL
REMARK 923 INTER-LIGAND FREE ENERGY PREDICTED BY IDOCK:   17.83 KCAL/MOL
REMARK 924 INTRA-LIGAND FREE ENERGY PREDICTED BY IDOCK:    4.75 KCAL/MOL
REMARK 927      BINDING AFFINITY PREDICTED BY RF-SCORE:    0.00 PKD
ROOT
HETATM    1  C   UNL     1     -10.529  21.182  66.786  1.00  0.00     1.846 C  
HETATM    2  N   UNL     1     -10.611  20.675  68.159  1.00  0.00     0.154 NA 
HETATM    3  C   UNL     1     -11.026  19.269  68.135  1.00  0.00     0.207 C  
ENDROOT
BRANCH   2   4
HETATM    4  C   UNL     1      -9.335  20.808  68.882  1.00  0.00     1.111 C  
BRANCH   4   5
HETATM    5  C   UNL     1      -8.178  21.359  68.044  1.00  0.00     1.018 C  
BRANCH   5   6
HETATM    6  C   UNL     1      -6.933  20.461  68.038  1.00  0.00    -0.282 C  
BRANCH   6   7
HETATM    7  N   UNL     1      -7.146  19.256  67.194  1.00  0.00    -0.203 NA 
HETATM    8  C   UNL     1      -7.456  19.536  65.848  1.00  0.00    -0.300 A  
HETATM    9  C   UNL     1      -6.436  19.960  64.981  1.00  0.00    -0.324 A  
HETATM   10  C   UNL     1      -6.686  20.187  63.626  1.00  0.00     0.692 A  
HETATM   11  C   UNL     1      -7.970  20.019  63.123  1.00  0.00     6.843 A  
HETATM   12  C   UNL     1      -8.996  19.605  63.970  1.00  0.00     7.858 A  
HETATM   13  C   UNL     1      -8.743  19.353  65.330  1.00  0.00     1.000 A  
HETATM   14  C   UNL     1      -9.837  18.823  66.211  1.00  0.00    -0.382 C  
HETATM   15  C   UNL     1      -9.550  17.385  66.627  1.00  0.00    -0.283 C  
HETATM   16  C   UNL     1      -8.388  17.122  67.564  1.00  0.00    -0.199 A  
HETATM   17  C   UNL     1      -8.396  15.850  68.181  1.00  0.00    -0.162 A  
HETATM   18  C   UNL     1      -7.399  15.458  69.068  1.00  0.00    -0.159 A  
HETATM   19  C   UNL     1      -6.369  16.334  69.363  1.00  0.00    -0.184 A  
HETATM   20  C   UNL     1      -6.339  17.592  68.758  1.00  0.00    -0.200 A  
HETATM   21  C   UNL     1      -7.331  18.017  67.844  1.00  0.00    -0.224 A  
ENDBRANCH   6   7
ENDBRANCH   5   6
ENDBRANCH   4   5
ENDBRANCH   2   4
TORSDOF 4
ENDMDL
MODEL      240
REMARK 921   NORMALIZED FREE ENERGY PREDICTED BY IDOCK:   18.59 KCAL/MOL
REMARK 922        TOTAL FREE ENERGY PREDICTED BY IDOCK:   22.65 KCAL/MOL
REMARK 923 INTER-LIGAND FREE ENERGY PREDICTED BY IDOCK:   22.43 KCAL/MOL
REMARK 924 INTRA-LIGAND FREE ENERGY PREDICTED BY IDOCK:    0.21 KCAL/MOL
REMARK 927      BINDING AFFINITY PREDICTED BY RF-SCORE:    0.00 PKD
ROOT
HETATM    1  C   UNL     1      -8.189  12.833  69.886  1.00  0.00     2.519 C  
HETATM    2  N   UNL     1      -8.841  11.638  70.429  1.00  0.00     3.366 NA 
HETATM    3  C   UNL     1      -9.758  12.028  71.504  1.00  0.00    12.834 C  
ENDROOT
BRANCH   2   4
HETATM    4  C   UNL     1      -9.572  10.881  69.398  1.00  0.00     0.036 C  
BRANCH   4   5
HETATM    5  C   UNL     1      -9.153  11.192  67.958  1.00  0.00    -0.153 C  
BRANCH   5   6
HETATM    6  C   UNL     1      -9.370  10.025  66.985  1.00  0.00    -0.154 C  
BRANCH   6   7
HETATM    7  N   UNL     1      -8.905  10.374  65.617  1.00  0.00    -0.166 NA 
HETATM    8  C   UNL     1      -9.338  11.636  65.160  1.00  0.00    -0.061 A  
HETATM    9  C   UNL     1      -8.726  12.796  65.661  1.00  0.00     0.989 A  
HETATM   10  C   UNL     1      -9.079  14.062  65.189  1.00  0.00     1.504 A  
HETATM   11  C   UNL     1     -10.073  14.188  64.226  1.00  0.00     0.837 A  
HETATM   12  C   UNL     1     -10.695  13.047  63.722  1.00  0.00    -0.222 A  
HETATM   13  C   UNL     1     -10.326  11.769  64.177  1.00  0.00    -0.376 A  
HETATM   14  C   UNL     1     -10.941  10.547  63.563  1.00  0.00     1.121 C  
HETATM   15  C   UNL     1      -9.913   9.771  62.749  1.00  0.00     0.961 C  
HETATM   16  C   UNL     1      -8.780   9.082  63.484  1.00  0.00    -0.097 A  
HETATM   17  C   UNL     1      -8.086   8.109  62.730  1.00  0.00    -0.151 A  
HETATM   18  C   UNL     1      -7.022   7.387  63.264  1.00  0.00    -0.060 A  
HETATM   19  C   UNL     1      -6.631   7.622  64.571  1.00  0.00    -0.048 A  
HETATM   20  C   UNL     1      -7.299   8.585  65.329  1.00  0.00    -0.084 A  
HETATM   21  C   UNL     1      -8.376   9.342  64.812  1.00  0.00    -0.162 A  
ENDBRANCH   6   7
ENDBRANCH   5   6
ENDBRANCH   4   5
ENDBRANCH   2   4
TORSDOF 4
ENDMDL
MODEL      241
REMARK 921   NORMALIZED FREE ENERGY PREDICTED BY IDOCK:   49.41 KCAL/MOL
REMARK 922        TOTAL FREE ENERGY PREDICTED BY IDOCK:   60.67 KCAL/MOL
REMARK 923 INTER-LIGAND FREE ENERGY PREDICTED BY IDOCK:   12.55 KCAL/MOL
REMARK 924 INTRA-LIGAND FREE ENERGY PREDICTED BY IDOCK:   48.12 KCAL/MOL
REMARK 927      BINDING AFFINITY PREDICTED BY RF-SCORE:    0.00 PKD
ROOT
HETATM    1  C   UNL     1      -9.103  15.590  68.905  1.00  0.00    -0.219 C  
HETATM    2  N   UNL     1      -8.570  14.684  69.927  1.00  0.00     0.412 NA 
HETATM    3  C   UNL     1      -7.197  14.307  69.576  1.00  0.00    -0.003 C  
ENDROOT
BRANCH   2   4
HETATM    4  C   UNL     1      -8.596  15.281  71.273  1.00  0.00     3.642 C  
BRANCH   4   5
HETATM    5  C   UNL     1      -8.155  16.746  71.332  1.00  0.00     8.003 C  
BRANCH   5   6
HETATM    6  C   UNL     1      -8.031  17.412  69.955  1.00  0.00     1.487 C  
BRANCH   6   7
HETATM    7  N   UNL     1      -7.085  16.667  69.083  1.00  0.00    -0.223 NA 
HETATM    8  C   UNL     1      -6.883  17.249  67.815  1.00  0.00    -0.160 A  
HETATM    9  C   UNL     1      -6.079  18.394  67.703  1.00  0.00    -0.176 A  
HETATM   10  C   UNL     1      -5.800  18.965  66.459  1.00  0.00    -0.179 A  
HETATM   11  C   UNL     1      -6.346  18.412  65.307  1.00  0.00    -0.223 A  
HETATM   12  C   UNL     1      -7.151  17.278  65.400  1.00  0.00     1.241 A  
HETATM   13  C   UNL     1      -7.415  16.687  66.648  1.00  0.00    -0.311 A  
HETATM   14  C   UNL     1      -8.210  15.416  66.724  1.00  0.00    -0.252 C  
HETATM   15  C   UNL     1      -7.332  14.250  67.159  1.00  0.00     0.119 C  
HETATM   16  C   UNL     1      -6.795  14.240  68.577  1.00  0.00    -0.100 A  
HETATM   17  C   UNL     1      -6.300  12.991  69.017  1.00  0.00    -0.099 A  
HETATM   18  C   UNL     1      -5.775  12.817  70.294  1.00  0.00    -0.165 A  
HETATM   19  C   UNL     1      -5.737  13.893  71.164  1.00  0.00    -0.220 A  
HETATM   20  C   UNL     1      -6.213  15.137  70.745  1.00  0.00     0.141 A  
HETATM   21  C   UNL     1      -6.743  15.348  69.451  1.00  0.00    -0.166 A  
ENDBRANCH   6   7
ENDBRANCH   5   6
ENDBRANCH   4   5
ENDBRANCH   2   4
TORSDOF 4
ENDMDL
