MODEL        1
REMARK 921   NORMALIZED FREE ENERGY PREDICTED BY IDOCK:   -5.89 KCAL/MOL
REMARK 922        TOTAL FREE ENERGY PREDICTED BY IDOCK:   -9.16 KCAL/MOL
REMARK 923 INTER-LIGAND FREE ENERGY PREDICTED BY IDOCK:   -7.95 KCAL/MOL
REMARK 924 INTRA-LIGAND FREE ENERGY PREDICTED BY IDOCK:   -1.21 KCAL/MOL
REMARK 927      BINDING AFFINITY PREDICTED BY RF-SCORE:    0.00 PKD
ROOT
HETATM    1  C   UNL     1      -9.326  16.665  67.168  1.00  0.00    -0.228 C  
HETATM    2  C   UNL     1      -9.891  15.434  67.867  1.00  0.00    -0.219 C  
HETATM    3  C   UNL     1     -10.855  14.879  66.848  1.00  0.00    -0.319 C  
HETATM    4  C   UNL     1     -10.442  17.973  65.972  1.00  0.00    -0.313 C  
HETATM    5  C   UNL     1     -10.868  15.637  65.736  1.00  0.00    -0.306 C  
HETATM    6  N   UNL     1      -9.971  16.697  65.821  1.00  0.00    -0.282 N  
HETATM    7  C   UNL     1      -9.920  18.085  67.415  1.00  0.00    -0.328 C  
HETATM    8  C   UNL     1     -11.744  15.481  64.527  1.00  0.00    -0.253 C  
HETATM    9  O   UNL     1     -11.577  16.445  63.595  1.00  0.00    -0.926 OA 
HETATM   10  O   UNL     1     -12.499  14.544  64.329  1.00  0.00    -0.657 OA 
HETATM   11  O   UNL     1     -11.104  18.620  65.199  1.00  0.00    -0.449 OA 
ENDROOT
BRANCH   3  12
HETATM   12  S   UNL     1     -11.860  13.571  67.335  1.00  0.00    -0.374 SA 
BRANCH  12  13
HETATM   13  C   UNL     1     -11.279  12.132  66.389  1.00  0.00    -0.331 C  
BRANCH  13  14
HETATM   14  C   UNL     1      -9.917  12.291  65.713  1.00  0.00    -0.254 C  
BRANCH  14  15
HETATM   15  N   UNL     1     -10.107  12.420  64.256  1.00  0.00    -0.493 NA 
HETATM   16  H   UNL     1      -9.685  13.167  63.704  1.00  0.00     0.000 HD 
BRANCH  15  17
HETATM   17  C   UNL     1     -10.852  11.509  63.745  1.00  0.00    -0.416 C  
HETATM   18  H1  UNL     1     -12.562  11.056  62.631  1.00  0.00     0.000 HD 
HETATM   19  N   UNL     1     -11.970  11.781  63.036  1.00  0.00    -0.862 NA 
HETATM   20  H2  UNL     1     -12.234  12.756  62.902  1.00  0.00     0.000 HD 
ENDBRANCH  15  17
ENDBRANCH  14  15
ENDBRANCH  13  14
ENDBRANCH  12  13
ENDBRANCH   3  12
BRANCH   7  21
HETATM   21  C   UNL     1      -8.921  19.197  67.675  1.00  0.00    -0.298 C  
HETATM   22  O   UNL     1      -8.655  19.836  66.430  1.00  0.00    -0.335 OA 
HETATM   23  C   UNL     1      -7.624  18.645  68.251  1.00  0.00    -0.307 C  
HETATM   24  H   UNL     1      -8.030  20.532  66.593  1.00  0.00     0.000 HD 
ENDBRANCH   7  21
TORSDOF 6
ENDMDL
MODEL        2
REMARK 921   NORMALIZED FREE ENERGY PREDICTED BY IDOCK:   -5.87 KCAL/MOL
REMARK 922        TOTAL FREE ENERGY PREDICTED BY IDOCK:   -9.15 KCAL/MOL
REMARK 923 INTER-LIGAND FREE ENERGY PREDICTED BY IDOCK:   -8.52 KCAL/MOL
REMARK 924 INTRA-LIGAND FREE ENERGY PREDICTED BY IDOCK:   -0.63 KCAL/MOL
REMARK 927      BINDING AFFINITY PREDICTED BY RF-SCORE:    0.00 PKD
ROOT
HETATM    1  C   UNL     1     -11.194  13.346  66.472  1.00  0.00    -0.307 C  
HETATM    2  C   UNL     1     -11.515  12.851  67.877  1.00  0.00    -0.362 C  
HETATM    3  C   UNL     1     -11.017  11.427  67.856  1.00  0.00    -0.240 C  
HETATM    4  C   UNL     1     -11.393  12.201  64.730  1.00  0.00    -0.325 C  
HETATM    5  C   UNL     1     -10.489  11.121  66.656  1.00  0.00    -0.250 C  
HETATM    6  N   UNL     1     -10.520  12.204  65.785  1.00  0.00    -0.245 N  
HETATM    7  C   UNL     1     -12.260  13.317  65.336  1.00  0.00    -0.501 C  
HETATM    8  C   UNL     1      -9.963   9.792  66.196  1.00  0.00    -0.268 C  
HETATM    9  O   UNL     1      -9.562   9.774  64.905  1.00  0.00    -0.290 OA 
HETATM   10  O   UNL     1      -9.822   8.812  66.908  1.00  0.00    -0.186 OA 
HETATM   11  O   UNL     1     -11.411  11.458  63.779  1.00  0.00    -0.360 OA 
ENDROOT
BRANCH   3  12
HETATM   12  S   UNL     1     -11.372  10.440  69.218  1.00  0.00    -0.214 SA 
BRANCH  12  13
HETATM   13  C   UNL     1     -12.113  11.556  70.448  1.00  0.00    -0.382 C  
BRANCH  13  14
HETATM   14  C   UNL     1     -13.002  10.888  71.497  1.00  0.00    -0.451 C  
BRANCH  14  15
HETATM   15  N   UNL     1     -13.628   9.686  70.913  1.00  0.00    -0.551 NA 
HETATM   16  H   UNL     1     -13.849   9.600  69.921  1.00  0.00     0.000 HD 
BRANCH  15  17
HETATM   17  C   UNL     1     -13.870   8.759  71.766  1.00  0.00    -0.423 C  
HETATM   18  H1  UNL     1     -14.237   8.261  73.764  1.00  0.00     0.000 HD 
HETATM   19  N   UNL     1     -14.045   8.998  73.085  1.00  0.00    -1.223 NA 
HETATM   20  H2  UNL     1     -13.981   9.960  73.417  1.00  0.00     0.000 HD 
ENDBRANCH  15  17
ENDBRANCH  14  15
ENDBRANCH  13  14
ENDBRANCH  12  13
ENDBRANCH   3  12
BRANCH   7  21
HETATM   21  C   UNL     1     -12.393  14.580  64.504  1.00  0.00    -0.414 C  
HETATM   22  O   UNL     1     -12.463  14.187  63.136  1.00  0.00    -1.126 OA 
HETATM   23  C   UNL     1     -11.198  15.499  64.710  1.00  0.00    -0.399 C  
HETATM   24  H   UNL     1     -12.546  14.978  62.616  1.00  0.00     0.000 HD 
ENDBRANCH   7  21
TORSDOF 6
ENDMDL
MODEL        3
REMARK 921   NORMALIZED FREE ENERGY PREDICTED BY IDOCK:   -5.87 KCAL/MOL
REMARK 922        TOTAL FREE ENERGY PREDICTED BY IDOCK:   -9.15 KCAL/MOL
REMARK 923 INTER-LIGAND FREE ENERGY PREDICTED BY IDOCK:   -7.84 KCAL/MOL
REMARK 924 INTRA-LIGAND FREE ENERGY PREDICTED BY IDOCK:   -1.31 KCAL/MOL
REMARK 927      BINDING AFFINITY PREDICTED BY RF-SCORE:    0.00 PKD
ROOT
HETATM    1  C   UNL     1     -12.322  14.909  69.959  1.00  0.00    -0.312 C  
HETATM    2  C   UNL     1     -11.185  15.586  69.203  1.00  0.00    -0.300 C  
HETATM    3  C   UNL     1     -10.750  14.525  68.224  1.00  0.00    -0.240 C  
HETATM    4  C   UNL     1     -12.339  12.895  70.533  1.00  0.00    -0.283 C  
HETATM    5  C   UNL     1     -11.492  13.410  68.363  1.00  0.00    -0.316 C  
HETATM    6  N   UNL     1     -12.469  13.557  69.342  1.00  0.00    -0.103 N  
HETATM    7  C   UNL     1     -12.080  14.191  71.320  1.00  0.00    -0.363 C  
HETATM    8  C   UNL     1     -11.329  12.102  67.644  1.00  0.00    -0.314 C  
HETATM    9  O   UNL     1     -12.184  11.137  68.051  1.00  0.00    -0.584 OA 
HETATM   10  O   UNL     1     -10.558  11.905  66.720  1.00  0.00    -0.216 OA 
HETATM   11  O   UNL     1     -12.346  11.705  70.730  1.00  0.00    -0.376 OA 
ENDROOT
BRANCH   3  12
HETATM   12  S   UNL     1      -9.334  14.830  67.297  1.00  0.00    -0.214 SA 
BRANCH  12  13
HETATM   13  C   UNL     1      -9.919  15.580  65.747  1.00  0.00    -0.359 C  
BRANCH  13  14
HETATM   14  C   UNL     1     -11.271  15.079  65.239  1.00  0.00    -0.367 C  
BRANCH  14  15
HETATM   15  N   UNL     1     -11.069  13.864  64.428  1.00  0.00    -0.548 NA 
HETATM   16  H   UNL     1     -10.155  13.433  64.290  1.00  0.00     0.000 HD 
BRANCH  15  17
HETATM   17  C   UNL     1     -12.147  13.398  63.911  1.00  0.00    -0.455 C  
HETATM   18  H1  UNL     1     -13.798  12.134  64.131  1.00  0.00     0.000 HD 
HETATM   19  N   UNL     1     -12.941  12.505  64.542  1.00  0.00    -0.823 NA 
HETATM   20  H2  UNL     1     -12.671  12.186  65.472  1.00  0.00     0.000 HD 
ENDBRANCH  15  17
ENDBRANCH  14  15
ENDBRANCH  13  14
ENDBRANCH  12  13
ENDBRANCH   3  12
BRANCH   7  21
HETATM   21  C   UNL     1     -13.068  14.501  72.430  1.00  0.00    -0.402 C  
HETATM   22  O   UNL     1     -13.742  13.289  72.756  1.00  0.00    -0.669 OA 
HETATM   23  C   UNL     1     -14.083  15.544  71.985  1.00  0.00    -0.598 C  
HETATM   24  H   UNL     1     -14.360  13.484  73.451  1.00  0.00     0.000 HD 
ENDBRANCH   7  21
TORSDOF 6
ENDMDL
MODEL        4
REMARK 921   NORMALIZED FREE ENERGY PREDICTED BY IDOCK:   -5.85 KCAL/MOL
REMARK 922        TOTAL FREE ENERGY PREDICTED BY IDOCK:   -9.12 KCAL/MOL
REMARK 923 INTER-LIGAND FREE ENERGY PREDICTED BY IDOCK:   -7.95 KCAL/MOL
REMARK 924 INTRA-LIGAND FREE ENERGY PREDICTED BY IDOCK:   -1.17 KCAL/MOL
REMARK 927      BINDING AFFINITY PREDICTED BY RF-SCORE:    0.00 PKD
ROOT
HETATM    1  C   UNL     1     -10.222  10.530  66.231  1.00  0.00    -0.235 C  
HETATM    2  C   UNL     1     -10.406  11.383  67.480  1.00  0.00    -0.224 C  
HETATM    3  C   UNL     1     -11.395  12.430  67.034  1.00  0.00    -0.327 C  
HETATM    4  C   UNL     1     -10.130  11.282  64.279  1.00  0.00    -0.313 C  
HETATM    5  C   UNL     1     -11.746  12.242  65.748  1.00  0.00    -0.385 C  
HETATM    6  N   UNL     1     -11.128  11.122  65.201  1.00  0.00    -0.087 N  
HETATM    7  C   UNL     1      -9.043  10.778  65.243  1.00  0.00    -0.217 C  
HETATM    8  C   UNL     1     -12.636  13.105  64.902  1.00  0.00    -0.407 C  
HETATM    9  O   UNL     1     -12.744  12.697  63.618  1.00  0.00    -0.711 OA 
HETATM   10  O   UNL     1     -13.281  14.056  65.312  1.00  0.00    -0.782 OA 
HETATM   11  O   UNL     1     -10.206  11.757  63.172  1.00  0.00    -0.403 OA 
ENDROOT
BRANCH   3  12
HETATM   12  S   UNL     1     -11.726  13.724  68.116  1.00  0.00    -0.373 SA 
BRANCH  12  13
HETATM   13  C   UNL     1     -10.810  15.152  67.463  1.00  0.00    -0.301 C  
BRANCH  13  14
HETATM   14  C   UNL     1      -9.588  14.819  66.608  1.00  0.00    -0.272 C  
BRANCH  14  15
HETATM   15  N   UNL     1      -9.818  15.279  65.225  1.00  0.00    -0.283 NA 
HETATM   16  H   UNL     1      -9.323  14.892  64.421  1.00  0.00     0.000 HD 
BRANCH  15  17
HETATM   17  C   UNL     1     -10.696  16.209  65.125  1.00  0.00    -0.371 C  
HETATM   18  H1  UNL     1     -12.155  17.129  63.943  1.00  0.00     0.000 HD 
HETATM   19  N   UNL     1     -11.457  16.390  64.023  1.00  0.00    -1.573 NA 
HETATM   20  H2  UNL     1     -11.326  15.758  63.234  1.00  0.00     0.000 HD 
ENDBRANCH  15  17
ENDBRANCH  14  15
ENDBRANCH  13  14
ENDBRANCH  12  13
ENDBRANCH   3  12
BRANCH   7  21
HETATM   21  C   UNL     1      -8.273   9.550  64.792  1.00  0.00    -0.143 C  
HETATM   22  O   UNL     1      -8.799   9.153  63.529  1.00  0.00    -0.381 OA 
HETATM   23  C   UNL     1      -8.428   8.409  65.788  1.00  0.00    -0.169 C  
HETATM   24  H   UNL     1      -8.317   8.385  63.247  1.00  0.00     0.000 HD 
ENDBRANCH   7  21
TORSDOF 6
ENDMDL
MODEL        5
REMARK 921   NORMALIZED FREE ENERGY PREDICTED BY IDOCK:   -5.84 KCAL/MOL
REMARK 922        TOTAL FREE ENERGY PREDICTED BY IDOCK:   -9.10 KCAL/MOL
REMARK 923 INTER-LIGAND FREE ENERGY PREDICTED BY IDOCK:   -8.50 KCAL/MOL
REMARK 924 INTRA-LIGAND FREE ENERGY PREDICTED BY IDOCK:   -0.60 KCAL/MOL
REMARK 927      BINDING AFFINITY PREDICTED BY RF-SCORE:    0.00 PKD
ROOT
HETATM    1  C   UNL     1     -11.834  10.312  70.259  1.00  0.00    -0.288 C  
HETATM    2  C   UNL     1     -11.655  10.602  68.774  1.00  0.00    -0.309 C  
HETATM    3  C   UNL     1     -11.741  12.107  68.710  1.00  0.00    -0.321 C  
HETATM    4  C   UNL     1     -13.156  11.332  71.522  1.00  0.00    -0.355 C  
HETATM    5  C   UNL     1     -11.934  12.629  69.936  1.00  0.00    -0.295 C  
HETATM    6  N   UNL     1     -11.969  11.645  70.919  1.00  0.00    -0.202 N  
HETATM    7  C   UNL     1     -13.227   9.948  70.855  1.00  0.00    -0.309 C  
HETATM    8  C   UNL     1     -12.156  14.069  70.297  1.00  0.00    -0.355 C  
HETATM    9  O   UNL     1     -12.395  14.279  71.611  1.00  0.00    -0.343 OA 
HETATM   10  O   UNL     1     -12.064  15.005  69.521  1.00  0.00    -0.302 OA 
HETATM   11  O   UNL     1     -13.843  12.032  72.225  1.00  0.00    -0.189 OA 
ENDROOT
BRANCH   3  12
HETATM   12  S   UNL     1     -11.779  12.836  67.154  1.00  0.00    -0.362 SA 
BRANCH  12  13
HETATM   13  C   UNL     1     -10.040  13.117  66.705  1.00  0.00    -0.264 C  
BRANCH  13  14
HETATM   14  C   UNL     1      -9.724  14.490  66.111  1.00  0.00    -0.316 C  
BRANCH  14  15
HETATM   15  N   UNL     1     -10.602  14.734  64.950  1.00  0.00    -0.499 NA 
HETATM   16  H   UNL     1     -10.876  14.000  64.297  1.00  0.00     0.000 HD 
BRANCH  15  17
HETATM   17  C   UNL     1     -10.988  15.952  64.836  1.00  0.00    -0.411 C  
HETATM   18  H1  UNL     1     -11.946  17.389  63.658  1.00  0.00     0.000 HD 
HETATM   19  N   UNL     1     -11.639  16.421  63.749  1.00  0.00    -1.515 NA 
HETATM   20  H2  UNL     1     -11.833  15.776  62.983  1.00  0.00     0.000 HD 
ENDBRANCH  15  17
ENDBRANCH  14  15
ENDBRANCH  13  14
ENDBRANCH  12  13
ENDBRANCH   3  12
BRANCH   7  21
HETATM   21  C   UNL     1     -13.267   8.758  71.797  1.00  0.00    -0.367 C  
HETATM   22  O   UNL     1     -14.164   9.079  72.857  1.00  0.00    -1.042 OA 
HETATM   23  C   UNL     1     -11.887   8.466  72.370  1.00  0.00    -0.452 C  
HETATM   24  H   UNL     1     -14.189   8.335  73.446  1.00  0.00     0.000 HD 
ENDBRANCH   7  21
TORSDOF 6
ENDMDL
MODEL        6
REMARK 921   NORMALIZED FREE ENERGY PREDICTED BY IDOCK:   -5.81 KCAL/MOL
REMARK 922        TOTAL FREE ENERGY PREDICTED BY IDOCK:   -9.06 KCAL/MOL
REMARK 923 INTER-LIGAND FREE ENERGY PREDICTED BY IDOCK:   -8.59 KCAL/MOL
REMARK 924 INTRA-LIGAND FREE ENERGY PREDICTED BY IDOCK:   -0.47 KCAL/MOL
REMARK 927      BINDING AFFINITY PREDICTED BY RF-SCORE:    0.00 PKD
ROOT
HETATM    1  C   UNL     1      -9.854  17.646  67.552  1.00  0.00    -0.299 C  
HETATM    2  C   UNL     1     -10.428  16.954  68.782  1.00  0.00    -0.343 C  
HETATM    3  C   UNL     1     -10.864  15.614  68.244  1.00  0.00    -0.298 C  
HETATM    4  C   UNL     1     -10.662  17.514  65.625  1.00  0.00    -0.089 C  
HETATM    5  C   UNL     1     -10.600  15.516  66.928  1.00  0.00    -0.307 C  
HETATM    6  N   UNL     1      -9.972  16.657  66.439  1.00  0.00    -0.287 N  
HETATM    7  C   UNL     1     -10.713  18.620  66.691  1.00  0.00    -0.316 C  
HETATM    8  C   UNL     1     -10.951  14.388  66.001  1.00  0.00    -0.316 C  
HETATM    9  O   UNL     1     -10.617  14.609  64.710  1.00  0.00    -0.421 OA 
HETATM   10  O   UNL     1     -11.427  13.321  66.351  1.00  0.00    -0.306 OA 
HETATM   11  O   UNL     1     -11.098  17.303  64.520  1.00  0.00    -1.082 OA 
ENDROOT
BRANCH   3  12
HETATM   12  S   UNL     1     -11.756  14.587  69.296  1.00  0.00    -0.329 SA 
BRANCH  12  13
HETATM   13  C   UNL     1     -12.382  15.669  70.617  1.00  0.00    -0.413 C  
BRANCH  13  14
HETATM   14  C   UNL     1     -13.720  15.256  71.231  1.00  0.00    -0.490 C  
BRANCH  14  15
HETATM   15  N   UNL     1     -13.803  15.769  72.611  1.00  0.00    -0.570 NA 
HETATM   16  H   UNL     1     -14.682  16.041  73.051  1.00  0.00     0.000 HD 
BRANCH  15  17
HETATM   17  C   UNL     1     -12.670  15.844  73.208  1.00  0.00    -0.539 C  
HETATM   18  H1  UNL     1     -11.647  16.143  75.007  1.00  0.00     0.000 HD 
HETATM   19  N   UNL     1     -12.548  16.084  74.533  1.00  0.00    -0.946 NA 
HETATM   20  H2  UNL     1     -13.396  16.211  75.083  1.00  0.00     0.000 HD 
ENDBRANCH  15  17
ENDBRANCH  14  15
ENDBRANCH  13  14
ENDBRANCH  12  13
ENDBRANCH   3  12
BRANCH   7  21
HETATM   21  C   UNL     1     -10.062  19.938  66.313  1.00  0.00    -0.502 C  
HETATM   22  O   UNL     1      -8.941  19.641  65.486  1.00  0.00    -0.226 OA 
HETATM   23  C   UNL     1      -9.596  20.694  67.549  1.00  0.00    -0.507 C  
HETATM   24  H   UNL     1      -8.534  20.466  65.249  1.00  0.00     0.000 HD 
ENDBRANCH   7  21
TORSDOF 6
ENDMDL
MODEL        7
REMARK 921   NORMALIZED FREE ENERGY PREDICTED BY IDOCK:   -5.80 KCAL/MOL
REMARK 922        TOTAL FREE ENERGY PREDICTED BY IDOCK:   -9.05 KCAL/MOL
REMARK 923 INTER-LIGAND FREE ENERGY PREDICTED BY IDOCK:   -8.36 KCAL/MOL
REMARK 924 INTRA-LIGAND FREE ENERGY PREDICTED BY IDOCK:   -0.69 KCAL/MOL
REMARK 927      BINDING AFFINITY PREDICTED BY RF-SCORE:    0.00 PKD
ROOT
HETATM    1  C   UNL     1     -11.416  14.139  68.114  1.00  0.00    -0.310 C  
HETATM    2  C   UNL     1     -10.546  15.390  68.147  1.00  0.00    -0.263 C  
HETATM    3  C   UNL     1     -10.707  15.951  66.756  1.00  0.00    -0.281 C  
HETATM    4  C   UNL     1     -11.571  12.839  66.480  1.00  0.00    -0.376 C  
HETATM    5  C   UNL     1     -11.526  15.179  66.019  1.00  0.00    -0.157 C  
HETATM    6  N   UNL     1     -12.021  14.103  66.749  1.00  0.00    -0.431 N  
HETATM    7  C   UNL     1     -10.811  12.735  67.813  1.00  0.00    -0.248 C  
HETATM    8  C   UNL     1     -11.880  15.338  64.568  1.00  0.00    -0.295 C  
HETATM    9  O   UNL     1     -12.675  14.358  64.083  1.00  0.00    -0.676 OA 
HETATM   10  O   UNL     1     -11.561  16.287  63.872  1.00  0.00    -0.987 OA 
HETATM   11  O   UNL     1     -11.715  12.195  65.470  1.00  0.00    -0.371 OA 
ENDROOT
BRANCH   3  12
HETATM   12  S   UNL     1      -9.714  17.284  66.318  1.00  0.00    -0.240 SA 
BRANCH  12  13
HETATM   13  C   UNL     1     -10.600  18.763  66.895  1.00  0.00    -0.409 C  
BRANCH  13  14
HETATM   14  C   UNL     1     -10.256  20.065  66.171  1.00  0.00    -0.475 C  
BRANCH  14  15
HETATM   15  N   UNL     1      -9.542  20.964  67.097  1.00  0.00    -0.689 NA 
HETATM   16  H   UNL     1      -9.991  21.750  67.566  1.00  0.00     0.000 HD 
BRANCH  15  17
HETATM   17  C   UNL     1      -8.304  20.668  67.258  1.00  0.00    -0.227 C  
HETATM   18  H1  UNL     1      -6.409  20.503  66.388  1.00  0.00     0.000 HD 
HETATM   19  N   UNL     1      -7.393  20.738  66.261  1.00  0.00    -0.513 NA 
HETATM   20  H2  UNL     1      -7.705  21.040  65.339  1.00  0.00     0.000 HD 
ENDBRANCH  15  17
ENDBRANCH  14  15
ENDBRANCH  13  14
ENDBRANCH  12  13
ENDBRANCH   3  12
BRANCH   7  21
HETATM   21  C   UNL     1     -11.237  11.606  68.734  1.00  0.00    -0.245 C  
HETATM   22  O   UNL     1     -12.120  10.763  68.000  1.00  0.00    -0.778 OA 
HETATM   23  C   UNL     1     -11.954  12.144  69.965  1.00  0.00    -0.391 C  
HETATM   24  H   UNL     1     -12.386  10.056  68.576  1.00  0.00     0.000 HD 
ENDBRANCH   7  21
TORSDOF 6
ENDMDL
MODEL        8
REMARK 921   NORMALIZED FREE ENERGY PREDICTED BY IDOCK:   -5.74 KCAL/MOL
REMARK 922        TOTAL FREE ENERGY PREDICTED BY IDOCK:   -8.96 KCAL/MOL
REMARK 923 INTER-LIGAND FREE ENERGY PREDICTED BY IDOCK:   -8.01 KCAL/MOL
REMARK 924 INTRA-LIGAND FREE ENERGY PREDICTED BY IDOCK:   -0.95 KCAL/MOL
REMARK 927      BINDING AFFINITY PREDICTED BY RF-SCORE:    0.00 PKD
ROOT
HETATM    1  C   UNL     1     -10.309  14.392  66.266  1.00  0.00    -0.295 C  
HETATM    2  C   UNL     1      -8.896  14.350  66.834  1.00  0.00    -0.246 C  
HETATM    3  C   UNL     1      -8.517  15.808  66.910  1.00  0.00    -0.246 C  
HETATM    4  C   UNL     1     -10.955  15.712  64.774  1.00  0.00    -0.400 C  
HETATM    5  C   UNL     1      -9.522  16.588  66.469  1.00  0.00    -0.273 C  
HETATM    6  N   UNL     1     -10.634  15.840  66.099  1.00  0.00    -0.311 N  
HETATM    7  C   UNL     1     -10.579  14.222  64.741  1.00  0.00    -0.434 C  
HETATM    8  C   UNL     1      -9.522  18.080  66.302  1.00  0.00    -0.220 C  
HETATM    9  O   UNL     1     -10.659  18.576  65.766  1.00  0.00    -0.575 OA 
HETATM   10  O   UNL     1      -8.628  18.823  66.672  1.00  0.00    -0.283 OA 
HETATM   11  O   UNL     1     -11.301  16.574  64.004  1.00  0.00    -1.064 OA 
ENDROOT
BRANCH   3  12
HETATM   12  S   UNL     1      -6.893  16.187  67.328  1.00  0.00    -0.206 SA 
BRANCH  12  13
HETATM   13  C   UNL     1      -6.938  16.650  69.085  1.00  0.00    -0.227 C  
BRANCH  13  14
HETATM   14  C   UNL     1      -6.207  17.942  69.448  1.00  0.00    -0.248 C  
BRANCH  14  15
HETATM   15  N   UNL     1      -6.972  19.096  68.939  1.00  0.00    -0.323 NA 
HETATM   16  H   UNL     1      -7.715  19.008  68.245  1.00  0.00     0.000 HD 
BRANCH  15  17
HETATM   17  C   UNL     1      -6.619  20.220  69.447  1.00  0.00    -0.199 C  
HETATM   18  H1  UNL     1      -5.988  21.258  71.148  1.00  0.00     0.000 HD 
HETATM   19  N   UNL     1      -6.268  20.365  70.744  1.00  0.00    -0.542 NA 
HETATM   20  H2  UNL     1      -6.285  19.543  71.346  1.00  0.00     0.000 HD 
ENDBRANCH  15  17
ENDBRANCH  14  15
ENDBRANCH  13  14
ENDBRANCH  12  13
ENDBRANCH   3  12
BRANCH   7  21
HETATM   21  C   UNL     1     -11.692  13.264  64.356  1.00  0.00    -0.388 C  
HETATM   22  O   UNL     1     -12.524  13.932  63.411  1.00  0.00    -1.068 OA 
HETATM   23  C   UNL     1     -12.518  12.868  65.571  1.00  0.00    -0.462 C  
HETATM   24  H   UNL     1     -13.221  13.332  63.171  1.00  0.00     0.000 HD 
ENDBRANCH   7  21
TORSDOF 6
ENDMDL
MODEL        9
REMARK 921   NORMALIZED FREE ENERGY PREDICTED BY IDOCK:   -5.69 KCAL/MOL
REMARK 922        TOTAL FREE ENERGY PREDICTED BY IDOCK:   -8.90 KCAL/MOL
REMARK 923 INTER-LIGAND FREE ENERGY PREDICTED BY IDOCK:   -7.73 KCAL/MOL
REMARK 924 INTRA-LIGAND FREE ENERGY PREDICTED BY IDOCK:   -1.17 KCAL/MOL
REMARK 927      BINDING AFFINITY PREDICTED BY RF-SCORE:    0.00 PKD
ROOT
HETATM    1  C   UNL     1     -12.060  11.155  69.266  1.00  0.00    -0.308 C  
HETATM    2  C   UNL     1     -11.769  12.612  68.930  1.00  0.00    -0.370 C  
HETATM    3  C   UNL     1     -10.993  12.514  67.640  1.00  0.00    -0.242 C  
HETATM    4  C   UNL     1     -10.717   9.574  68.980  1.00  0.00    -0.202 C  
HETATM    5  C   UNL     1     -10.845  11.229  67.266  1.00  0.00    -0.267 C  
HETATM    6  N   UNL     1     -11.472  10.357  68.148  1.00  0.00    -0.216 N  
HETATM    7  C   UNL     1     -11.150  10.346  70.237  1.00  0.00    -0.379 C  
HETATM    8  C   UNL     1     -10.069  10.696  66.096  1.00  0.00    -0.249 C  
HETATM    9  O   UNL     1     -10.043   9.347  66.018  1.00  0.00    -0.300 OA 
HETATM   10  O   UNL     1      -9.556  11.382  65.228  1.00  0.00    -0.224 OA 
HETATM   11  O   UNL     1      -9.951   8.691  68.680  1.00  0.00    -0.172 OA 
ENDROOT
BRANCH   3  12
HETATM   12  S   UNL     1     -10.297  13.958  67.018  1.00  0.00    -0.269 SA 
BRANCH  12  13
HETATM   13  C   UNL     1     -11.226  14.331  65.500  1.00  0.00    -0.320 C  
BRANCH  13  14
HETATM   14  C   UNL     1     -12.709  13.964  65.525  1.00  0.00    -0.499 C  
BRANCH  14  15
HETATM   15  N   UNL     1     -12.919  12.725  64.752  1.00  0.00    -0.844 NA 
HETATM   16  H   UNL     1     -13.532  11.972  65.064  1.00  0.00     0.000 HD 
BRANCH  15  17
HETATM   17  C   UNL     1     -12.260  12.681  63.651  1.00  0.00    -0.536 C  
HETATM   18  H1  UNL     1     -11.270  11.495  62.243  1.00  0.00     0.000 HD 
HETATM   19  N   UNL     1     -11.794  11.530  63.117  1.00  0.00    -0.908 NA 
HETATM   20  H2  UNL     1     -11.974  10.657  63.611  1.00  0.00     0.000 HD 
ENDBRANCH  15  17
ENDBRANCH  14  15
ENDBRANCH  13  14
ENDBRANCH  12  13
ENDBRANCH   3  12
BRANCH   7  21
HETATM   21  C   UNL     1     -11.859   9.532  71.305  1.00  0.00    -0.373 C  
HETATM   22  O   UNL     1     -12.166   8.260  70.741  1.00  0.00    -0.488 OA 
HETATM   23  C   UNL     1     -13.144  10.215  71.751  1.00  0.00    -0.568 C  
HETATM   24  H   UNL     1     -12.610   7.751  71.409  1.00  0.00     0.000 HD 
ENDBRANCH   7  21
TORSDOF 6
ENDMDL
MODEL       10
REMARK 921   NORMALIZED FREE ENERGY PREDICTED BY IDOCK:   -5.60 KCAL/MOL
REMARK 922        TOTAL FREE ENERGY PREDICTED BY IDOCK:   -8.78 KCAL/MOL
REMARK 923 INTER-LIGAND FREE ENERGY PREDICTED BY IDOCK:   -8.37 KCAL/MOL
REMARK 924 INTRA-LIGAND FREE ENERGY PREDICTED BY IDOCK:   -0.41 KCAL/MOL
REMARK 927      BINDING AFFINITY PREDICTED BY RF-SCORE:    0.00 PKD
ROOT
HETATM    1  C   UNL     1     -11.657  12.989  67.398  1.00  0.00    -0.356 C  
HETATM    2  C   UNL     1     -10.973  14.280  67.831  1.00  0.00    -0.278 C  
HETATM    3  C   UNL     1     -11.146  15.175  66.629  1.00  0.00    -0.308 C  
HETATM    4  C   UNL     1     -11.553  12.174  65.472  1.00  0.00    -0.343 C  
HETATM    5  C   UNL     1     -11.815  14.538  65.649  1.00  0.00    -0.326 C  
HETATM    6  N   UNL     1     -12.187  13.252  66.026  1.00  0.00    -0.430 N  
HETATM    7  C   UNL     1     -10.848  11.805  66.788  1.00  0.00    -0.312 C  
HETATM    8  C   UNL     1     -12.120  15.041  64.268  1.00  0.00    -0.306 C  
HETATM    9  O   UNL     1     -12.747  14.141  63.478  1.00  0.00    -0.794 OA 
HETATM   10  O   UNL     1     -11.906  16.176  63.875  1.00  0.00    -0.921 OA 
HETATM   11  O   UNL     1     -11.557  11.817  64.319  1.00  0.00    -0.333 OA 
ENDROOT
BRANCH   3  12
HETATM   12  S   UNL     1     -10.331  16.688  66.641  1.00  0.00    -0.274 SA 
BRANCH  12  13
HETATM   13  C   UNL     1     -10.565  17.355  68.316  1.00  0.00    -0.366 C  
BRANCH  13  14
HETATM   14  C   UNL     1      -9.814  18.650  68.623  1.00  0.00    -0.385 C  
BRANCH  14  15
HETATM   15  N   UNL     1     -10.513  19.783  67.988  1.00  0.00    -0.427 NA 
HETATM   16  H   UNL     1     -11.527  19.889  68.001  1.00  0.00     0.000 HD 
BRANCH  15  17
HETATM   17  C   UNL     1      -9.729  20.623  67.416  1.00  0.00    -0.411 C  
HETATM   18  H1  UNL     1      -8.830  21.258  65.638  1.00  0.00     0.000 HD 
HETATM   19  N   UNL     1      -9.453  20.591  66.093  1.00  0.00    -0.641 NA 
HETATM   20  H2  UNL     1      -9.887  19.866  65.523  1.00  0.00     0.000 HD 
ENDBRANCH  15  17
ENDBRANCH  14  15
ENDBRANCH  13  14
ENDBRANCH  12  13
ENDBRANCH   3  12
BRANCH   7  21
HETATM   21  C   UNL     1     -11.153  10.425  67.340  1.00  0.00    -0.226 C  
HETATM   22  O   UNL     1     -12.195  10.568  68.301  1.00  0.00    -0.744 OA 
HETATM   23  C   UNL     1      -9.927   9.818  68.007  1.00  0.00    -0.185 C  
HETATM   24  H   UNL     1     -12.387   9.704  68.647  1.00  0.00     0.000 HD 
ENDBRANCH   7  21
TORSDOF 6
ENDMDL
MODEL       11
REMARK 921   NORMALIZED FREE ENERGY PREDICTED BY IDOCK:   -5.59 KCAL/MOL
REMARK 922        TOTAL FREE ENERGY PREDICTED BY IDOCK:   -8.77 KCAL/MOL
REMARK 923 INTER-LIGAND FREE ENERGY PREDICTED BY IDOCK:   -8.11 KCAL/MOL
REMARK 924 INTRA-LIGAND FREE ENERGY PREDICTED BY IDOCK:   -0.66 KCAL/MOL
REMARK 927      BINDING AFFINITY PREDICTED BY RF-SCORE:    0.00 PKD
ROOT
HETATM    1  C   UNL     1     -11.783  10.742  69.972  1.00  0.00    -0.336 C  
HETATM    2  C   UNL     1     -11.791  11.108  68.494  1.00  0.00    -0.330 C  
HETATM    3  C   UNL     1     -11.868  12.614  68.518  1.00  0.00    -0.300 C  
HETATM    4  C   UNL     1     -12.923  11.700  71.444  1.00  0.00    -0.324 C  
HETATM    5  C   UNL     1     -11.899  13.073  69.783  1.00  0.00    -0.311 C  
HETATM    6  N   UNL     1     -11.818  12.040  70.711  1.00  0.00    -0.045 N  
HETATM    7  C   UNL     1     -13.092  10.353  70.722  1.00  0.00    -0.362 C  
HETATM    8  C   UNL     1     -12.058  14.494  70.242  1.00  0.00    -0.323 C  
HETATM    9  O   UNL     1     -12.126  14.636  71.584  1.00  0.00    -0.336 OA 
HETATM   10  O   UNL     1     -12.055  15.468  69.509  1.00  0.00    -0.344 OA 
HETATM   11  O   UNL     1     -13.508  12.366  72.263  1.00  0.00    -0.541 OA 
ENDROOT
BRANCH   3  12
HETATM   12  S   UNL     1     -12.096  13.423  67.018  1.00  0.00    -0.289 SA 
BRANCH  12  13
HETATM   13  C   UNL     1     -10.436  13.587  66.295  1.00  0.00    -0.290 C  
BRANCH  13  14
HETATM   14  C   UNL     1     -10.386  14.133  64.869  1.00  0.00    -0.408 C  
BRANCH  14  15
HETATM   15  N   UNL     1     -10.027  13.044  63.941  1.00  0.00    -0.755 NA 
HETATM   16  H   UNL     1      -9.062  12.775  63.746  1.00  0.00     0.000 HD 
BRANCH  15  17
HETATM   17  C   UNL     1     -11.037  12.467  63.400  1.00  0.00    -0.402 C  
HETATM   18  H1  UNL     1     -12.992  12.653  62.683  1.00  0.00     0.000 HD 
HETATM   19  N   UNL     1     -12.189  13.112  63.112  1.00  0.00    -0.893 NA 
HETATM   20  H2  UNL     1     -12.259  14.104  63.336  1.00  0.00     0.000 HD 
ENDBRANCH  15  17
ENDBRANCH  14  15
ENDBRANCH  13  14
ENDBRANCH  12  13
ENDBRANCH   3  12
BRANCH   7  21
HETATM   21  C   UNL     1     -13.025   9.117  71.599  1.00  0.00    -0.365 C  
HETATM   22  O   UNL     1     -13.762   9.393  72.787  1.00  0.00    -0.723 OA 
HETATM   23  C   UNL     1     -11.585   8.779  71.961  1.00  0.00    -0.436 C  
HETATM   24  H   UNL     1     -13.720   8.618  73.336  1.00  0.00     0.000 HD 
ENDBRANCH   7  21
TORSDOF 6
ENDMDL
MODEL       12
REMARK 921   NORMALIZED FREE ENERGY PREDICTED BY IDOCK:   -5.59 KCAL/MOL
REMARK 922        TOTAL FREE ENERGY PREDICTED BY IDOCK:   -8.76 KCAL/MOL
REMARK 923 INTER-LIGAND FREE ENERGY PREDICTED BY IDOCK:   -8.00 KCAL/MOL
REMARK 924 INTRA-LIGAND FREE ENERGY PREDICTED BY IDOCK:   -0.76 KCAL/MOL
REMARK 927      BINDING AFFINITY PREDICTED BY RF-SCORE:    0.00 PKD
ROOT
HETATM    1  C   UNL     1     -11.660  12.984  69.924  1.00  0.00    -0.179 C  
HETATM    2  C   UNL     1     -11.763  11.990  68.774  1.00  0.00    -0.377 C  
HETATM    3  C   UNL     1     -10.962  12.651  67.681  1.00  0.00    -0.241 C  
HETATM    4  C   UNL     1     -11.719  15.066  69.708  1.00  0.00    -0.307 C  
HETATM    5  C   UNL     1     -10.464  13.831  68.098  1.00  0.00    -0.249 C  
HETATM    6  N   UNL     1     -10.797  14.095  69.422  1.00  0.00    -0.186 N  
HETATM    7  C   UNL     1     -12.769  14.048  70.182  1.00  0.00    -0.207 C  
HETATM    8  C   UNL     1      -9.687  14.835  67.297  1.00  0.00    -0.230 C  
HETATM    9  O   UNL     1      -9.384  15.966  67.973  1.00  0.00    -0.199 OA 
HETATM   10  O   UNL     1      -9.282  14.658  66.160  1.00  0.00    -0.264 OA 
HETATM   11  O   UNL     1     -11.636  16.253  69.511  1.00  0.00    -0.284 OA 
ENDROOT
BRANCH   3  12
HETATM   12  S   UNL     1     -10.992  11.926  66.123  1.00  0.00    -0.316 SA 
BRANCH  12  13
HETATM   13  C   UNL     1     -12.449  12.624  65.289  1.00  0.00    -0.416 C  
BRANCH  13  14
HETATM   14  C   UNL     1     -12.434  12.555  63.762  1.00  0.00    -0.455 C  
BRANCH  14  15
HETATM   15  N   UNL     1     -12.287  13.916  63.212  1.00  0.00    -1.148 NA 
HETATM   16  H   UNL     1     -12.285  14.114  62.212  1.00  0.00     0.000 HD 
BRANCH  15  17
HETATM   17  C   UNL     1     -12.161  14.827  64.106  1.00  0.00    -0.299 C  
HETATM   18  H1  UNL     1     -11.743  16.833  64.524  1.00  0.00     0.000 HD 
HETATM   19  N   UNL     1     -11.843  16.108  63.814  1.00  0.00    -1.368 NA 
HETATM   20  H2  UNL     1     -11.697  16.361  62.837  1.00  0.00     0.000 HD 
ENDBRANCH  15  17
ENDBRANCH  14  15
ENDBRANCH  13  14
ENDBRANCH  12  13
ENDBRANCH   3  12
BRANCH   7  21
HETATM   21  C   UNL     1     -13.239  14.197  71.618  1.00  0.00    -0.353 C  
HETATM   22  O   UNL     1     -12.292  15.019  72.295  1.00  0.00    -0.323 OA 
HETATM   23  C   UNL     1     -13.325  12.844  72.310  1.00  0.00    -0.597 C  
HETATM   24  H   UNL     1     -12.586  15.113  73.194  1.00  0.00     0.000 HD 
ENDBRANCH   7  21
TORSDOF 6
ENDMDL
MODEL       13
REMARK 921   NORMALIZED FREE ENERGY PREDICTED BY IDOCK:   -5.58 KCAL/MOL
REMARK 922        TOTAL FREE ENERGY PREDICTED BY IDOCK:   -8.75 KCAL/MOL
REMARK 923 INTER-LIGAND FREE ENERGY PREDICTED BY IDOCK:   -8.05 KCAL/MOL
REMARK 924 INTRA-LIGAND FREE ENERGY PREDICTED BY IDOCK:   -0.70 KCAL/MOL
REMARK 927      BINDING AFFINITY PREDICTED BY RF-SCORE:    0.00 PKD
ROOT
HETATM    1  C   UNL     1     -10.527  17.266  67.965  1.00  0.00    -0.375 C  
HETATM    2  C   UNL     1     -11.496  16.091  67.966  1.00  0.00    -0.199 C  
HETATM    3  C   UNL     1     -10.598  14.911  67.689  1.00  0.00    -0.264 C  
HETATM    4  C   UNL     1      -8.911  17.477  66.650  1.00  0.00    -0.262 C  
HETATM    5  C   UNL     1      -9.319  15.304  67.547  1.00  0.00    -0.204 C  
HETATM    6  N   UNL     1      -9.175  16.676  67.728  1.00  0.00    -0.213 N  
HETATM    7  C   UNL     1     -10.300  18.134  66.691  1.00  0.00    -0.387 C  
HETATM    8  C   UNL     1      -8.132  14.459  67.183  1.00  0.00    -0.145 C  
HETATM    9  O   UNL     1      -6.981  15.154  67.043  1.00  0.00    -0.221 OA 
HETATM   10  O   UNL     1      -8.145  13.244  67.084  1.00  0.00    -0.164 OA 
HETATM   11  O   UNL     1      -7.928  17.485  65.950  1.00  0.00    -0.527 OA 
ENDROOT
BRANCH   3  12
HETATM   12  S   UNL     1     -11.349  13.389  67.414  1.00  0.00    -0.326 SA 
BRANCH  12  13
HETATM   13  C   UNL     1     -12.404  13.623  65.952  1.00  0.00    -0.471 C  
BRANCH  13  14
HETATM   14  C   UNL     1     -11.760  14.367  64.783  1.00  0.00    -0.416 C  
BRANCH  14  15
HETATM   15  N   UNL     1     -12.192  13.751  63.514  1.00  0.00    -1.000 NA 
HETATM   16  H   UNL     1     -12.614  14.283  62.753  1.00  0.00     0.000 HD 
BRANCH  15  17
HETATM   17  C   UNL     1     -11.989  12.485  63.454  1.00  0.00    -0.514 C  
HETATM   18  H1  UNL     1     -12.684  10.623  62.805  1.00  0.00     0.000 HD 
HETATM   19  N   UNL     1     -12.845  11.629  62.852  1.00  0.00    -0.827 NA 
HETATM   20  H2  UNL     1     -13.690  12.007  62.427  1.00  0.00     0.000 HD 
ENDBRANCH  15  17
ENDBRANCH  14  15
ENDBRANCH  13  14
ENDBRANCH  12  13
ENDBRANCH   3  12
BRANCH   7  21
HETATM   21  C   UNL     1     -10.318  19.638  66.888  1.00  0.00    -0.465 C  
HETATM   22  O   UNL     1      -9.339  20.197  66.016  1.00  0.00    -0.565 OA 
HETATM   23  C   UNL     1      -9.988  20.007  68.327  1.00  0.00    -0.508 C  
HETATM   24  H   UNL     1      -9.351  21.139  66.140  1.00  0.00     0.000 HD 
ENDBRANCH   7  21
TORSDOF 6
ENDMDL
MODEL       14
REMARK 921   NORMALIZED FREE ENERGY PREDICTED BY IDOCK:   -5.57 KCAL/MOL
REMARK 922        TOTAL FREE ENERGY PREDICTED BY IDOCK:   -8.74 KCAL/MOL
REMARK 923 INTER-LIGAND FREE ENERGY PREDICTED BY IDOCK:   -8.24 KCAL/MOL
REMARK 924 INTRA-LIGAND FREE ENERGY PREDICTED BY IDOCK:   -0.50 KCAL/MOL
REMARK 927      BINDING AFFINITY PREDICTED BY RF-SCORE:    0.00 PKD
ROOT
HETATM    1  C   UNL     1      -9.623  15.303  65.970  1.00  0.00    -0.338 C  
HETATM    2  C   UNL     1      -9.860  14.271  67.065  1.00  0.00    -0.254 C  
HETATM    3  C   UNL     1     -10.937  13.394  66.478  1.00  0.00    -0.290 C  
HETATM    4  C   UNL     1     -11.129  16.156  64.791  1.00  0.00    -0.333 C  
HETATM    5  C   UNL     1     -11.286  13.820  65.249  1.00  0.00    -0.307 C  
HETATM    6  N   UNL     1     -10.538  14.923  64.852  1.00  0.00    -0.420 N  
HETATM    7  C   UNL     1     -10.332  16.691  65.992  1.00  0.00    -0.352 C  
HETATM    8  C   UNL     1     -12.371  13.280  64.363  1.00  0.00    -0.348 C  
HETATM    9  O   UNL     1     -12.534  13.965  63.209  1.00  0.00    -0.817 OA 
HETATM   10  O   UNL     1     -13.021  12.273  64.590  1.00  0.00    -0.741 OA 
HETATM   11  O   UNL     1     -12.020  16.521  64.063  1.00  0.00    -0.964 OA 
ENDROOT
BRANCH   3  12
HETATM   12  S   UNL     1     -11.635  12.200  67.499  1.00  0.00    -0.323 SA 
BRANCH  12  13
HETATM   13  C   UNL     1     -11.071  12.605  69.179  1.00  0.00    -0.195 C  
BRANCH  13  14
HETATM   14  C   UNL     1     -12.154  12.607  70.257  1.00  0.00    -0.294 C  
BRANCH  14  15
HETATM   15  N   UNL     1     -12.065  13.857  71.036  1.00  0.00    -0.452 NA 
HETATM   16  H   UNL     1     -11.635  13.908  71.959  1.00  0.00     0.000 HD 
BRANCH  15  17
HETATM   17  C   UNL     1     -12.580  14.874  70.447  1.00  0.00    -0.343 C  
HETATM   18  H1  UNL     1     -14.195  16.195  70.312  1.00  0.00     0.000 HD 
HETATM   19  N   UNL     1     -13.786  15.387  70.780  1.00  0.00    -0.845 NA 
HETATM   20  H2  UNL     1     -14.310  14.945  71.534  1.00  0.00     0.000 HD 
ENDBRANCH  15  17
ENDBRANCH  14  15
ENDBRANCH  13  14
ENDBRANCH  12  13
ENDBRANCH   3  12
BRANCH   7  21
HETATM   21  C   UNL     1      -9.455  17.900  65.722  1.00  0.00     0.284 C  
HETATM   22  O   UNL     1      -8.098  17.480  65.839  1.00  0.00    -0.536 OA 
HETATM   23  C   UNL     1      -9.731  19.012  66.724  1.00  0.00    -0.375 C  
HETATM   24  H   UNL     1      -7.549  18.237  65.670  1.00  0.00     0.000 HD 
ENDBRANCH   7  21
TORSDOF 6
ENDMDL
MODEL       15
REMARK 921   NORMALIZED FREE ENERGY PREDICTED BY IDOCK:   -5.50 KCAL/MOL
REMARK 922        TOTAL FREE ENERGY PREDICTED BY IDOCK:   -8.65 KCAL/MOL
REMARK 923 INTER-LIGAND FREE ENERGY PREDICTED BY IDOCK:   -7.77 KCAL/MOL
REMARK 924 INTRA-LIGAND FREE ENERGY PREDICTED BY IDOCK:   -0.88 KCAL/MOL
REMARK 927      BINDING AFFINITY PREDICTED BY RF-SCORE:    0.00 PKD
ROOT
HETATM    1  C   UNL     1      -9.532  15.206  66.028  1.00  0.00    -0.323 C  
HETATM    2  C   UNL     1      -9.795  14.195  67.137  1.00  0.00    -0.253 C  
HETATM    3  C   UNL     1     -10.868  13.315  66.546  1.00  0.00    -0.281 C  
HETATM    4  C   UNL     1     -11.011  16.049  64.809  1.00  0.00    -0.356 C  
HETATM    5  C   UNL     1     -11.192  13.722  65.305  1.00  0.00    -0.307 C  
HETATM    6  N   UNL     1     -10.430  14.813  64.901  1.00  0.00    -0.408 N  
HETATM    7  C   UNL     1     -10.231  16.599  66.014  1.00  0.00    -0.366 C  
HETATM    8  C   UNL     1     -12.266  13.174  64.409  1.00  0.00    -0.398 C  
HETATM    9  O   UNL     1     -12.404  13.840  63.241  1.00  0.00    -0.756 OA 
HETATM   10  O   UNL     1     -12.927  12.176  64.642  1.00  0.00    -0.651 OA 
HETATM   11  O   UNL     1     -11.887  16.407  64.060  1.00  0.00    -1.003 OA 
ENDROOT
BRANCH   3  12
HETATM   12  S   UNL     1     -11.592  12.144  67.576  1.00  0.00    -0.323 SA 
BRANCH  12  13
HETATM   13  C   UNL     1     -10.997  10.534  66.976  1.00  0.00    -0.180 C  
BRANCH  13  14
HETATM   14  C   UNL     1      -9.797  10.583  66.031  1.00  0.00    -0.222 C  
BRANCH  14  15
HETATM   15  N   UNL     1     -10.208  10.114  64.694  1.00  0.00    -0.320 NA 
HETATM   16  H   UNL     1     -10.915   9.393  64.551  1.00  0.00     0.000 HD 
BRANCH  15  17
HETATM   17  C   UNL     1      -9.595  10.694  63.728  1.00  0.00    -0.306 C  
HETATM   18  H1  UNL     1      -9.635  11.279  61.721  1.00  0.00     0.000 HD 
HETATM   19  N   UNL     1     -10.122  10.818  62.489  1.00  0.00    -0.748 NA 
HETATM   20  H2  UNL     1     -11.049  10.432  62.315  1.00  0.00     0.000 HD 
ENDBRANCH  15  17
ENDBRANCH  14  15
ENDBRANCH  13  14
ENDBRANCH  12  13
ENDBRANCH   3  12
BRANCH   7  21
HETATM   21  C   UNL     1      -9.341  17.797  65.738  1.00  0.00     0.291 C  
HETATM   22  O   UNL     1      -7.992  17.340  65.748  1.00  0.00    -0.511 OA 
HETATM   23  C   UNL     1      -9.522  18.870  66.803  1.00  0.00    -0.352 C  
HETATM   24  H   UNL     1      -7.435  18.090  65.575  1.00  0.00     0.000 HD 
ENDBRANCH   7  21
TORSDOF 6
ENDMDL
MODEL       16
REMARK 921   NORMALIZED FREE ENERGY PREDICTED BY IDOCK:   -5.49 KCAL/MOL
REMARK 922        TOTAL FREE ENERGY PREDICTED BY IDOCK:   -8.62 KCAL/MOL
REMARK 923 INTER-LIGAND FREE ENERGY PREDICTED BY IDOCK:   -8.15 KCAL/MOL
REMARK 924 INTRA-LIGAND FREE ENERGY PREDICTED BY IDOCK:   -0.47 KCAL/MOL
REMARK 927      BINDING AFFINITY PREDICTED BY RF-SCORE:    0.00 PKD
ROOT
HETATM    1  C   UNL     1     -10.555  14.399  64.978  1.00  0.00    -0.432 C  
HETATM    2  C   UNL     1     -10.491  15.867  65.380  1.00  0.00    -0.429 C  
HETATM    3  C   UNL     1     -10.482  15.806  66.887  1.00  0.00    -0.315 C  
HETATM    4  C   UNL     1     -11.689  12.941  65.966  1.00  0.00    -0.404 C  
HETATM    5  C   UNL     1     -10.530  14.530  67.316  1.00  0.00    -0.266 C  
HETATM    6  N   UNL     1     -10.541  13.628  66.258  1.00  0.00    -0.286 N  
HETATM    7  C   UNL     1     -11.910  13.703  64.649  1.00  0.00    -0.427 C  
HETATM    8  C   UNL     1     -10.622  14.040  68.732  1.00  0.00    -0.251 C  
HETATM    9  O   UNL     1     -10.728  12.697  68.845  1.00  0.00    -0.230 OA 
HETATM   10  O   UNL     1     -10.538  14.746  69.722  1.00  0.00    -0.205 OA 
HETATM   11  O   UNL     1     -12.262  12.125  66.644  1.00  0.00    -0.566 OA 
ENDROOT
BRANCH   3  12
HETATM   12  S   UNL     1     -10.611  17.291  67.744  1.00  0.00    -0.341 SA 
BRANCH  12  13
HETATM   13  C   UNL     1     -10.467  18.594  66.485  1.00  0.00    -0.420 C  
BRANCH  13  14
HETATM   14  C   UNL     1      -9.380  19.639  66.735  1.00  0.00    -0.364 C  
BRANCH  14  15
HETATM   15  N   UNL     1      -8.178  19.290  65.954  1.00  0.00    -0.447 NA 
HETATM   16  H   UNL     1      -8.103  18.437  65.400  1.00  0.00     0.000 HD 
BRANCH  15  17
HETATM   17  C   UNL     1      -7.236  20.157  66.035  1.00  0.00    -0.286 C  
HETATM   18  H1  UNL     1      -6.541  21.920  66.918  1.00  0.00     0.000 HD 
HETATM   19  N   UNL     1      -7.290  21.231  66.854  1.00  0.00    -0.779 NA 
HETATM   20  H2  UNL     1      -8.118  21.358  67.434  1.00  0.00     0.000 HD 
ENDBRANCH  15  17
ENDBRANCH  14  15
ENDBRANCH  13  14
ENDBRANCH  12  13
ENDBRANCH   3  12
BRANCH   7  21
HETATM   21  C   UNL     1     -11.945  12.857  63.389  1.00  0.00    -0.537 C  
HETATM   22  O   UNL     1     -13.069  11.988  63.487  1.00  0.00    -0.764 OA 
HETATM   23  C   UNL     1     -10.674  12.031  63.249  1.00  0.00    -0.400 C  
HETATM   24  H   UNL     1     -13.091  11.458  62.699  1.00  0.00     0.000 HD 
ENDBRANCH   7  21
TORSDOF 6
ENDMDL
MODEL       17
REMARK 921   NORMALIZED FREE ENERGY PREDICTED BY IDOCK:   -5.48 KCAL/MOL
REMARK 922        TOTAL FREE ENERGY PREDICTED BY IDOCK:   -8.62 KCAL/MOL
REMARK 923 INTER-LIGAND FREE ENERGY PREDICTED BY IDOCK:   -7.94 KCAL/MOL
REMARK 924 INTRA-LIGAND FREE ENERGY PREDICTED BY IDOCK:   -0.68 KCAL/MOL
REMARK 927      BINDING AFFINITY PREDICTED BY RF-SCORE:    0.00 PKD
ROOT
HETATM    1  C   UNL     1     -11.448  14.506  66.688  1.00  0.00    -0.366 C  
HETATM    2  C   UNL     1     -11.795  14.836  68.134  1.00  0.00    -0.318 C  
HETATM    3  C   UNL     1     -11.582  13.522  68.842  1.00  0.00    -0.323 C  
HETATM    4  C   UNL     1     -11.943  12.715  65.723  1.00  0.00    -0.446 C  
HETATM    5  C   UNL     1     -11.178  12.571  67.978  1.00  0.00    -0.270 C  
HETATM    6  N   UNL     1     -11.039  13.070  66.687  1.00  0.00    -0.282 N  
HETATM    7  C   UNL     1     -12.550  14.126  65.653  1.00  0.00    -0.495 C  
HETATM    8  C   UNL     1     -10.939  11.116  68.259  1.00  0.00    -0.226 C  
HETATM    9  O   UNL     1     -10.608  10.390  67.168  1.00  0.00    -0.241 OA 
HETATM   10  O   UNL     1     -10.958  10.606  69.367  1.00  0.00    -0.220 OA 
HETATM   11  O   UNL     1     -12.146  11.620  65.258  1.00  0.00    -0.164 OA 
ENDROOT
BRANCH   3  12
HETATM   12  S   UNL     1     -12.060  13.420  70.490  1.00  0.00    -0.263 SA 
BRANCH  12  13
HETATM   13  C   UNL     1     -12.741  15.054  70.902  1.00  0.00    -0.375 C  
BRANCH  13  14
HETATM   14  C   UNL     1     -14.133  15.050  71.534  1.00  0.00    -0.521 C  
BRANCH  14  15
HETATM   15  N   UNL     1     -14.004  15.101  73.002  1.00  0.00    -0.517 NA 
HETATM   16  H   UNL     1     -14.699  14.707  73.636  1.00  0.00     0.000 HD 
BRANCH  15  17
HETATM   17  C   UNL     1     -12.937  15.687  73.410  1.00  0.00    -0.559 C  
HETATM   18  H1  UNL     1     -12.034  16.869  74.880  1.00  0.00     0.000 HD 
HETATM   19  N   UNL     1     -12.881  16.403  74.555  1.00  0.00    -0.951 NA 
HETATM   20  H2  UNL     1     -13.726  16.482  75.121  1.00  0.00     0.000 HD 
ENDBRANCH  15  17
ENDBRANCH  14  15
ENDBRANCH  13  14
ENDBRANCH  12  13
ENDBRANCH   3  12
BRANCH   7  21
HETATM   21  C   UNL     1     -12.474  14.816  64.303  1.00  0.00    -0.197 C  
HETATM   22  O   UNL     1     -12.176  13.820  63.329  1.00  0.00    -1.021 OA 
HETATM   23  C   UNL     1     -11.386  15.880  64.292  1.00  0.00    -0.181 C  
HETATM   24  H   UNL     1     -12.129  14.252  62.484  1.00  0.00     0.000 HD 
ENDBRANCH   7  21
TORSDOF 6
ENDMDL
MODEL       18
REMARK 921   NORMALIZED FREE ENERGY PREDICTED BY IDOCK:   -5.45 KCAL/MOL
REMARK 922        TOTAL FREE ENERGY PREDICTED BY IDOCK:   -8.57 KCAL/MOL
REMARK 923 INTER-LIGAND FREE ENERGY PREDICTED BY IDOCK:   -7.65 KCAL/MOL
REMARK 924 INTRA-LIGAND FREE ENERGY PREDICTED BY IDOCK:   -0.92 KCAL/MOL
REMARK 927      BINDING AFFINITY PREDICTED BY RF-SCORE:    0.00 PKD
ROOT
HETATM    1  C   UNL     1     -10.601  16.111  66.424  1.00  0.00    -0.269 C  
HETATM    2  C   UNL     1      -9.936  14.927  65.732  1.00  0.00    -0.376 C  
HETATM    3  C   UNL     1     -10.398  13.750  66.554  1.00  0.00    -0.286 C  
HETATM    4  C   UNL     1     -10.815  16.311  68.498  1.00  0.00    -0.330 C  
HETATM    5  C   UNL     1     -11.198  14.152  67.559  1.00  0.00    -0.306 C  
HETATM    6  N   UNL     1     -11.402  15.527  67.542  1.00  0.00    -0.282 N  
HETATM    7  C   UNL     1      -9.846  16.957  67.493  1.00  0.00    -0.260 C  
HETATM    8  C   UNL     1     -11.798  13.310  68.649  1.00  0.00    -0.345 C  
HETATM    9  O   UNL     1     -12.503  14.012  69.564  1.00  0.00    -0.299 OA 
HETATM   10  O   UNL     1     -11.741  12.093  68.701  1.00  0.00    -0.294 OA 
HETATM   11  O   UNL     1     -11.018  16.315  69.687  1.00  0.00    -0.312 OA 
ENDROOT
BRANCH   3  12
HETATM   12  S   UNL     1      -9.701  12.217  66.209  1.00  0.00    -0.240 SA 
BRANCH  12  13
HETATM   13  C   UNL     1     -10.946  11.324  65.231  1.00  0.00    -0.137 C  
BRANCH  13  14
HETATM   14  C   UNL     1     -10.668  11.232  63.731  1.00  0.00    -0.379 C  
BRANCH  14  15
HETATM   15  N   UNL     1     -11.863  11.672  62.985  1.00  0.00    -0.877 NA 
HETATM   16  H   UNL     1     -12.161  11.242  62.110  1.00  0.00     0.000 HD 
BRANCH  15  17
HETATM   17  C   UNL     1     -12.492  12.645  63.537  1.00  0.00    -0.418 C  
HETATM   18  H1  UNL     1     -12.854  14.704  63.581  1.00  0.00     0.000 HD 
HETATM   19  N   UNL     1     -12.355  13.931  63.143  1.00  0.00    -1.106 NA 
HETATM   20  H2  UNL     1     -11.721  14.137  62.371  1.00  0.00     0.000 HD 
ENDBRANCH  15  17
ENDBRANCH  14  15
ENDBRANCH  13  14
ENDBRANCH  12  13
ENDBRANCH   3  12
BRANCH   7  21
HETATM   21  C   UNL     1      -9.944  18.465  67.351  1.00  0.00    -0.334 C  
HETATM   22  O   UNL     1     -10.860  18.930  68.339  1.00  0.00    -0.292 OA 
HETATM   23  C   UNL     1     -10.448  18.853  65.968  1.00  0.00    -0.507 C  
HETATM   24  H   UNL     1     -10.921  19.874  68.250  1.00  0.00     0.000 HD 
ENDBRANCH   7  21
TORSDOF 6
ENDMDL
MODEL       19
REMARK 921   NORMALIZED FREE ENERGY PREDICTED BY IDOCK:   -5.39 KCAL/MOL
REMARK 922        TOTAL FREE ENERGY PREDICTED BY IDOCK:   -8.49 KCAL/MOL
REMARK 923 INTER-LIGAND FREE ENERGY PREDICTED BY IDOCK:   -7.84 KCAL/MOL
REMARK 924 INTRA-LIGAND FREE ENERGY PREDICTED BY IDOCK:   -0.65 KCAL/MOL
REMARK 927      BINDING AFFINITY PREDICTED BY RF-SCORE:    0.00 PKD
ROOT
HETATM    1  C   UNL     1      -9.455  17.077  67.425  1.00  0.00    -0.242 C  
HETATM    2  C   UNL     1     -10.017  15.889  68.195  1.00  0.00    -0.222 C  
HETATM    3  C   UNL     1     -10.874  15.193  67.168  1.00  0.00    -0.320 C  
HETATM    4  C   UNL     1     -10.532  18.210  66.032  1.00  0.00    -0.335 C  
HETATM    5  C   UNL     1     -10.835  15.844  65.990  1.00  0.00    -0.225 C  
HETATM    6  N   UNL     1      -9.995  16.951  66.038  1.00  0.00    -0.311 N  
HETATM    7  C   UNL     1     -10.129  18.481  67.490  1.00  0.00    -0.383 C  
HETATM    8  C   UNL     1     -11.607  15.532  64.741  1.00  0.00    -0.256 C  
HETATM    9  O   UNL     1     -11.412  16.414  63.735  1.00  0.00    -1.002 OA 
HETATM   10  O   UNL     1     -12.302  14.543  64.579  1.00  0.00    -0.525 OA 
HETATM   11  O   UNL     1     -11.161  18.748  65.153  1.00  0.00    -0.422 OA 
ENDROOT
BRANCH   3  12
HETATM   12  S   UNL     1     -11.854  13.886  67.703  1.00  0.00    -0.379 SA 
BRANCH  12  13
HETATM   13  C   UNL     1     -10.697  12.544  68.110  1.00  0.00    -0.227 C  
BRANCH  13  14
HETATM   14  C   UNL     1     -11.169  11.134  67.757  1.00  0.00    -0.294 C  
BRANCH  14  15
HETATM   15  N   UNL     1     -12.248  10.734  68.681  1.00  0.00    -0.827 NA 
HETATM   16  H   UNL     1     -13.232  10.722  68.414  1.00  0.00     0.000 HD 
BRANCH  15  17
HETATM   17  C   UNL     1     -11.835  10.403  69.850  1.00  0.00    -0.238 C  
HETATM   18  H1  UNL     1     -12.117  10.540  71.917  1.00  0.00     0.000 HD 
HETATM   19  N   UNL     1     -12.445  10.803  70.988  1.00  0.00    -0.384 NA 
HETATM   20  H2  UNL     1     -13.271  11.396  70.914  1.00  0.00     0.000 HD 
ENDBRANCH  15  17
ENDBRANCH  14  15
ENDBRANCH  13  14
ENDBRANCH  12  13
ENDBRANCH   3  12
BRANCH   7  21
HETATM   21  C   UNL     1      -9.203  19.663  67.715  1.00  0.00    -0.332 C  
HETATM   22  O   UNL     1      -9.295  20.504  66.569  1.00  0.00    -0.601 OA 
HETATM   23  C   UNL     1      -7.763  19.204  67.895  1.00  0.00    -0.308 C  
HETATM   24  H   UNL     1      -8.716  21.244  66.710  1.00  0.00     0.000 HD 
ENDBRANCH   7  21
TORSDOF 6
ENDMDL
MODEL       20
REMARK 921   NORMALIZED FREE ENERGY PREDICTED BY IDOCK:   -5.35 KCAL/MOL
REMARK 922        TOTAL FREE ENERGY PREDICTED BY IDOCK:   -8.44 KCAL/MOL
REMARK 923 INTER-LIGAND FREE ENERGY PREDICTED BY IDOCK:   -7.85 KCAL/MOL
REMARK 924 INTRA-LIGAND FREE ENERGY PREDICTED BY IDOCK:   -0.59 KCAL/MOL
REMARK 927      BINDING AFFINITY PREDICTED BY RF-SCORE:    0.00 PKD
ROOT
HETATM    1  C   UNL     1     -11.135  12.808  66.395  1.00  0.00    -0.285 C  
HETATM    2  C   UNL     1     -11.371  12.000  67.666  1.00  0.00    -0.375 C  
HETATM    3  C   UNL     1     -10.728  10.673  67.349  1.00  0.00    -0.276 C  
HETATM    4  C   UNL     1     -11.252  12.034  64.453  1.00  0.00    -0.344 C  
HETATM    5  C   UNL     1     -10.198  10.680  66.111  1.00  0.00    -0.248 C  
HETATM    6  N   UNL     1     -10.361  11.911  65.485  1.00  0.00    -0.254 N  
HETATM    7  C   UNL     1     -12.217  12.902  65.278  1.00  0.00    -0.524 C  
HETATM    8  C   UNL     1      -9.547   9.540  65.384  1.00  0.00    -0.272 C  
HETATM    9  O   UNL     1      -9.175   9.832  64.118  1.00  0.00    -0.256 OA 
HETATM   10  O   UNL     1      -9.289   8.454  65.877  1.00  0.00    -0.200 OA 
HETATM   11  O   UNL     1     -11.213  11.508  63.368  1.00  0.00    -0.387 OA 
ENDROOT
BRANCH   3  12
HETATM   12  S   UNL     1     -10.949   9.394  68.475  1.00  0.00     0.051 SA 
BRANCH  12  13
HETATM   13  C   UNL     1     -11.196  10.199  70.086  1.00  0.00    -0.310 C  
BRANCH  13  14
HETATM   14  C   UNL     1     -11.418   9.258  71.269  1.00  0.00    -0.347 C  
BRANCH  14  15
HETATM   15  N   UNL     1     -12.769   8.672  71.181  1.00  0.00    -0.483 NA 
HETATM   16  H   UNL     1     -12.981   7.846  70.620  1.00  0.00     0.000 HD 
BRANCH  15  17
HETATM   17  C   UNL     1     -13.653   9.294  71.872  1.00  0.00    -0.427 C  
HETATM   18  H1  UNL     1     -14.515   9.606  73.751  1.00  0.00     0.000 HD 
HETATM   19  N   UNL     1     -13.813   9.111  73.201  1.00  0.00    -1.136 NA 
HETATM   20  H2  UNL     1     -13.203   8.448  73.677  1.00  0.00     0.000 HD 
ENDBRANCH  15  17
ENDBRANCH  14  15
ENDBRANCH  13  14
ENDBRANCH  12  13
ENDBRANCH   3  12
BRANCH   7  21
HETATM   21  C   UNL     1     -12.499  14.288  64.728  1.00  0.00    -0.374 C  
HETATM   22  O   UNL     1     -12.506  14.192  63.306  1.00  0.00    -1.146 OA 
HETATM   23  C   UNL     1     -11.429  15.279  65.165  1.00  0.00    -0.260 C  
HETATM   24  H   UNL     1     -12.683  15.060  62.962  1.00  0.00     0.000 HD 
ENDBRANCH   7  21
TORSDOF 6
ENDMDL
MODEL       21
REMARK 921   NORMALIZED FREE ENERGY PREDICTED BY IDOCK:   -5.34 KCAL/MOL
REMARK 922        TOTAL FREE ENERGY PREDICTED BY IDOCK:   -8.43 KCAL/MOL
REMARK 923 INTER-LIGAND FREE ENERGY PREDICTED BY IDOCK:   -7.92 KCAL/MOL
REMARK 924 INTRA-LIGAND FREE ENERGY PREDICTED BY IDOCK:   -0.51 KCAL/MOL
REMARK 927      BINDING AFFINITY PREDICTED BY RF-SCORE:    0.00 PKD
ROOT
HETATM    1  C   UNL     1     -11.968  13.242  66.316  1.00  0.00    -0.417 C  
HETATM    2  C   UNL     1     -12.117  12.847  67.780  1.00  0.00    -0.218 C  
HETATM    3  C   UNL     1     -11.740  14.110  68.512  1.00  0.00    -0.345 C  
HETATM    4  C   UNL     1     -10.446  14.465  65.561  1.00  0.00    -0.350 C  
HETATM    5  C   UNL     1     -11.423  15.090  67.646  1.00  0.00    -0.333 C  
HETATM    6  N   UNL     1     -11.562  14.679  66.324  1.00  0.00    -0.363 N  
HETATM    7  C   UNL     1     -10.661  12.943  65.521  1.00  0.00    -0.301 C  
HETATM    8  C   UNL     1     -10.916  16.468  67.962  1.00  0.00    -0.320 C  
HETATM    9  O   UNL     1     -10.613  17.209  66.872  1.00  0.00    -0.297 OA 
HETATM   10  O   UNL     1     -10.839  16.943  69.082  1.00  0.00    -0.312 OA 
HETATM   11  O   UNL     1      -9.620  15.270  65.205  1.00  0.00    -0.143 OA 
ENDROOT
BRANCH   3  12
HETATM   12  S   UNL     1     -11.592  14.024  70.223  1.00  0.00    -0.107 SA 
BRANCH  12  13
HETATM   13  C   UNL     1     -12.950  15.037  70.881  1.00  0.00    -0.405 C  
BRANCH  13  14
HETATM   14  C   UNL     1     -13.891  14.329  71.856  1.00  0.00    -0.457 C  
BRANCH  14  15
HETATM   15  N   UNL     1     -13.287  14.326  73.203  1.00  0.00    -0.600 NA 
HETATM   16  H   UNL     1     -13.332  13.524  73.830  1.00  0.00     0.000 HD 
BRANCH  15  17
HETATM   17  C   UNL     1     -12.701  15.425  73.512  1.00  0.00    -0.559 C  
HETATM   18  H1  UNL     1     -12.874  17.334  74.348  1.00  0.00     0.000 HD 
HETATM   19  N   UNL     1     -13.340  16.461  74.102  1.00  0.00    -0.783 NA 
HETATM   20  H2  UNL     1     -14.333  16.364  74.310  1.00  0.00     0.000 HD 
ENDBRANCH  15  17
ENDBRANCH  14  15
ENDBRANCH  13  14
ENDBRANCH  12  13
ENDBRANCH   3  12
BRANCH   7  21
HETATM   21  C   UNL     1     -10.836  12.333  64.142  1.00  0.00    -0.365 C  
HETATM   22  O   UNL     1      -9.729  12.748  63.346  1.00  0.00    -0.601 OA 
HETATM   23  C   UNL     1     -12.131  12.802  63.495  1.00  0.00    -0.642 C  
HETATM   24  H   UNL     1      -9.838  12.366  62.484  1.00  0.00     0.000 HD 
ENDBRANCH   7  21
TORSDOF 6
ENDMDL
MODEL       22
REMARK 921   NORMALIZED FREE ENERGY PREDICTED BY IDOCK:   -5.31 KCAL/MOL
REMARK 922        TOTAL FREE ENERGY PREDICTED BY IDOCK:   -8.38 KCAL/MOL
REMARK 923 INTER-LIGAND FREE ENERGY PREDICTED BY IDOCK:   -7.68 KCAL/MOL
REMARK 924 INTRA-LIGAND FREE ENERGY PREDICTED BY IDOCK:   -0.70 KCAL/MOL
REMARK 927      BINDING AFFINITY PREDICTED BY RF-SCORE:    0.00 PKD
ROOT
HETATM    1  C   UNL     1     -12.519  15.159  70.165  1.00  0.00    -0.318 C  
HETATM    2  C   UNL     1     -11.521  16.042  69.426  1.00  0.00    -0.336 C  
HETATM    3  C   UNL     1     -11.010  15.135  68.334  1.00  0.00    -0.271 C  
HETATM    4  C   UNL     1     -12.248  13.119  70.551  1.00  0.00    -0.328 C  
HETATM    5  C   UNL     1     -11.596  13.925  68.402  1.00  0.00    -0.332 C  
HETATM    6  N   UNL     1     -12.527  13.857  69.433  1.00  0.00    -0.184 N  
HETATM    7  C   UNL     1     -12.112  14.364  71.442  1.00  0.00    -0.397 C  
HETATM    8  C   UNL     1     -11.310  12.716  67.559  1.00  0.00    -0.308 C  
HETATM    9  O   UNL     1     -12.012  11.617  67.912  1.00  0.00    -0.599 OA 
HETATM   10  O   UNL     1     -10.574  12.702  66.586  1.00  0.00    -0.245 OA 
HETATM   11  O   UNL     1     -12.093  11.925  70.637  1.00  0.00    -0.373 OA 
ENDROOT
BRANCH   3  12
HETATM   12  S   UNL     1      -9.699  15.702  67.377  1.00  0.00    -0.223 SA 
BRANCH  12  13
HETATM   13  C   UNL     1     -10.453  16.720  66.073  1.00  0.00    -0.293 C  
BRANCH  13  14
HETATM   14  C   UNL     1     -10.312  18.232  66.249  1.00  0.00    -0.405 C  
BRANCH  14  15
HETATM   15  N   UNL     1      -8.951  18.544  66.725  1.00  0.00    -0.284 NA 
HETATM   16  H   UNL     1      -8.227  17.835  66.842  1.00  0.00     0.000 HD 
BRANCH  15  17
HETATM   17  C   UNL     1      -8.761  19.787  66.978  1.00  0.00    -0.325 C  
HETATM   18  H1  UNL     1      -9.583  21.707  67.070  1.00  0.00     0.000 HD 
HETATM   19  N   UNL     1      -9.734  20.719  66.870  1.00  0.00    -0.659 NA 
HETATM   20  H2  UNL     1     -10.662  20.420  66.573  1.00  0.00     0.000 HD 
ENDBRANCH  15  17
ENDBRANCH  14  15
ENDBRANCH  13  14
ENDBRANCH  12  13
ENDBRANCH   3  12
BRANCH   7  21
HETATM   21  C   UNL     1     -13.067  14.446  72.619  1.00  0.00    -0.476 C  
HETATM   22  O   UNL     1     -13.824  13.239  72.642  1.00  0.00    -0.712 OA 
HETATM   23  C   UNL     1     -14.008  15.634  72.480  1.00  0.00    -0.615 C  
HETATM   24  H   UNL     1     -14.422  13.290  73.379  1.00  0.00     0.000 HD 
ENDBRANCH   7  21
TORSDOF 6
ENDMDL
MODEL       23
REMARK 921   NORMALIZED FREE ENERGY PREDICTED BY IDOCK:   -5.30 KCAL/MOL
REMARK 922        TOTAL FREE ENERGY PREDICTED BY IDOCK:   -8.38 KCAL/MOL
REMARK 923 INTER-LIGAND FREE ENERGY PREDICTED BY IDOCK:   -7.74 KCAL/MOL
REMARK 924 INTRA-LIGAND FREE ENERGY PREDICTED BY IDOCK:   -0.63 KCAL/MOL
REMARK 927      BINDING AFFINITY PREDICTED BY RF-SCORE:    0.00 PKD
ROOT
HETATM    1  C   UNL     1     -11.268  13.220  66.486  1.00  0.00    -0.304 C  
HETATM    2  C   UNL     1     -11.603  12.677  67.870  1.00  0.00    -0.401 C  
HETATM    3  C   UNL     1     -11.080  11.264  67.815  1.00  0.00    -0.271 C  
HETATM    4  C   UNL     1     -11.418  12.124  64.708  1.00  0.00    -0.322 C  
HETATM    5  C   UNL     1     -10.528  11.002  66.616  1.00  0.00    -0.256 C  
HETATM    6  N   UNL     1     -10.563  12.111  65.776  1.00  0.00    -0.252 N  
HETATM    7  C   UNL     1     -12.315  13.207  65.331  1.00  0.00    -0.532 C  
HETATM    8  C   UNL     1      -9.970   9.697  66.125  1.00  0.00    -0.276 C  
HETATM    9  O   UNL     1      -9.548   9.724  64.841  1.00  0.00    -0.290 OA 
HETATM   10  O   UNL     1      -9.824   8.699  66.810  1.00  0.00    -0.205 OA 
HETATM   11  O   UNL     1     -11.407  11.411  63.735  1.00  0.00    -0.382 OA 
ENDROOT
BRANCH   3  12
HETATM   12  S   UNL     1     -11.441  10.230  69.141  1.00  0.00    -0.092 SA 
BRANCH  12  13
HETATM   13  C   UNL     1     -11.879  11.337  70.516  1.00  0.00    -0.324 C  
BRANCH  13  14
HETATM   14  C   UNL     1     -13.124  10.944  71.310  1.00  0.00    -0.308 C  
BRANCH  14  15
HETATM   15  N   UNL     1     -13.347  11.927  72.387  1.00  0.00    -0.518 NA 
HETATM   16  H   UNL     1     -13.483  11.662  73.362  1.00  0.00     0.000 HD 
BRANCH  15  17
HETATM   17  C   UNL     1     -13.355  13.146  71.985  1.00  0.00    -0.493 C  
HETATM   18  H1  UNL     1     -13.642  15.157  72.480  1.00  0.00     0.000 HD 
HETATM   19  N   UNL     1     -13.635  14.189  72.798  1.00  0.00    -0.663 NA 
HETATM   20  H2  UNL     1     -13.850  13.998  73.776  1.00  0.00     0.000 HD 
ENDBRANCH  15  17
ENDBRANCH  14  15
ENDBRANCH  13  14
ENDBRANCH  12  13
ENDBRANCH   3  12
BRANCH   7  21
HETATM   21  C   UNL     1     -12.456  14.492  64.535  1.00  0.00    -0.324 C  
HETATM   22  O   UNL     1     -12.500  14.139  63.155  1.00  0.00    -1.126 OA 
HETATM   23  C   UNL     1     -11.278  15.423  64.785  1.00  0.00    -0.404 C  
HETATM   24  H   UNL     1     -12.588  14.943  62.658  1.00  0.00     0.000 HD 
ENDBRANCH   7  21
TORSDOF 6
ENDMDL
MODEL       24
REMARK 921   NORMALIZED FREE ENERGY PREDICTED BY IDOCK:   -5.30 KCAL/MOL
REMARK 922        TOTAL FREE ENERGY PREDICTED BY IDOCK:   -8.38 KCAL/MOL
REMARK 923 INTER-LIGAND FREE ENERGY PREDICTED BY IDOCK:   -7.72 KCAL/MOL
REMARK 924 INTRA-LIGAND FREE ENERGY PREDICTED BY IDOCK:   -0.65 KCAL/MOL
REMARK 927      BINDING AFFINITY PREDICTED BY RF-SCORE:    0.00 PKD
ROOT
HETATM    1  C   UNL     1      -8.706  15.068  66.664  1.00  0.00    -0.254 C  
HETATM    2  C   UNL     1      -9.350  13.696  66.821  1.00  0.00    -0.269 C  
HETATM    3  C   UNL     1     -10.545  13.775  65.905  1.00  0.00    -0.289 C  
HETATM    4  C   UNL     1      -9.764  16.867  66.490  1.00  0.00    -0.281 C  
HETATM    5  C   UNL     1     -10.610  14.978  65.304  1.00  0.00    -0.397 C  
HETATM    6  N   UNL     1      -9.546  15.796  65.666  1.00  0.00    -0.313 N  
HETATM    7  C   UNL     1      -9.005  16.226  67.663  1.00  0.00    -0.194 C  
HETATM    8  C   UNL     1     -11.684  15.491  64.388  1.00  0.00    -0.242 C  
HETATM    9  O   UNL     1     -11.510  16.773  63.996  1.00  0.00    -1.198 OA 
HETATM   10  O   UNL     1     -12.608  14.824  63.953  1.00  0.00    -0.834 OA 
HETATM   11  O   UNL     1     -10.425  17.853  66.272  1.00  0.00    -0.368 OA 
ENDROOT
BRANCH   3  12
HETATM   12  S   UNL     1     -11.663  12.470  65.943  1.00  0.00    -0.425 SA 
BRANCH  12  13
HETATM   13  C   UNL     1     -11.522  11.660  64.321  1.00  0.00    -0.250 C  
BRANCH  13  14
HETATM   14  C   UNL     1     -10.298  10.764  64.134  1.00  0.00    -0.311 C  
BRANCH  14  15
HETATM   15  N   UNL     1      -9.977  10.670  62.697  1.00  0.00    -0.741 NA 
HETATM   16  H   UNL     1     -10.378  11.292  61.995  1.00  0.00     0.000 HD 
BRANCH  15  17
HETATM   17  C   UNL     1      -9.148   9.733  62.410  1.00  0.00    -0.282 C  
HETATM   18  H1  UNL     1      -8.120   8.034  63.064  1.00  0.00     0.000 HD 
HETATM   19  N   UNL     1      -8.779   8.778  63.292  1.00  0.00    -0.430 NA 
HETATM   20  H2  UNL     1      -9.179   8.803  64.230  1.00  0.00     0.000 HD 
ENDBRANCH  15  17
ENDBRANCH  14  15
ENDBRANCH  13  14
ENDBRANCH  12  13
ENDBRANCH   3  12
BRANCH   7  21
HETATM   21  C   UNL     1      -7.804  16.998  68.178  1.00  0.00    -0.196 C  
HETATM   22  O   UNL     1      -8.055  18.383  67.953  1.00  0.00    -0.250 OA 
HETATM   23  C   UNL     1      -6.534  16.587  67.448  1.00  0.00    -0.198 C  
HETATM   24  H   UNL     1      -7.304  18.866  68.276  1.00  0.00     0.000 HD 
ENDBRANCH   7  21
TORSDOF 6
ENDMDL
MODEL       25
REMARK 921   NORMALIZED FREE ENERGY PREDICTED BY IDOCK:   -5.30 KCAL/MOL
REMARK 922        TOTAL FREE ENERGY PREDICTED BY IDOCK:   -8.37 KCAL/MOL
REMARK 923 INTER-LIGAND FREE ENERGY PREDICTED BY IDOCK:   -7.60 KCAL/MOL
REMARK 924 INTRA-LIGAND FREE ENERGY PREDICTED BY IDOCK:   -0.77 KCAL/MOL
REMARK 927      BINDING AFFINITY PREDICTED BY RF-SCORE:    0.00 PKD
ROOT
HETATM    1  C   UNL     1      -8.829  15.144  67.011  1.00  0.00    -0.234 C  
HETATM    2  C   UNL     1      -9.381  13.724  67.032  1.00  0.00    -0.250 C  
HETATM    3  C   UNL     1     -10.482  13.772  66.003  1.00  0.00    -0.297 C  
HETATM    4  C   UNL     1      -9.996  16.872  66.818  1.00  0.00    -0.289 C  
HETATM    5  C   UNL     1     -10.577  15.000  65.459  1.00  0.00    -0.363 C  
HETATM    6  N   UNL     1      -9.618  15.868  65.969  1.00  0.00    -0.326 N  
HETATM    7  C   UNL     1      -9.311  16.219  68.030  1.00  0.00    -0.214 C  
HETATM    8  C   UNL     1     -11.590  15.489  64.464  1.00  0.00    -0.283 C  
HETATM    9  O   UNL     1     -11.474  16.800  64.157  1.00  0.00    -1.171 OA 
HETATM   10  O   UNL     1     -12.414  14.785  63.904  1.00  0.00    -0.811 OA 
HETATM   11  O   UNL     1     -10.704  17.821  66.583  1.00  0.00    -0.259 OA 
ENDROOT
BRANCH   3  12
HETATM   12  S   UNL     1     -11.498  12.392  65.860  1.00  0.00    -0.390 SA 
BRANCH  12  13
HETATM   13  C   UNL     1     -10.507  10.993  66.463  1.00  0.00    -0.257 C  
BRANCH  13  14
HETATM   14  C   UNL     1     -10.907  10.439  67.830  1.00  0.00    -0.279 C  
BRANCH  14  15
HETATM   15  N   UNL     1     -12.065  11.195  68.344  1.00  0.00    -0.727 NA 
HETATM   16  H   UNL     1     -12.955  11.253  67.849  1.00  0.00     0.000 HD 
BRANCH  15  17
HETATM   17  C   UNL     1     -11.852  11.773  69.469  1.00  0.00    -0.337 C  
HETATM   18  H1  UNL     1     -11.715  11.578  71.547  1.00  0.00     0.000 HD 
HETATM   19  N   UNL     1     -11.884  11.119  70.652  1.00  0.00    -0.377 NA 
HETATM   20  H2  UNL     1     -12.088  10.121  70.649  1.00  0.00     0.000 HD 
ENDBRANCH  15  17
ENDBRANCH  14  15
ENDBRANCH  13  14
ENDBRANCH  12  13
ENDBRANCH   3  12
BRANCH   7  21
HETATM   21  C   UNL     1      -8.228  17.042  68.704  1.00  0.00    -0.261 C  
HETATM   22  O   UNL     1      -8.561  18.416  68.527  1.00  0.00    -0.317 OA 
HETATM   23  C   UNL     1      -6.865  16.765  68.085  1.00  0.00    -0.153 C  
HETATM   24  H   UNL     1      -7.883  18.931  68.949  1.00  0.00     0.000 HD 
ENDBRANCH   7  21
TORSDOF 6
ENDMDL
MODEL       26
REMARK 921   NORMALIZED FREE ENERGY PREDICTED BY IDOCK:   -5.29 KCAL/MOL
REMARK 922        TOTAL FREE ENERGY PREDICTED BY IDOCK:   -8.36 KCAL/MOL
REMARK 923 INTER-LIGAND FREE ENERGY PREDICTED BY IDOCK:   -7.74 KCAL/MOL
REMARK 924 INTRA-LIGAND FREE ENERGY PREDICTED BY IDOCK:   -0.62 KCAL/MOL
REMARK 927      BINDING AFFINITY PREDICTED BY RF-SCORE:    0.00 PKD
ROOT
HETATM    1  C   UNL     1     -10.373  14.673  66.379  1.00  0.00    -0.289 C  
HETATM    2  C   UNL     1      -8.977  14.623  66.988  1.00  0.00    -0.258 C  
HETATM    3  C   UNL     1      -8.607  16.080  67.108  1.00  0.00    -0.194 C  
HETATM    4  C   UNL     1     -10.979  16.023  64.898  1.00  0.00    -0.384 C  
HETATM    5  C   UNL     1      -9.601  16.866  66.654  1.00  0.00    -0.267 C  
HETATM    6  N   UNL     1     -10.699  16.123  66.234  1.00  0.00    -0.261 N  
HETATM    7  C   UNL     1     -10.596  14.535  64.843  1.00  0.00    -0.450 C  
HETATM    8  C   UNL     1      -9.601  18.362  66.520  1.00  0.00    -0.327 C  
HETATM    9  O   UNL     1     -10.724  18.866  65.961  1.00  0.00    -0.425 OA 
HETATM   10  O   UNL     1      -8.722  19.100  66.933  1.00  0.00    -0.282 OA 
HETATM   11  O   UNL     1     -11.305  16.901  64.137  1.00  0.00    -1.208 OA 
ENDROOT
BRANCH   3  12
HETATM   12  S   UNL     1      -6.998  16.455  67.583  1.00  0.00    -0.148 SA 
BRANCH  12  13
HETATM   13  C   UNL     1      -6.806  15.756  69.250  1.00  0.00    -0.184 C  
BRANCH  13  14
HETATM   14  C   UNL     1      -5.982  14.472  69.338  1.00  0.00    -0.101 C  
BRANCH  14  15
HETATM   15  N   UNL     1      -6.351  13.737  70.562  1.00  0.00    -0.405 NA 
HETATM   16  H   UNL     1      -6.931  14.138  71.298  1.00  0.00     0.000 HD 
BRANCH  15  17
HETATM   17  C   UNL     1      -5.877  12.546  70.617  1.00  0.00    -0.078 C  
HETATM   18  H1  UNL     1      -6.209  10.505  70.302  1.00  0.00     0.000 HD 
HETATM   19  N   UNL     1      -6.586  11.452  70.258  1.00  0.00    -0.488 NA 
HETATM   20  H2  UNL     1      -7.542  11.580  69.930  1.00  0.00     0.000 HD 
ENDBRANCH  15  17
ENDBRANCH  14  15
ENDBRANCH  13  14
ENDBRANCH  12  13
ENDBRANCH   3  12
BRANCH   7  21
HETATM   21  C   UNL     1     -11.693  13.583  64.404  1.00  0.00    -0.407 C  
HETATM   22  O   UNL     1     -12.517  14.278  63.472  1.00  0.00    -1.095 OA 
HETATM   23  C   UNL     1     -12.535  13.133  65.590  1.00  0.00    -0.485 C  
HETATM   24  H   UNL     1     -13.203  13.682  63.197  1.00  0.00     0.000 HD 
ENDBRANCH   7  21
TORSDOF 6
ENDMDL
MODEL       27
REMARK 921   NORMALIZED FREE ENERGY PREDICTED BY IDOCK:   -5.29 KCAL/MOL
REMARK 922        TOTAL FREE ENERGY PREDICTED BY IDOCK:   -8.36 KCAL/MOL
REMARK 923 INTER-LIGAND FREE ENERGY PREDICTED BY IDOCK:   -7.49 KCAL/MOL
REMARK 924 INTRA-LIGAND FREE ENERGY PREDICTED BY IDOCK:   -0.87 KCAL/MOL
REMARK 927      BINDING AFFINITY PREDICTED BY RF-SCORE:    0.00 PKD
ROOT
HETATM    1  C   UNL     1     -12.289  11.445  70.127  1.00  0.00    -0.266 C  
HETATM    2  C   UNL     1     -11.890  12.906  70.286  1.00  0.00    -0.291 C  
HETATM    3  C   UNL     1     -11.134  13.191  69.013  1.00  0.00    -0.234 C  
HETATM    4  C   UNL     1     -11.072   9.962  69.288  1.00  0.00    -0.181 C  
HETATM    5  C   UNL     1     -11.087  12.099  68.228  1.00  0.00    -0.243 C  
HETATM    6  N   UNL     1     -11.772  11.027  68.790  1.00  0.00    -0.317 N  
HETATM    7  C   UNL     1     -11.435  10.296  70.744  1.00  0.00    -0.438 C  
HETATM    8  C   UNL     1     -10.363  11.935  66.922  1.00  0.00    -0.210 C  
HETATM    9  O   UNL     1     -10.440  10.691  66.400  1.00  0.00    -0.242 OA 
HETATM   10  O   UNL     1      -9.806  12.835  66.316  1.00  0.00    -0.258 OA 
HETATM   11  O   UNL     1     -10.377   9.179  68.687  1.00  0.00    -0.200 OA 
ENDROOT
BRANCH   3  12
HETATM   12  S   UNL     1     -10.336  14.709  68.885  1.00  0.00    -0.240 SA 
BRANCH  12  13
HETATM   13  C   UNL     1     -11.236  15.626  67.598  1.00  0.00    -0.274 C  
BRANCH  13  14
HETATM   14  C   UNL     1     -10.406  16.630  66.799  1.00  0.00    -0.295 C  
BRANCH  14  15
HETATM   15  N   UNL     1     -10.053  16.043  65.492  1.00  0.00    -0.461 NA 
HETATM   16  H   UNL     1      -9.095  15.986  65.149  1.00  0.00     0.000 HD 
BRANCH  15  17
HETATM   17  C   UNL     1     -11.062  15.610  64.827  1.00  0.00    -0.412 C  
HETATM   18  H1  UNL     1     -12.446  15.969  63.302  1.00  0.00     0.000 HD 
HETATM   19  N   UNL     1     -11.645  16.313  63.831  1.00  0.00    -1.573 NA 
HETATM   20  H2  UNL     1     -11.265  17.229  63.597  1.00  0.00     0.000 HD 
ENDBRANCH  15  17
ENDBRANCH  14  15
ENDBRANCH  13  14
ENDBRANCH  12  13
ENDBRANCH   3  12
BRANCH   7  21
HETATM   21  C   UNL     1     -12.196   9.224  71.502  1.00  0.00    -0.362 C  
HETATM   22  O   UNL     1     -12.418   8.140  70.605  1.00  0.00    -0.490 OA 
HETATM   23  C   UNL     1     -13.532   9.751  72.005  1.00  0.00    -0.498 C  
HETATM   24  H   UNL     1     -12.894   7.469  71.079  1.00  0.00     0.000 HD 
ENDBRANCH   7  21
TORSDOF 6
ENDMDL
MODEL       28
REMARK 921   NORMALIZED FREE ENERGY PREDICTED BY IDOCK:   -5.26 KCAL/MOL
REMARK 922        TOTAL FREE ENERGY PREDICTED BY IDOCK:   -8.32 KCAL/MOL
REMARK 923 INTER-LIGAND FREE ENERGY PREDICTED BY IDOCK:   -7.70 KCAL/MOL
REMARK 924 INTRA-LIGAND FREE ENERGY PREDICTED BY IDOCK:   -0.62 KCAL/MOL
REMARK 927      BINDING AFFINITY PREDICTED BY RF-SCORE:    0.00 PKD
ROOT
HETATM    1  C   UNL     1     -10.920  11.151  66.771  1.00  0.00    -0.249 C  
HETATM    2  C   UNL     1     -10.945  12.338  67.726  1.00  0.00    -0.274 C  
HETATM    3  C   UNL     1     -11.545  13.437  66.886  1.00  0.00    -0.365 C  
HETATM    4  C   UNL     1     -10.455  11.272  64.733  1.00  0.00    -0.323 C  
HETATM    5  C   UNL     1     -11.831  12.993  65.648  1.00  0.00    -0.399 C  
HETATM    6  N   UNL     1     -11.527  11.644  65.498  1.00  0.00    -0.179 N  
HETATM    7  C   UNL     1      -9.645  10.794  65.949  1.00  0.00    -0.252 C  
HETATM    8  C   UNL     1     -12.358  13.785  64.486  1.00  0.00    -0.358 C  
HETATM    9  O   UNL     1     -12.478  13.075  63.342  1.00  0.00    -0.710 OA 
HETATM   10  O   UNL     1     -12.727  14.946  64.543  1.00  0.00    -0.499 OA 
HETATM   11  O   UNL     1     -10.300  11.420  63.545  1.00  0.00    -0.350 OA 
ENDROOT
BRANCH   3  12
HETATM   12  S   UNL     1     -11.567  15.023  67.550  1.00  0.00    -0.240 SA 
BRANCH  12  13
HETATM   13  C   UNL     1     -11.307  14.807  69.336  1.00  0.00    -0.285 C  
BRANCH  13  14
HETATM   14  C   UNL     1     -12.158  15.698  70.240  1.00  0.00    -0.385 C  
BRANCH  14  15
HETATM   15  N   UNL     1     -13.447  15.032  70.511  1.00  0.00    -0.665 NA 
HETATM   16  H   UNL     1     -14.000  14.576  69.785  1.00  0.00     0.000 HD 
BRANCH  15  17
HETATM   17  C   UNL     1     -13.808  15.077  71.741  1.00  0.00    -0.479 C  
HETATM   18  H1  UNL     1     -14.289  14.008  73.472  1.00  0.00     0.000 HD 
HETATM   19  N   UNL     1     -14.002  13.972  72.495  1.00  0.00    -0.670 NA 
HETATM   20  H2  UNL     1     -13.854  13.060  72.065  1.00  0.00     0.000 HD 
ENDBRANCH  15  17
ENDBRANCH  14  15
ENDBRANCH  13  14
ENDBRANCH  12  13
ENDBRANCH   3  12
BRANCH   7  21
HETATM   21  C   UNL     1      -9.235   9.333  65.942  1.00  0.00    -0.219 C  
HETATM   22  O   UNL     1      -9.280   8.881  64.591  1.00  0.00    -0.431 OA 
HETATM   23  C   UNL     1     -10.181   8.494  66.790  1.00  0.00    -0.370 C  
HETATM   24  H   UNL     1      -9.023   7.967  64.586  1.00  0.00     0.000 HD 
ENDBRANCH   7  21
TORSDOF 6
ENDMDL
MODEL       29
REMARK 921   NORMALIZED FREE ENERGY PREDICTED BY IDOCK:   -5.26 KCAL/MOL
REMARK 922        TOTAL FREE ENERGY PREDICTED BY IDOCK:   -8.32 KCAL/MOL
REMARK 923 INTER-LIGAND FREE ENERGY PREDICTED BY IDOCK:   -7.87 KCAL/MOL
REMARK 924 INTRA-LIGAND FREE ENERGY PREDICTED BY IDOCK:   -0.45 KCAL/MOL
REMARK 927      BINDING AFFINITY PREDICTED BY RF-SCORE:    0.00 PKD
ROOT
HETATM    1  C   UNL     1      -9.743  15.096  65.865  1.00  0.00    -0.350 C  
HETATM    2  C   UNL     1      -9.948  14.012  66.916  1.00  0.00    -0.263 C  
HETATM    3  C   UNL     1     -10.975  13.110  66.278  1.00  0.00    -0.280 C  
HETATM    4  C   UNL     1     -11.270  15.924  64.695  1.00  0.00    -0.351 C  
HETATM    5  C   UNL     1     -11.325  13.568  65.061  1.00  0.00    -0.320 C  
HETATM    6  N   UNL     1     -10.623  14.718  64.718  1.00  0.00    -0.388 N  
HETATM    7  C   UNL     1     -10.516  16.448  65.929  1.00  0.00    -0.350 C  
HETATM    8  C   UNL     1     -12.371  13.014  64.137  1.00  0.00    -0.358 C  
HETATM    9  O   UNL     1     -12.548  13.735  63.008  1.00  0.00    -0.721 OA 
HETATM   10  O   UNL     1     -12.977  11.970  64.314  1.00  0.00    -0.600 OA 
HETATM   11  O   UNL     1     -12.166  16.276  63.968  1.00  0.00    -0.874 OA 
ENDROOT
BRANCH   3  12
HETATM   12  S   UNL     1     -11.632  11.847  67.241  1.00  0.00    -0.248 SA 
BRANCH  12  13
HETATM   13  C   UNL     1     -10.300  11.358  68.378  1.00  0.00    -0.195 C  
BRANCH  13  14
HETATM   14  C   UNL     1     -10.753  10.744  69.702  1.00  0.00    -0.211 C  
BRANCH  14  15
HETATM   15  N   UNL     1     -11.723  11.645  70.353  1.00  0.00    -0.507 NA 
HETATM   16  H   UNL     1     -11.656  12.662  70.305  1.00  0.00     0.000 HD 
BRANCH  15  17
HETATM   17  C   UNL     1     -12.657  11.035  70.986  1.00  0.00    -0.411 C  
HETATM   18  H1  UNL     1     -13.981   9.417  71.034  1.00  0.00     0.000 HD 
HETATM   19  N   UNL     1     -13.238   9.902  70.531  1.00  0.00    -0.600 NA 
HETATM   20  H2  UNL     1     -12.918   9.515  69.644  1.00  0.00     0.000 HD 
ENDBRANCH  15  17
ENDBRANCH  14  15
ENDBRANCH  13  14
ENDBRANCH  12  13
ENDBRANCH   3  12
BRANCH   7  21
HETATM   21  C   UNL     1      -9.692  17.705  65.720  1.00  0.00     0.108 C  
HETATM   22  O   UNL     1      -8.339  17.390  66.040  1.00  0.00    -0.498 OA 
HETATM   23  C   UNL     1     -10.177  18.834  66.619  1.00  0.00    -0.453 C  
HETATM   24  H   UNL     1      -7.824  18.176  65.909  1.00  0.00     0.000 HD 
ENDBRANCH   7  21
TORSDOF 6
ENDMDL
MODEL       30
REMARK 921   NORMALIZED FREE ENERGY PREDICTED BY IDOCK:   -5.25 KCAL/MOL
REMARK 922        TOTAL FREE ENERGY PREDICTED BY IDOCK:   -8.30 KCAL/MOL
REMARK 923 INTER-LIGAND FREE ENERGY PREDICTED BY IDOCK:   -7.65 KCAL/MOL
REMARK 924 INTRA-LIGAND FREE ENERGY PREDICTED BY IDOCK:   -0.65 KCAL/MOL
REMARK 927      BINDING AFFINITY PREDICTED BY RF-SCORE:    0.00 PKD
ROOT
HETATM    1  C   UNL     1      -8.654  15.414  66.621  1.00  0.00    -0.283 C  
HETATM    2  C   UNL     1      -9.248  14.138  67.205  1.00  0.00    -0.237 C  
HETATM    3  C   UNL     1     -10.538  13.984  66.439  1.00  0.00    -0.280 C  
HETATM    4  C   UNL     1      -9.760  17.113  66.097  1.00  0.00    -0.242 C  
HETATM    5  C   UNL     1     -10.693  14.986  65.552  1.00  0.00    -0.359 C  
HETATM    6  N   UNL     1      -9.611  15.861  65.566  1.00  0.00    -0.221 N  
HETATM    7  C   UNL     1      -8.864  16.798  67.307  1.00  0.00    -0.216 C  
HETATM    8  C   UNL     1     -11.870  15.250  64.659  1.00  0.00    -0.267 C  
HETATM    9  O   UNL     1     -11.766  16.381  63.926  1.00  0.00    -1.085 OA 
HETATM   10  O   UNL     1     -12.823  14.500  64.521  1.00  0.00    -0.613 OA 
HETATM   11  O   UNL     1     -10.460  18.013  65.702  1.00  0.00    -0.619 OA 
ENDROOT
BRANCH   3  12
HETATM   12  S   UNL     1     -11.620  12.746  66.943  1.00  0.00    -0.383 SA 
BRANCH  12  13
HETATM   13  C   UNL     1     -11.057  12.254  68.600  1.00  0.00    -0.249 C  
BRANCH  13  14
HETATM   14  C   UNL     1     -12.024  12.559  69.744  1.00  0.00    -0.289 C  
BRANCH  14  15
HETATM   15  N   UNL     1     -12.283  14.011  69.790  1.00  0.00    -0.342 NA 
HETATM   16  H   UNL     1     -12.008  14.649  69.044  1.00  0.00     0.000 HD 
BRANCH  15  17
HETATM   17  C   UNL     1     -12.886  14.398  70.855  1.00  0.00    -0.351 C  
HETATM   18  H1  UNL     1     -14.276  15.705  71.711  1.00  0.00     0.000 HD 
HETATM   19  N   UNL     1     -13.797  15.397  70.865  1.00  0.00    -0.844 NA 
HETATM   20  H2  UNL     1     -14.014  15.864  69.986  1.00  0.00     0.000 HD 
ENDBRANCH  15  17
ENDBRANCH  14  15
ENDBRANCH  13  14
ENDBRANCH  12  13
ENDBRANCH   3  12
BRANCH   7  21
HETATM   21  C   UNL     1      -7.629  17.666  67.463  1.00  0.00    -0.199 C  
HETATM   22  O   UNL     1      -8.063  19.023  67.510  1.00  0.00    -0.263 OA 
HETATM   23  C   UNL     1      -6.674  17.478  66.293  1.00  0.00    -0.309 C  
HETATM   24  H   UNL     1      -7.290  19.567  67.609  1.00  0.00     0.000 HD 
ENDBRANCH   7  21
TORSDOF 6
ENDMDL
MODEL       31
REMARK 921   NORMALIZED FREE ENERGY PREDICTED BY IDOCK:   -5.18 KCAL/MOL
REMARK 922        TOTAL FREE ENERGY PREDICTED BY IDOCK:   -8.22 KCAL/MOL
REMARK 923 INTER-LIGAND FREE ENERGY PREDICTED BY IDOCK:   -7.78 KCAL/MOL
REMARK 924 INTRA-LIGAND FREE ENERGY PREDICTED BY IDOCK:   -0.43 KCAL/MOL
REMARK 927      BINDING AFFINITY PREDICTED BY RF-SCORE:    0.00 PKD
ROOT
HETATM    1  C   UNL     1     -11.740  12.566  65.924  1.00  0.00    -0.426 C  
HETATM    2  C   UNL     1     -11.898  11.868  67.269  1.00  0.00    -0.222 C  
HETATM    3  C   UNL     1     -11.782  13.003  68.256  1.00  0.00    -0.353 C  
HETATM    4  C   UNL     1     -10.410  14.138  65.546  1.00  0.00    -0.351 C  
HETATM    5  C   UNL     1     -11.590  14.174  67.620  1.00  0.00    -0.365 C  
HETATM    6  N   UNL     1     -11.585  14.018  66.238  1.00  0.00    -0.354 N  
HETATM    7  C   UNL     1     -10.361  12.641  65.202  1.00  0.00    -0.312 C  
HETATM    8  C   UNL     1     -11.342  15.522  68.232  1.00  0.00    -0.357 C  
HETATM    9  O   UNL     1     -11.112  16.504  67.331  1.00  0.00    -0.185 OA 
HETATM   10  O   UNL     1     -11.407  15.770  69.424  1.00  0.00    -0.298 OA 
HETATM   11  O   UNL     1      -9.716  15.117  65.420  1.00  0.00    -0.316 OA 
ENDROOT
BRANCH   3  12
HETATM   12  S   UNL     1     -11.713  12.600  69.926  1.00  0.00    -0.189 SA 
BRANCH  12  13
HETATM   13  C   UNL     1     -12.342  10.899  70.043  1.00  0.00    -0.313 C  
BRANCH  13  14
HETATM   14  C   UNL     1     -11.389   9.884  70.674  1.00  0.00    -0.339 C  
BRANCH  14  15
HETATM   15  N   UNL     1     -12.077   9.187  71.777  1.00  0.00    -0.352 NA 
HETATM   16  H   UNL     1     -11.682   8.379  72.257  1.00  0.00     0.000 HD 
BRANCH  15  17
HETATM   17  C   UNL     1     -13.219   9.691  72.079  1.00  0.00    -0.453 C  
HETATM   18  H1  UNL     1     -15.017   9.469  73.122  1.00  0.00     0.000 HD 
HETATM   19  N   UNL     1     -14.110   9.070  72.883  1.00  0.00    -1.110 NA 
HETATM   20  H2  UNL     1     -13.863   8.159  73.268  1.00  0.00     0.000 HD 
ENDBRANCH  15  17
ENDBRANCH  14  15
ENDBRANCH  13  14
ENDBRANCH  12  13
ENDBRANCH   3  12
BRANCH   7  21
HETATM   21  C   UNL     1     -10.355  12.298  63.724  1.00  0.00    -0.435 C  
HETATM   22  O   UNL     1     -11.685  12.464  63.239  1.00  0.00    -0.648 OA 
HETATM   23  C   UNL     1      -9.906  10.862  63.496  1.00  0.00    -0.407 C  
HETATM   24  H   UNL     1     -11.680  12.250  62.314  1.00  0.00     0.000 HD 
ENDBRANCH   7  21
TORSDOF 6
ENDMDL
MODEL       32
REMARK 921   NORMALIZED FREE ENERGY PREDICTED BY IDOCK:   -5.16 KCAL/MOL
REMARK 922        TOTAL FREE ENERGY PREDICTED BY IDOCK:   -8.19 KCAL/MOL
REMARK 923 INTER-LIGAND FREE ENERGY PREDICTED BY IDOCK:   -7.57 KCAL/MOL
REMARK 924 INTRA-LIGAND FREE ENERGY PREDICTED BY IDOCK:   -0.62 KCAL/MOL
REMARK 927      BINDING AFFINITY PREDICTED BY RF-SCORE:    0.00 PKD
ROOT
HETATM    1  C   UNL     1     -10.148  12.466  66.545  1.00  0.00    -0.232 C  
HETATM    2  C   UNL     1      -9.471  13.760  66.982  1.00  0.00    -0.255 C  
HETATM    3  C   UNL     1     -10.136  14.800  66.115  1.00  0.00    -0.296 C  
HETATM    4  C   UNL     1     -10.660  11.999  64.569  1.00  0.00    -0.313 C  
HETATM    5  C   UNL     1     -11.049  14.235  65.303  1.00  0.00    -0.335 C  
HETATM    6  N   UNL     1     -11.149  12.864  65.510  1.00  0.00    -0.275 N  
HETATM    7  C   UNL     1      -9.506  11.535  65.473  1.00  0.00    -0.234 C  
HETATM    8  C   UNL     1     -11.866  14.902  64.234  1.00  0.00    -0.297 C  
HETATM    9  O   UNL     1     -12.650  14.057  63.530  1.00  0.00    -0.842 OA 
HETATM   10  O   UNL     1     -11.905  16.105  64.035  1.00  0.00    -0.876 OA 
HETATM   11  O   UNL     1     -11.041  11.837  63.435  1.00  0.00    -0.393 OA 
ENDROOT
BRANCH   3  12
HETATM   12  S   UNL     1      -9.505  16.399  66.167  1.00  0.00    -0.326 SA 
BRANCH  12  13
HETATM   13  C   UNL     1      -9.616  16.910  67.907  1.00  0.00    -0.244 C  
BRANCH  13  14
HETATM   14  C   UNL     1      -9.645  18.419  68.153  1.00  0.00    -0.316 C  
BRANCH  14  15
HETATM   15  N   UNL     1     -10.596  19.048  67.216  1.00  0.00    -0.450 NA 
HETATM   16  H   UNL     1     -11.535  18.686  67.050  1.00  0.00     0.000 HD 
BRANCH  15  17
HETATM   17  C   UNL     1     -10.134  20.092  66.630  1.00  0.00    -0.479 C  
HETATM   18  H1  UNL     1      -8.759  20.877  65.265  1.00  0.00     0.000 HD 
HETATM   19  N   UNL     1      -9.126  20.048  65.731  1.00  0.00    -0.505 NA 
HETATM   20  H2  UNL     1      -8.713  19.143  65.509  1.00  0.00     0.000 HD 
ENDBRANCH  15  17
ENDBRANCH  14  15
ENDBRANCH  13  14
ENDBRANCH  12  13
ENDBRANCH   3  12
BRANCH   7  21
HETATM   21  C   UNL     1      -9.474  10.053  65.801  1.00  0.00    -0.214 C  
HETATM   22  O   UNL     1      -9.776   9.342  64.603  1.00  0.00    -0.404 OA 
HETATM   23  C   UNL     1     -10.500   9.706  66.870  1.00  0.00    -0.282 C  
HETATM   24  H   UNL     1      -9.756   8.415  64.808  1.00  0.00     0.000 HD 
ENDBRANCH   7  21
TORSDOF 6
ENDMDL
MODEL       33
REMARK 921   NORMALIZED FREE ENERGY PREDICTED BY IDOCK:   -5.16 KCAL/MOL
REMARK 922        TOTAL FREE ENERGY PREDICTED BY IDOCK:   -8.18 KCAL/MOL
REMARK 923 INTER-LIGAND FREE ENERGY PREDICTED BY IDOCK:   -7.45 KCAL/MOL
REMARK 924 INTRA-LIGAND FREE ENERGY PREDICTED BY IDOCK:   -0.73 KCAL/MOL
REMARK 927      BINDING AFFINITY PREDICTED BY RF-SCORE:    0.00 PKD
ROOT
HETATM    1  C   UNL     1      -9.712  16.483  67.199  1.00  0.00    -0.245 C  
HETATM    2  C   UNL     1     -10.312  15.854  68.450  1.00  0.00    -0.240 C  
HETATM    3  C   UNL     1     -11.143  14.723  67.897  1.00  0.00    -0.293 C  
HETATM    4  C   UNL     1     -10.729  16.732  65.386  1.00  0.00    -0.189 C  
HETATM    5  C   UNL     1     -11.057  14.678  66.554  1.00  0.00    -0.329 C  
HETATM    6  N   UNL     1     -10.207  15.659  66.055  1.00  0.00    -0.312 N  
HETATM    7  C   UNL     1     -10.372  17.716  66.512  1.00  0.00    -0.337 C  
HETATM    8  C   UNL     1     -11.791  13.763  65.616  1.00  0.00    -0.365 C  
HETATM    9  O   UNL     1     -11.552  14.005  64.308  1.00  0.00    -0.380 OA 
HETATM   10  O   UNL     1     -12.492  12.826  65.962  1.00  0.00    -0.540 OA 
HETATM   11  O   UNL     1     -11.323  16.738  64.335  1.00  0.00    -1.089 OA 
ENDROOT
BRANCH   3  12
HETATM   12  S   UNL     1     -12.155  13.869  68.993  1.00  0.00    -0.257 SA 
BRANCH  12  13
HETATM   13  C   UNL     1     -11.142  12.498  69.624  1.00  0.00     0.083 C  
BRANCH  13  14
HETATM   14  C   UNL     1     -11.809  11.123  69.614  1.00  0.00    -0.348 C  
BRANCH  14  15
HETATM   15  N   UNL     1     -12.015  10.690  68.219  1.00  0.00    -0.814 NA 
HETATM   16  H   UNL     1     -12.869  10.887  67.696  1.00  0.00     0.000 HD 
BRANCH  15  17
HETATM   17  C   UNL     1     -11.024  10.044  67.722  1.00  0.00    -0.249 C  
HETATM   18  H1  UNL     1     -10.076   8.197  67.476  1.00  0.00     0.000 HD 
HETATM   19  N   UNL     1     -10.864   8.711  67.871  1.00  0.00    -0.487 NA 
HETATM   20  H2  UNL     1     -11.563   8.194  68.403  1.00  0.00     0.000 HD 
ENDBRANCH  15  17
ENDBRANCH  14  15
ENDBRANCH  13  14
ENDBRANCH  12  13
ENDBRANCH   3  12
BRANCH   7  21
HETATM   21  C   UNL     1      -9.441  18.852  66.130  1.00  0.00    -0.215 C  
HETATM   22  O   UNL     1      -8.114  18.449  66.459  1.00  0.00    -0.252 OA 
HETATM   23  C   UNL     1      -9.789  20.125  66.889  1.00  0.00    -0.593 C  
HETATM   24  H   UNL     1      -7.531  19.160  66.220  1.00  0.00     0.000 HD 
ENDBRANCH   7  21
TORSDOF 6
ENDMDL
MODEL       34
REMARK 921   NORMALIZED FREE ENERGY PREDICTED BY IDOCK:   -5.15 KCAL/MOL
REMARK 922        TOTAL FREE ENERGY PREDICTED BY IDOCK:   -8.17 KCAL/MOL
REMARK 923 INTER-LIGAND FREE ENERGY PREDICTED BY IDOCK:   -7.67 KCAL/MOL
REMARK 924 INTRA-LIGAND FREE ENERGY PREDICTED BY IDOCK:   -0.50 KCAL/MOL
REMARK 927      BINDING AFFINITY PREDICTED BY RF-SCORE:    0.00 PKD
ROOT
HETATM    1  C   UNL     1     -11.120  13.296  67.800  1.00  0.00    -0.265 C  
HETATM    2  C   UNL     1     -11.679  12.722  66.504  1.00  0.00    -0.463 C  
HETATM    3  C   UNL     1     -11.549  13.874  65.539  1.00  0.00    -0.327 C  
HETATM    4  C   UNL     1     -11.437  15.255  68.470  1.00  0.00    -0.342 C  
HETATM    5  C   UNL     1     -11.008  14.948  66.144  1.00  0.00    -0.334 C  
HETATM    6  N   UNL     1     -10.690  14.689  67.473  1.00  0.00    -0.265 N  
HETATM    7  C   UNL     1     -12.052  13.909  68.888  1.00  0.00    -0.355 C  
HETATM    8  C   UNL     1     -10.787  16.315  65.564  1.00  0.00    -0.245 C  
HETATM    9  O   UNL     1     -10.288  17.214  66.441  1.00  0.00    -0.321 OA 
HETATM   10  O   UNL     1     -10.959  16.613  64.393  1.00  0.00    -0.924 OA 
HETATM   11  O   UNL     1     -11.552  16.424  68.744  1.00  0.00    -0.308 OA 
ENDROOT
BRANCH   3  12
HETATM   12  S   UNL     1     -12.261  13.692  63.984  1.00  0.00    -0.321 SA 
BRANCH  12  13
HETATM   13  C   UNL     1     -11.867  11.996  63.463  1.00  0.00    -0.492 C  
BRANCH  13  14
HETATM   14  C   UNL     1     -10.379  11.678  63.315  1.00  0.00    -0.398 C  
BRANCH  14  15
HETATM   15  N   UNL     1     -10.141  10.268  63.677  1.00  0.00    -0.485 NA 
HETATM   16  H   UNL     1     -10.338   9.491  63.047  1.00  0.00     0.000 HD 
BRANCH  15  17
HETATM   17  C   UNL     1      -9.665  10.108  64.858  1.00  0.00    -0.324 C  
HETATM   18  H1  UNL     1      -9.705   9.006  66.634  1.00  0.00     0.000 HD 
HETATM   19  N   UNL     1     -10.083   9.133  65.696  1.00  0.00    -0.347 NA 
HETATM   20  H2  UNL     1     -10.811   8.496  65.375  1.00  0.00     0.000 HD 
ENDBRANCH  15  17
ENDBRANCH  14  15
ENDBRANCH  13  14
ENDBRANCH  12  13
ENDBRANCH   3  12
BRANCH   7  21
HETATM   21  C   UNL     1     -11.792  13.476  70.319  1.00  0.00    -0.257 C  
HETATM   22  O   UNL     1     -11.860  12.053  70.356  1.00  0.00    -0.470 OA 
HETATM   23  C   UNL     1     -12.831  14.059  71.266  1.00  0.00    -0.430 C  
HETATM   24  H   UNL     1     -11.697  11.782  71.252  1.00  0.00     0.000 HD 
ENDBRANCH   7  21
TORSDOF 6
ENDMDL
MODEL       35
REMARK 921   NORMALIZED FREE ENERGY PREDICTED BY IDOCK:   -5.14 KCAL/MOL
REMARK 922        TOTAL FREE ENERGY PREDICTED BY IDOCK:   -8.16 KCAL/MOL
REMARK 923 INTER-LIGAND FREE ENERGY PREDICTED BY IDOCK:   -7.31 KCAL/MOL
REMARK 924 INTRA-LIGAND FREE ENERGY PREDICTED BY IDOCK:   -0.85 KCAL/MOL
REMARK 927      BINDING AFFINITY PREDICTED BY RF-SCORE:    0.00 PKD
ROOT
HETATM    1  C   UNL     1     -11.441  13.390  66.679  1.00  0.00    -0.344 C  
HETATM    2  C   UNL     1     -11.911  12.995  68.073  1.00  0.00    -0.391 C  
HETATM    3  C   UNL     1     -11.537  11.536  68.156  1.00  0.00    -0.308 C  
HETATM    4  C   UNL     1     -11.602  12.179  64.979  1.00  0.00    -0.310 C  
HETATM    5  C   UNL     1     -10.947  11.127  67.017  1.00  0.00    -0.289 C  
HETATM    6  N   UNL     1     -10.817  12.163  66.099  1.00  0.00    -0.271 N  
HETATM    7  C   UNL     1     -12.414  13.392  65.462  1.00  0.00    -0.534 C  
HETATM    8  C   UNL     1     -10.502   9.738  66.660  1.00  0.00    -0.163 C  
HETATM    9  O   UNL     1     -10.006   9.621  65.408  1.00  0.00    -0.316 OA 
HETATM   10  O   UNL     1     -10.502   8.787  67.424  1.00  0.00    -0.261 OA 
HETATM   11  O   UNL     1     -11.611  11.393  64.063  1.00  0.00    -0.272 OA 
ENDROOT
BRANCH   3  12
HETATM   12  S   UNL     1     -12.081  10.652  69.527  1.00  0.00    -0.138 SA 
BRANCH  12  13
HETATM   13  C   UNL     1     -10.575  10.175  70.427  1.00  0.00    -0.224 C  
BRANCH  13  14
HETATM   14  C   UNL     1     -10.466   8.696  70.797  1.00  0.00    -0.204 C  
BRANCH  14  15
HETATM   15  N   UNL     1     -11.633   7.971  70.260  1.00  0.00    -0.471 NA 
HETATM   16  H   UNL     1     -12.008   8.134  69.325  1.00  0.00     0.000 HD 
BRANCH  15  17
HETATM   17  C   UNL     1     -12.134   7.116  71.075  1.00  0.00    -0.350 C  
HETATM   18  H1  UNL     1     -13.431   6.766  72.677  1.00  0.00     0.000 HD 
HETATM   19  N   UNL     1     -13.033   7.445  72.029  1.00  0.00    -0.505 NA 
HETATM   20  H2  UNL     1     -13.325   8.419  72.105  1.00  0.00     0.000 HD 
ENDBRANCH  15  17
ENDBRANCH  14  15
ENDBRANCH  13  14
ENDBRANCH  12  13
ENDBRANCH   3  12
BRANCH   7  21
HETATM   21  C   UNL     1     -12.373  14.617  64.568  1.00  0.00    -0.398 C  
HETATM   22  O   UNL     1     -12.462  14.167  63.219  1.00  0.00    -1.146 OA 
HETATM   23  C   UNL     1     -11.078  15.394  64.761  1.00  0.00    -0.416 C  
HETATM   24  H   UNL     1     -12.436  14.935  62.659  1.00  0.00     0.000 HD 
ENDBRANCH   7  21
TORSDOF 6
ENDMDL
MODEL       36
REMARK 921   NORMALIZED FREE ENERGY PREDICTED BY IDOCK:   -5.13 KCAL/MOL
REMARK 922        TOTAL FREE ENERGY PREDICTED BY IDOCK:   -8.14 KCAL/MOL
REMARK 923 INTER-LIGAND FREE ENERGY PREDICTED BY IDOCK:   -6.87 KCAL/MOL
REMARK 924 INTRA-LIGAND FREE ENERGY PREDICTED BY IDOCK:   -1.27 KCAL/MOL
REMARK 927      BINDING AFFINITY PREDICTED BY RF-SCORE:    0.00 PKD
ROOT
HETATM    1  C   UNL     1     -10.673  15.213  66.940  1.00  0.00    -0.308 C  
HETATM    2  C   UNL     1      -9.482  14.784  67.788  1.00  0.00    -0.204 C  
HETATM    3  C   UNL     1      -8.967  16.092  68.335  1.00  0.00    -0.196 C  
HETATM    4  C   UNL     1     -10.729  16.932  65.746  1.00  0.00    -0.160 C  
HETATM    5  C   UNL     1      -9.715  17.123  67.897  1.00  0.00    -0.270 C  
HETATM    6  N   UNL     1     -10.766  16.695  67.094  1.00  0.00    -0.256 N  
HETATM    7  C   UNL     1     -10.538  15.445  65.405  1.00  0.00    -0.430 C  
HETATM    8  C   UNL     1      -9.491  18.588  68.138  1.00  0.00    -0.317 C  
HETATM    9  O   UNL     1     -10.373  19.393  67.504  1.00  0.00    -0.385 OA 
HETATM   10  O   UNL     1      -8.649  19.051  68.889  1.00  0.00    -0.333 OA 
HETATM   11  O   UNL     1     -10.749  17.994  65.175  1.00  0.00    -0.612 OA 
ENDROOT
BRANCH   3  12
HETATM   12  S   UNL     1      -7.483  16.062  69.203  1.00  0.00    -0.220 SA 
BRANCH  12  13
HETATM   13  C   UNL     1      -6.189  15.826  67.948  1.00  0.00    -0.141 C  
BRANCH  13  14
HETATM   14  C   UNL     1      -6.232  16.791  66.764  1.00  0.00    -0.152 C  
BRANCH  14  15
HETATM   15  N   UNL     1      -6.030  18.170  67.249  1.00  0.00    -0.146 NA 
HETATM   16  H   UNL     1      -5.743  18.387  68.204  1.00  0.00     0.000 HD 
BRANCH  15  17
HETATM   17  C   UNL     1      -6.247  19.071  66.362  1.00  0.00    -0.179 C  
HETATM   18  H1  UNL     1      -7.316  19.636  64.656  1.00  0.00     0.000 HD 
HETATM   19  N   UNL     1      -7.143  18.920  65.361  1.00  0.00    -0.503 NA 
HETATM   20  H2  UNL     1      -7.670  18.049  65.309  1.00  0.00     0.000 HD 
ENDBRANCH  15  17
ENDBRANCH  14  15
ENDBRANCH  13  14
ENDBRANCH  12  13
ENDBRANCH   3  12
BRANCH   7  21
HETATM   21  C   UNL     1     -11.612  14.820  64.532  1.00  0.00    -0.361 C  
HETATM   22  O   UNL     1     -12.231  15.871  63.796  1.00  0.00    -1.213 OA 
HETATM   23  C   UNL     1     -12.658  14.106  65.377  1.00  0.00    -0.485 C  
HETATM   24  H   UNL     1     -12.903  15.480  63.249  1.00  0.00     0.000 HD 
ENDBRANCH   7  21
TORSDOF 6
ENDMDL
MODEL       37
REMARK 921   NORMALIZED FREE ENERGY PREDICTED BY IDOCK:   -5.09 KCAL/MOL
REMARK 922        TOTAL FREE ENERGY PREDICTED BY IDOCK:   -8.09 KCAL/MOL
REMARK 923 INTER-LIGAND FREE ENERGY PREDICTED BY IDOCK:   -7.33 KCAL/MOL
REMARK 924 INTRA-LIGAND FREE ENERGY PREDICTED BY IDOCK:   -0.76 KCAL/MOL
REMARK 927      BINDING AFFINITY PREDICTED BY RF-SCORE:    0.00 PKD
ROOT
HETATM    1  C   UNL     1     -10.387  12.818  66.920  1.00  0.00    -0.238 C  
HETATM    2  C   UNL     1      -9.706  14.132  67.282  1.00  0.00    -0.236 C  
HETATM    3  C   UNL     1     -10.267  15.095  66.265  1.00  0.00    -0.288 C  
HETATM    4  C   UNL     1     -10.756  12.166  64.965  1.00  0.00    -0.297 C  
HETATM    5  C   UNL     1     -11.130  14.473  65.441  1.00  0.00    -0.345 C  
HETATM    6  N   UNL     1     -11.290  13.133  65.773  1.00  0.00    -0.300 N  
HETATM    7  C   UNL     1      -9.693  11.768  66.002  1.00  0.00    -0.254 C  
HETATM    8  C   UNL     1     -11.838  15.048  64.248  1.00  0.00    -0.275 C  
HETATM    9  O   UNL     1     -12.590  14.155  63.568  1.00  0.00    -0.834 OA 
HETATM   10  O   UNL     1     -11.823  16.225  63.927  1.00  0.00    -0.994 OA 
HETATM   11  O   UNL     1     -11.051  11.899  63.826  1.00  0.00    -0.365 OA 
ENDROOT
BRANCH   3  12
HETATM   12  S   UNL     1      -9.591  16.675  66.210  1.00  0.00    -0.300 SA 
BRANCH  12  13
HETATM   13  C   UNL     1     -10.611  17.680  67.330  1.00  0.00    -0.318 C  
BRANCH  13  14
HETATM   14  C   UNL     1     -10.701  17.179  68.771  1.00  0.00    -0.289 C  
BRANCH  14  15
HETATM   15  N   UNL     1     -12.034  16.591  69.003  1.00  0.00    -0.028 NA 
HETATM   16  H   UNL     1     -12.872  16.906  68.515  1.00  0.00     0.000 HD 
BRANCH  15  17
HETATM   17  C   UNL     1     -12.043  15.648  69.873  1.00  0.00    -0.341 C  
HETATM   18  H1  UNL     1     -13.187  14.389  71.087  1.00  0.00     0.000 HD 
HETATM   19  N   UNL     1     -13.180  15.138  70.396  1.00  0.00    -0.679 NA 
HETATM   20  H2  UNL     1     -14.072  15.520  70.084  1.00  0.00     0.000 HD 
ENDBRANCH  15  17
ENDBRANCH  14  15
ENDBRANCH  13  14
ENDBRANCH  12  13
ENDBRANCH   3  12
BRANCH   7  21
HETATM   21  C   UNL     1      -9.734  10.326  66.476  1.00  0.00    -0.193 C  
HETATM   22  O   UNL     1     -10.021   9.510  65.343  1.00  0.00    -0.409 OA 
HETATM   23  C   UNL     1     -10.812  10.127  67.532  1.00  0.00    -0.349 C  
HETATM   24  H   UNL     1     -10.046   8.608  65.640  1.00  0.00     0.000 HD 
ENDBRANCH   7  21
TORSDOF 6
ENDMDL
MODEL       38
REMARK 921   NORMALIZED FREE ENERGY PREDICTED BY IDOCK:   -5.07 KCAL/MOL
REMARK 922        TOTAL FREE ENERGY PREDICTED BY IDOCK:   -8.07 KCAL/MOL
REMARK 923 INTER-LIGAND FREE ENERGY PREDICTED BY IDOCK:   -7.50 KCAL/MOL
REMARK 924 INTRA-LIGAND FREE ENERGY PREDICTED BY IDOCK:   -0.57 KCAL/MOL
REMARK 927      BINDING AFFINITY PREDICTED BY RF-SCORE:    0.00 PKD
ROOT
HETATM    1  C   UNL     1     -11.565  13.324  67.522  1.00  0.00    -0.346 C  
HETATM    2  C   UNL     1     -10.777  14.577  67.880  1.00  0.00    -0.245 C  
HETATM    3  C   UNL     1     -10.935  15.440  66.653  1.00  0.00    -0.275 C  
HETATM    4  C   UNL     1     -11.595  12.437  65.626  1.00  0.00    -0.392 C  
HETATM    5  C   UNL     1     -11.685  14.819  65.723  1.00  0.00    -0.252 C  
HETATM    6  N   UNL     1     -12.130  13.577  66.162  1.00  0.00    -0.420 N  
HETATM    7  C   UNL     1     -10.866  12.065  66.927  1.00  0.00    -0.302 C  
HETATM    8  C   UNL     1     -12.009  15.294  64.336  1.00  0.00    -0.277 C  
HETATM    9  O   UNL     1     -12.728  14.413  63.605  1.00  0.00    -0.773 OA 
HETATM   10  O   UNL     1     -11.732  16.396  63.894  1.00  0.00    -1.085 OA 
HETATM   11  O   UNL     1     -11.671  12.041  64.488  1.00  0.00    -0.342 OA 
ENDROOT
BRANCH   3  12
HETATM   12  S   UNL     1     -10.016  16.891  66.577  1.00  0.00    -0.313 SA 
BRANCH  12  13
HETATM   13  C   UNL     1      -8.653  16.667  67.759  1.00  0.00    -0.192 C  
BRANCH  13  14
HETATM   14  C   UNL     1      -7.258  17.000  67.231  1.00  0.00    -0.160 C  
BRANCH  14  15
HETATM   15  N   UNL     1      -6.487  15.753  67.066  1.00  0.00    -0.288 NA 
HETATM   16  H   UNL     1      -5.580  15.718  66.602  1.00  0.00     0.000 HD 
BRANCH  15  17
HETATM   17  C   UNL     1      -7.062  14.718  67.560  1.00  0.00    -0.184 C  
HETATM   18  H1  UNL     1      -7.311  12.643  67.484  1.00  0.00     0.000 HD 
HETATM   19  N   UNL     1      -6.855  13.466  67.092  1.00  0.00    -0.434 NA 
HETATM   20  H2  UNL     1      -6.212  13.340  66.312  1.00  0.00     0.000 HD 
ENDBRANCH  15  17
ENDBRANCH  14  15
ENDBRANCH  13  14
ENDBRANCH  12  13
ENDBRANCH   3  12
BRANCH   7  21
HETATM   21  C   UNL     1     -11.244  10.730  67.543  1.00  0.00    -0.274 C  
HETATM   22  O   UNL     1     -12.303  10.968  68.466  1.00  0.00    -0.762 OA 
HETATM   23  C   UNL     1     -10.062  10.109  68.273  1.00  0.00    -0.179 C  
HETATM   24  H   UNL     1     -12.540  10.133  68.851  1.00  0.00     0.000 HD 
ENDBRANCH   7  21
TORSDOF 6
ENDMDL
MODEL       39
REMARK 921   NORMALIZED FREE ENERGY PREDICTED BY IDOCK:   -5.06 KCAL/MOL
REMARK 922        TOTAL FREE ENERGY PREDICTED BY IDOCK:   -8.04 KCAL/MOL
REMARK 923 INTER-LIGAND FREE ENERGY PREDICTED BY IDOCK:   -7.33 KCAL/MOL
REMARK 924 INTRA-LIGAND FREE ENERGY PREDICTED BY IDOCK:   -0.71 KCAL/MOL
REMARK 927      BINDING AFFINITY PREDICTED BY RF-SCORE:    0.00 PKD
ROOT
HETATM    1  C   UNL     1     -11.543  11.285  67.958  1.00  0.00    -0.272 C  
HETATM    2  C   UNL     1     -10.588  10.099  68.009  1.00  0.00    -0.273 C  
HETATM    3  C   UNL     1     -10.829   9.528  69.385  1.00  0.00    -0.206 C  
HETATM    4  C   UNL     1     -11.931  12.572  69.564  1.00  0.00    -0.266 C  
HETATM    5  C   UNL     1     -11.762  10.241  70.043  1.00  0.00    -0.254 C  
HETATM    6  N   UNL     1     -12.265  11.278  69.266  1.00  0.00    -0.291 N  
HETATM    7  C   UNL     1     -11.067  12.728  68.301  1.00  0.00    -0.288 C  
HETATM    8  C   UNL     1     -12.228  10.059  71.459  1.00  0.00    -0.405 C  
HETATM    9  O   UNL     1     -13.130  10.980  71.866  1.00  0.00    -0.486 OA 
HETATM   10  O   UNL     1     -11.905   9.134  72.186  1.00  0.00    -0.345 OA 
HETATM   11  O   UNL     1     -12.207  13.204  70.554  1.00  0.00    -0.357 OA 
ENDROOT
BRANCH   3  12
HETATM   12  S   UNL     1      -9.786   8.269  69.917  1.00  0.00    -0.188 SA 
BRANCH  12  13
HETATM   13  C   UNL     1     -10.856   6.818  70.153  1.00  0.00    -0.266 C  
BRANCH  13  14
HETATM   14  C   UNL     1     -10.890   5.825  68.991  1.00  0.00    -0.260 C  
BRANCH  14  15
HETATM   15  N   UNL     1     -11.507   6.469  67.816  1.00  0.00    -0.663 NA 
HETATM   16  H   UNL     1     -12.382   6.990  67.863  1.00  0.00     0.000 HD 
BRANCH  15  17
HETATM   17  C   UNL     1     -10.843   6.313  66.729  1.00  0.00    -0.296 C  
HETATM   18  H1  UNL     1     -10.585   5.211  64.971  1.00  0.00     0.000 HD 
HETATM   19  N   UNL     1     -11.112   5.336  65.834  1.00  0.00    -0.800 NA 
HETATM   20  H2  UNL     1     -11.877   4.693  66.033  1.00  0.00     0.000 HD 
ENDBRANCH  15  17
ENDBRANCH  14  15
ENDBRANCH  13  14
ENDBRANCH  12  13
ENDBRANCH   3  12
BRANCH   7  21
HETATM   21  C   UNL     1     -11.490  13.823  67.339  1.00  0.00    -0.345 C  
HETATM   22  O   UNL     1     -12.429  14.653  68.018  1.00  0.00    -0.595 OA 
HETATM   23  C   UNL     1     -12.137  13.237  66.092  1.00  0.00    -0.477 C  
HETATM   24  H   UNL     1     -12.693  15.338  67.416  1.00  0.00     0.000 HD 
ENDBRANCH   7  21
TORSDOF 6
ENDMDL
MODEL       40
REMARK 921   NORMALIZED FREE ENERGY PREDICTED BY IDOCK:   -4.99 KCAL/MOL
REMARK 922        TOTAL FREE ENERGY PREDICTED BY IDOCK:   -7.95 KCAL/MOL
REMARK 923 INTER-LIGAND FREE ENERGY PREDICTED BY IDOCK:   -7.40 KCAL/MOL
REMARK 924 INTRA-LIGAND FREE ENERGY PREDICTED BY IDOCK:   -0.55 KCAL/MOL
REMARK 927      BINDING AFFINITY PREDICTED BY RF-SCORE:    0.00 PKD
ROOT
HETATM    1  C   UNL     1     -11.909  11.287  69.471  1.00  0.00    -0.357 C  
HETATM    2  C   UNL     1     -11.926  12.727  69.967  1.00  0.00    -0.371 C  
HETATM    3  C   UNL     1     -11.924  13.527  68.688  1.00  0.00    -0.343 C  
HETATM    4  C   UNL     1     -10.810  10.607  67.823  1.00  0.00    -0.286 C  
HETATM    5  C   UNL     1     -11.910  12.714  67.615  1.00  0.00    -0.329 C  
HETATM    6  N   UNL     1     -11.934  11.373  67.980  1.00  0.00    -0.183 N  
HETATM    7  C   UNL     1     -10.578  10.487  69.338  1.00  0.00    -0.269 C  
HETATM    8  C   UNL     1     -11.819  13.105  66.168  1.00  0.00    -0.401 C  
HETATM    9  O   UNL     1     -11.751  12.057  65.316  1.00  0.00    -0.333 OA 
HETATM   10  O   UNL     1     -11.873  14.249  65.749  1.00  0.00    -0.355 OA 
HETATM   11  O   UNL     1     -10.255  10.299  66.797  1.00  0.00    -0.211 OA 
ENDROOT
BRANCH   3  12
HETATM   12  S   UNL     1     -11.743  15.231  68.816  1.00  0.00    -0.333 SA 
BRANCH  12  13
HETATM   13  C   UNL     1     -11.998  15.617  70.575  1.00  0.00    -0.385 C  
BRANCH  13  14
HETATM   14  C   UNL     1     -13.445  15.551  71.063  1.00  0.00    -0.368 C  
BRANCH  14  15
HETATM   15  N   UNL     1     -13.467  15.086  72.463  1.00  0.00    -0.404 NA 
HETATM   16  H   UNL     1     -13.478  14.100  72.721  1.00  0.00     0.000 HD 
BRANCH  15  17
HETATM   17  C   UNL     1     -13.472  16.036  73.326  1.00  0.00    -0.484 C  
HETATM   18  H1  UNL     1     -12.744  16.758  75.148  1.00  0.00     0.000 HD 
HETATM   19  N   UNL     1     -12.740  16.004  74.462  1.00  0.00    -0.984 NA 
HETATM   20  H2  UNL     1     -12.157  15.187  74.641  1.00  0.00     0.000 HD 
ENDBRANCH  15  17
ENDBRANCH  14  15
ENDBRANCH  13  14
ENDBRANCH  12  13
ENDBRANCH   3  12
BRANCH   7  21
HETATM   21  C   UNL     1     -10.579   9.078  69.901  1.00  0.00    -0.228 C  
HETATM   22  O   UNL     1     -10.934   8.193  68.841  1.00  0.00    -0.428 OA 
HETATM   23  C   UNL     1     -11.586   8.941  71.035  1.00  0.00    -0.347 C  
HETATM   24  H   UNL     1     -10.934   7.311  69.193  1.00  0.00     0.000 HD 
ENDBRANCH   7  21
TORSDOF 6
ENDMDL
MODEL       41
REMARK 921   NORMALIZED FREE ENERGY PREDICTED BY IDOCK:   -4.98 KCAL/MOL
REMARK 922        TOTAL FREE ENERGY PREDICTED BY IDOCK:   -7.93 KCAL/MOL
REMARK 923 INTER-LIGAND FREE ENERGY PREDICTED BY IDOCK:   -7.43 KCAL/MOL
REMARK 924 INTRA-LIGAND FREE ENERGY PREDICTED BY IDOCK:   -0.51 KCAL/MOL
REMARK 927      BINDING AFFINITY PREDICTED BY RF-SCORE:    0.00 PKD
ROOT
HETATM    1  C   UNL     1     -11.977  13.174  66.511  1.00  0.00    -0.398 C  
HETATM    2  C   UNL     1     -11.684  11.859  67.221  1.00  0.00    -0.319 C  
HETATM    3  C   UNL     1     -11.760  12.236  68.680  1.00  0.00    -0.328 C  
HETATM    4  C   UNL     1     -11.281  15.047  67.137  1.00  0.00    -0.336 C  
HETATM    5  C   UNL     1     -12.049  13.543  68.822  1.00  0.00    -0.270 C  
HETATM    6  N   UNL     1     -12.228  14.171  67.595  1.00  0.00    -0.291 N  
HETATM    7  C   UNL     1     -10.830  14.103  66.011  1.00  0.00    -0.297 C  
HETATM    8  C   UNL     1     -12.132  14.332  70.097  1.00  0.00    -0.339 C  
HETATM    9  O   UNL     1     -12.370  15.650  69.917  1.00  0.00    -0.354 OA 
HETATM   10  O   UNL     1     -12.069  13.855  71.218  1.00  0.00    -0.319 OA 
HETATM   11  O   UNL     1     -10.955  16.108  67.612  1.00  0.00    -0.324 OA 
ENDROOT
BRANCH   3  12
HETATM   12  S   UNL     1     -11.291  11.050  69.833  1.00  0.00    -0.270 SA 
BRANCH  12  13
HETATM   13  C   UNL     1     -12.756  10.779  70.875  1.00  0.00    -0.384 C  
BRANCH  13  14
HETATM   14  C   UNL     1     -12.678   9.586  71.827  1.00  0.00    -0.404 C  
BRANCH  14  15
HETATM   15  N   UNL     1     -13.273   8.402  71.178  1.00  0.00    -0.514 NA 
HETATM   16  H   UNL     1     -14.165   8.427  70.686  1.00  0.00     0.000 HD 
BRANCH  15  17
HETATM   17  C   UNL     1     -12.565   7.337  71.289  1.00  0.00    -0.366 C  
HETATM   18  H1  UNL     1     -11.552   5.790  70.313  1.00  0.00     0.000 HD 
HETATM   19  N   UNL     1     -12.114   6.637  70.225  1.00  0.00    -0.574 NA 
HETATM   20  H2  UNL     1     -12.348   6.970  69.290  1.00  0.00     0.000 HD 
ENDBRANCH  15  17
ENDBRANCH  14  15
ENDBRANCH  13  14
ENDBRANCH  12  13
ENDBRANCH   3  12
BRANCH   7  21
HETATM   21  C   UNL     1     -10.966  14.641  64.598  1.00  0.00    -0.325 C  
HETATM   22  O   UNL     1     -11.022  16.062  64.684  1.00  0.00    -0.727 OA 
HETATM   23  C   UNL     1     -12.234  14.122  63.934  1.00  0.00    -0.288 C  
HETATM   24  H   UNL     1     -11.107  16.399  63.800  1.00  0.00     0.000 HD 
ENDBRANCH   7  21
TORSDOF 6
ENDMDL
MODEL       42
REMARK 921   NORMALIZED FREE ENERGY PREDICTED BY IDOCK:   -4.97 KCAL/MOL
REMARK 922        TOTAL FREE ENERGY PREDICTED BY IDOCK:   -7.93 KCAL/MOL
REMARK 923 INTER-LIGAND FREE ENERGY PREDICTED BY IDOCK:   -6.88 KCAL/MOL
REMARK 924 INTRA-LIGAND FREE ENERGY PREDICTED BY IDOCK:   -1.04 KCAL/MOL
REMARK 927      BINDING AFFINITY PREDICTED BY RF-SCORE:    0.00 PKD
ROOT
HETATM    1  C   UNL     1     -11.526  11.822  67.991  1.00  0.00    -0.319 C  
HETATM    2  C   UNL     1     -10.594  10.617  68.010  1.00  0.00    -0.248 C  
HETATM    3  C   UNL     1     -10.884   9.984  69.348  1.00  0.00    -0.239 C  
HETATM    4  C   UNL     1     -11.937  13.037  69.646  1.00  0.00    -0.302 C  
HETATM    5  C   UNL     1     -11.823  10.682  70.014  1.00  0.00    -0.322 C  
HETATM    6  N   UNL     1     -12.285  11.766  69.276  1.00  0.00    -0.208 N  
HETATM    7  C   UNL     1     -11.034  13.238  68.418  1.00  0.00    -0.289 C  
HETATM    8  C   UNL     1     -12.333  10.440  71.406  1.00  0.00    -0.397 C  
HETATM    9  O   UNL     1     -13.230  11.357  71.833  1.00  0.00    -0.484 OA 
HETATM   10  O   UNL     1     -12.048   9.475  72.095  1.00  0.00    -0.313 OA 
HETATM   11  O   UNL     1     -12.229  13.625  70.658  1.00  0.00    -0.341 OA 
ENDROOT
BRANCH   3  12
HETATM   12  S   UNL     1      -9.880   8.681  69.846  1.00  0.00    -0.187 SA 
BRANCH  12  13
HETATM   13  C   UNL     1     -10.504   7.220  68.960  1.00  0.00    -0.211 C  
BRANCH  13  14
HETATM   14  C   UNL     1     -11.289   6.219  69.807  1.00  0.00    -0.436 C  
BRANCH  14  15
HETATM   15  N   UNL     1     -12.399   6.915  70.484  1.00  0.00    -0.601 NA 
HETATM   16  H   UNL     1     -12.963   7.634  70.031  1.00  0.00     0.000 HD 
BRANCH  15  17
HETATM   17  C   UNL     1     -12.592   6.534  71.694  1.00  0.00    -0.165 C  
HETATM   18  H1  UNL     1     -11.786   6.286  73.607  1.00  0.00     0.000 HD 
HETATM   19  N   UNL     1     -11.634   6.589  72.646  1.00  0.00    -0.464 NA 
HETATM   20  H2  UNL     1     -10.715   6.950  72.390  1.00  0.00     0.000 HD 
ENDBRANCH  15  17
ENDBRANCH  14  15
ENDBRANCH  13  14
ENDBRANCH  12  13
ENDBRANCH   3  12
BRANCH   7  21
HETATM   21  C   UNL     1     -11.409  14.386  67.499  1.00  0.00    -0.328 C  
HETATM   22  O   UNL     1     -12.237  15.277  68.242  1.00  0.00    -0.533 OA 
HETATM   23  C   UNL     1     -12.168  13.886  66.278  1.00  0.00    -0.498 C  
HETATM   24  H   UNL     1     -12.471  15.996  67.667  1.00  0.00     0.000 HD 
ENDBRANCH   7  21
TORSDOF 6
ENDMDL
MODEL       43
REMARK 921   NORMALIZED FREE ENERGY PREDICTED BY IDOCK:   -4.91 KCAL/MOL
REMARK 922        TOTAL FREE ENERGY PREDICTED BY IDOCK:   -7.85 KCAL/MOL
REMARK 923 INTER-LIGAND FREE ENERGY PREDICTED BY IDOCK:   -7.15 KCAL/MOL
REMARK 924 INTRA-LIGAND FREE ENERGY PREDICTED BY IDOCK:   -0.70 KCAL/MOL
REMARK 927      BINDING AFFINITY PREDICTED BY RF-SCORE:    0.00 PKD
ROOT
HETATM    1  C   UNL     1     -11.538  14.465  68.915  1.00  0.00    -0.306 C  
HETATM    2  C   UNL     1     -11.574  12.952  69.088  1.00  0.00    -0.375 C  
HETATM    3  C   UNL     1     -12.393  12.774  70.342  1.00  0.00    -0.247 C  
HETATM    4  C   UNL     1     -11.349  15.840  70.483  1.00  0.00    -0.380 C  
HETATM    5  C   UNL     1     -12.782  13.965  70.834  1.00  0.00    -0.340 C  
HETATM    6  N   UNL     1     -12.351  15.020  70.038  1.00  0.00    -0.323 N  
HETATM    7  C   UNL     1     -10.344  15.316  69.443  1.00  0.00    -0.255 C  
HETATM    8  C   UNL     1     -13.535  14.233  72.105  1.00  0.00    -0.433 C  
HETATM    9  O   UNL     1     -13.718  15.545  72.373  1.00  0.00    -0.477 OA 
HETATM   10  O   UNL     1     -14.021  13.374  72.823  1.00  0.00    -0.724 OA 
HETATM   11  O   UNL     1     -11.361  16.585  71.432  1.00  0.00    -0.278 OA 
ENDROOT
BRANCH   3  12
HETATM   12  S   UNL     1     -12.509  11.189  70.998  1.00  0.00    -0.382 SA 
BRANCH  12  13
HETATM   13  C   UNL     1     -11.206  10.225  70.173  1.00  0.00    -0.318 C  
BRANCH  13  14
HETATM   14  C   UNL     1     -10.396   9.298  71.079  1.00  0.00    -0.318 C  
BRANCH  14  15
HETATM   15  N   UNL     1     -11.313   8.400  71.806  1.00  0.00    -0.280 NA 
HETATM   16  H   UNL     1     -11.618   8.574  72.764  1.00  0.00     0.000 HD 
BRANCH  15  17
HETATM   17  C   UNL     1     -11.692   7.381  71.126  1.00  0.00    -0.294 C  
HETATM   18  H1  UNL     1     -13.266   6.396  70.163  1.00  0.00     0.000 HD 
HETATM   19  N   UNL     1     -12.964   7.206  70.704  1.00  0.00    -0.549 NA 
HETATM   20  H2  UNL     1     -13.655   7.919  70.938  1.00  0.00     0.000 HD 
ENDBRANCH  15  17
ENDBRANCH  14  15
ENDBRANCH  13  14
ENDBRANCH  12  13
ENDBRANCH   3  12
BRANCH   7  21
HETATM   21  C   UNL     1      -9.778  16.350  68.487  1.00  0.00    -0.228 C  
HETATM   22  O   UNL     1     -10.242  17.629  68.913  1.00  0.00    -0.360 OA 
HETATM   23  C   UNL     1     -10.244  16.091  67.061  1.00  0.00    -0.282 C  
HETATM   24  H   UNL     1      -9.888  18.276  68.315  1.00  0.00     0.000 HD 
ENDBRANCH   7  21
TORSDOF 6
ENDMDL
MODEL       44
REMARK 921   NORMALIZED FREE ENERGY PREDICTED BY IDOCK:   -4.88 KCAL/MOL
REMARK 922        TOTAL FREE ENERGY PREDICTED BY IDOCK:   -7.80 KCAL/MOL
REMARK 923 INTER-LIGAND FREE ENERGY PREDICTED BY IDOCK:   -7.41 KCAL/MOL
REMARK 924 INTRA-LIGAND FREE ENERGY PREDICTED BY IDOCK:   -0.39 KCAL/MOL
REMARK 927      BINDING AFFINITY PREDICTED BY RF-SCORE:    0.00 PKD
ROOT
HETATM    1  C   UNL     1     -12.035  15.541  68.868  1.00  0.00    -0.284 C  
HETATM    2  C   UNL     1     -10.972  16.385  68.175  1.00  0.00    -0.339 C  
HETATM    3  C   UNL     1     -10.610  15.553  66.971  1.00  0.00    -0.311 C  
HETATM    4  C   UNL     1     -11.983  13.454  69.025  1.00  0.00    -0.315 C  
HETATM    5  C   UNL     1     -11.326  14.413  66.942  1.00  0.00    -0.348 C  
HETATM    6  N   UNL     1     -12.219  14.335  68.005  1.00  0.00    -0.232 N  
HETATM    7  C   UNL     1     -11.673  14.573  70.034  1.00  0.00    -0.359 C  
HETATM    8  C   UNL     1     -11.211  13.279  65.965  1.00  0.00    -0.297 C  
HETATM    9  O   UNL     1     -12.019  12.231  66.237  1.00  0.00    -0.588 OA 
HETATM   10  O   UNL     1     -10.518  13.291  64.960  1.00  0.00    -0.320 OA 
HETATM   11  O   UNL     1     -11.961  12.248  68.979  1.00  0.00    -0.300 OA 
ENDROOT
BRANCH   3  12
HETATM   12  S   UNL     1      -9.280  16.075  66.014  1.00  0.00    -0.297 SA 
BRANCH  12  13
HETATM   13  C   UNL     1      -8.497  17.416  66.959  1.00  0.00    -0.225 C  
BRANCH  13  14
HETATM   14  C   UNL     1      -8.609  18.811  66.344  1.00  0.00    -0.284 C  
BRANCH  14  15
HETATM   15  N   UNL     1      -8.431  19.826  67.400  1.00  0.00    -0.303 NA 
HETATM   16  H   UNL     1      -9.169  20.083  68.055  1.00  0.00     0.000 HD 
BRANCH  15  17
HETATM   17  C   UNL     1      -7.263  20.356  67.419  1.00  0.00    -0.310 C  
HETATM   18  H1  UNL     1      -5.958  21.764  66.590  1.00  0.00     0.000 HD 
HETATM   19  N   UNL     1      -6.886  21.343  66.575  1.00  0.00    -0.748 NA 
HETATM   20  H2  UNL     1      -7.562  21.680  65.891  1.00  0.00     0.000 HD 
ENDBRANCH  15  17
ENDBRANCH  14  15
ENDBRANCH  13  14
ENDBRANCH  12  13
ENDBRANCH   3  12
BRANCH   7  21
HETATM   21  C   UNL     1     -12.567  14.629  71.259  1.00  0.00    -0.333 C  
HETATM   22  O   UNL     1     -13.844  15.099  70.837  1.00  0.00    -0.679 OA 
HETATM   23  C   UNL     1     -11.999  15.574  72.308  1.00  0.00    -0.542 C  
HETATM   24  H   UNL     1     -14.404  15.134  71.603  1.00  0.00     0.000 HD 
ENDBRANCH   7  21
TORSDOF 6
ENDMDL
MODEL       45
REMARK 921   NORMALIZED FREE ENERGY PREDICTED BY IDOCK:   -4.86 KCAL/MOL
REMARK 922        TOTAL FREE ENERGY PREDICTED BY IDOCK:   -7.77 KCAL/MOL
REMARK 923 INTER-LIGAND FREE ENERGY PREDICTED BY IDOCK:   -6.94 KCAL/MOL
REMARK 924 INTRA-LIGAND FREE ENERGY PREDICTED BY IDOCK:   -0.83 KCAL/MOL
REMARK 927      BINDING AFFINITY PREDICTED BY RF-SCORE:    0.00 PKD
ROOT
HETATM    1  C   UNL     1     -10.720  12.322  68.334  1.00  0.00    -0.234 C  
HETATM    2  C   UNL     1     -10.551  12.532  66.834  1.00  0.00    -0.255 C  
HETATM    3  C   UNL     1     -10.577  14.034  66.698  1.00  0.00    -0.274 C  
HETATM    4  C   UNL     1     -11.983  13.454  69.561  1.00  0.00    -0.319 C  
HETATM    5  C   UNL     1     -10.733  14.622  67.899  1.00  0.00    -0.250 C  
HETATM    6  N   UNL     1     -10.792  13.690  68.929  1.00  0.00    -0.248 N  
HETATM    7  C   UNL     1     -12.118  12.044  68.964  1.00  0.00    -0.223 C  
HETATM    8  C   UNL     1     -10.892  16.086  68.192  1.00  0.00    -0.322 C  
HETATM    9  O   UNL     1     -11.104  16.369  69.497  1.00  0.00    -0.316 OA 
HETATM   10  O   UNL     1     -10.774  16.979  67.369  1.00  0.00    -0.318 OA 
HETATM   11  O   UNL     1     -12.632  14.215  70.237  1.00  0.00    -0.346 OA 
ENDROOT
BRANCH   3  12
HETATM   12  S   UNL     1     -10.609  14.688  65.108  1.00  0.00    -0.441 SA 
BRANCH  12  13
HETATM   13  C   UNL     1     -12.161  14.097  64.369  1.00  0.00    -0.463 C  
BRANCH  13  14
HETATM   14  C   UNL     1     -12.023  12.945  63.374  1.00  0.00    -0.537 C  
BRANCH  14  15
HETATM   15  N   UNL     1     -10.593  12.678  63.130  1.00  0.00    -0.543 NA 
HETATM   16  H   UNL     1      -9.931  13.404  62.855  1.00  0.00     0.000 HD 
BRANCH  15  17
HETATM   17  C   UNL     1     -10.256  11.451  63.296  1.00  0.00    -0.385 C  
HETATM   18  H1  UNL     1      -8.705  10.053  63.404  1.00  0.00     0.000 HD 
HETATM   19  N   UNL     1      -8.973  11.028  63.273  1.00  0.00    -0.368 NA 
HETATM   20  H2  UNL     1      -8.238  11.717  63.117  1.00  0.00     0.000 HD 
ENDBRANCH  15  17
ENDBRANCH  14  15
ENDBRANCH  13  14
ENDBRANCH  12  13
ENDBRANCH   3  12
BRANCH   7  21
HETATM   21  C   UNL     1     -12.192  10.904  69.963  1.00  0.00    -0.347 C  
HETATM   22  O   UNL     1     -12.649  11.445  71.200  1.00  0.00    -0.394 OA 
HETATM   23  C   UNL     1     -10.827  10.261  70.163  1.00  0.00    -0.362 C  
HETATM   24  H   UNL     1     -12.695  10.732  71.825  1.00  0.00     0.000 HD 
ENDBRANCH   7  21
TORSDOF 6
ENDMDL
MODEL       46
REMARK 921   NORMALIZED FREE ENERGY PREDICTED BY IDOCK:   -4.84 KCAL/MOL
REMARK 922        TOTAL FREE ENERGY PREDICTED BY IDOCK:   -7.75 KCAL/MOL
REMARK 923 INTER-LIGAND FREE ENERGY PREDICTED BY IDOCK:   -7.17 KCAL/MOL
REMARK 924 INTRA-LIGAND FREE ENERGY PREDICTED BY IDOCK:   -0.58 KCAL/MOL
REMARK 927      BINDING AFFINITY PREDICTED BY RF-SCORE:    0.00 PKD
ROOT
HETATM    1  C   UNL     1     -12.350   9.527  71.229  1.00  0.00    -0.345 C  
HETATM    2  C   UNL     1     -12.848  10.934  71.536  1.00  0.00    -0.560 C  
HETATM    3  C   UNL     1     -12.198  11.766  70.459  1.00  0.00    -0.347 C  
HETATM    4  C   UNL     1     -10.412   9.064  70.585  1.00  0.00    -0.230 C  
HETATM    5  C   UNL     1     -11.445  10.999  69.648  1.00  0.00    -0.303 C  
HETATM    6  N   UNL     1     -11.501   9.657  70.006  1.00  0.00    -0.192 N  
HETATM    7  C   UNL     1     -11.105   8.929  71.951  1.00  0.00    -0.442 C  
HETATM    8  C   UNL     1     -10.571  11.445  68.512  1.00  0.00    -0.198 C  
HETATM    9  O   UNL     1      -9.875  10.446  67.925  1.00  0.00    -0.151 OA 
HETATM   10  O   UNL     1     -10.520  12.583  68.076  1.00  0.00    -0.207 OA 
HETATM   11  O   UNL     1      -9.323   8.871  70.102  1.00  0.00    -0.162 OA 
ENDROOT
BRANCH   3  12
HETATM   12  S   UNL     1     -12.358  13.475  70.569  1.00  0.00    -0.308 SA 
BRANCH  12  13
HETATM   13  C   UNL     1     -13.483  13.770  71.967  1.00  0.00    -0.470 C  
BRANCH  13  14
HETATM   14  C   UNL     1     -14.068  15.178  72.058  1.00  0.00    -0.559 C  
BRANCH  14  15
HETATM   15  N   UNL     1     -12.977  16.168  71.978  1.00  0.00    -0.405 NA 
HETATM   16  H   UNL     1     -12.765  16.695  71.131  1.00  0.00     0.000 HD 
BRANCH  15  17
HETATM   17  C   UNL     1     -12.318  16.305  73.070  1.00  0.00    -0.485 C  
HETATM   18  H1  UNL     1     -12.375  16.381  75.159  1.00  0.00     0.000 HD 
HETATM   19  N   UNL     1     -12.898  16.271  74.291  1.00  0.00    -0.934 NA 
HETATM   20  H2  UNL     1     -13.906  16.130  74.346  1.00  0.00     0.000 HD 
ENDBRANCH  15  17
ENDBRANCH  14  15
ENDBRANCH  13  14
ENDBRANCH  12  13
ENDBRANCH   3  12
BRANCH   7  21
HETATM   21  C   UNL     1     -11.251   7.516  72.486  1.00  0.00    -0.331 C  
HETATM   22  O   UNL     1     -10.070   6.801  72.135  1.00  0.00    -0.181 OA 
HETATM   23  C   UNL     1     -12.464   6.824  71.881  1.00  0.00    -0.355 C  
HETATM   24  H   UNL     1     -10.161   5.917  72.470  1.00  0.00     0.000 HD 
ENDBRANCH   7  21
TORSDOF 6
ENDMDL
MODEL       47
REMARK 921   NORMALIZED FREE ENERGY PREDICTED BY IDOCK:   -4.84 KCAL/MOL
REMARK 922        TOTAL FREE ENERGY PREDICTED BY IDOCK:   -7.75 KCAL/MOL
REMARK 923 INTER-LIGAND FREE ENERGY PREDICTED BY IDOCK:   -6.91 KCAL/MOL
REMARK 924 INTRA-LIGAND FREE ENERGY PREDICTED BY IDOCK:   -0.84 KCAL/MOL
REMARK 927      BINDING AFFINITY PREDICTED BY RF-SCORE:    0.00 PKD
ROOT
HETATM    1  C   UNL     1     -10.618  14.419  64.922  1.00  0.00    -0.434 C  
HETATM    2  C   UNL     1     -10.554  15.921  65.173  1.00  0.00    -0.421 C  
HETATM    3  C   UNL     1     -10.467  16.009  66.677  1.00  0.00    -0.304 C  
HETATM    4  C   UNL     1     -11.680  13.057  66.106  1.00  0.00    -0.394 C  
HETATM    5  C   UNL     1     -10.475  14.782  67.231  1.00  0.00    -0.264 C  
HETATM    6  N   UNL     1     -10.529  13.780  66.269  1.00  0.00    -0.286 N  
HETATM    7  C   UNL     1     -11.979  13.683  64.734  1.00  0.00    -0.426 C  
HETATM    8  C   UNL     1     -10.489  14.434  68.691  1.00  0.00    -0.247 C  
HETATM    9  O   UNL     1     -10.571  13.108  68.942  1.00  0.00    -0.216 OA 
HETATM   10  O   UNL     1     -10.364  15.236  69.601  1.00  0.00    -0.245 OA 
HETATM   11  O   UNL     1     -12.207  12.307  66.891  1.00  0.00    -0.530 OA 
ENDROOT
BRANCH   3  12
HETATM   12  S   UNL     1     -10.572  17.571  67.388  1.00  0.00    -0.262 SA 
BRANCH  12  13
HETATM   13  C   UNL     1      -9.009  18.401  66.975  1.00  0.00    -0.275 C  
BRANCH  13  14
HETATM   14  C   UNL     1      -7.973  18.458  68.098  1.00  0.00    -0.288 C  
BRANCH  14  15
HETATM   15  N   UNL     1      -8.102  17.256  68.943  1.00  0.00    -0.232 NA 
HETATM   16  H   UNL     1      -8.913  17.076  69.534  1.00  0.00     0.000 HD 
BRANCH  15  17
HETATM   17  C   UNL     1      -7.100  16.458  68.868  1.00  0.00    -0.195 C  
HETATM   18  H1  UNL     1      -5.568  15.460  69.883  1.00  0.00     0.000 HD 
HETATM   19  N   UNL     1      -6.364  16.094  69.942  1.00  0.00    -0.177 NA 
HETATM   20  H2  UNL     1      -6.618  16.471  70.854  1.00  0.00     0.000 HD 
ENDBRANCH  15  17
ENDBRANCH  14  15
ENDBRANCH  13  14
ENDBRANCH  12  13
ENDBRANCH   3  12
BRANCH   7  21
HETATM   21  C   UNL     1     -12.066  12.716  63.567  1.00  0.00    -0.561 C  
HETATM   22  O   UNL     1     -13.213  11.895  63.775  1.00  0.00    -0.655 OA 
HETATM   23  C   UNL     1     -10.823  11.841  63.487  1.00  0.00    -0.496 C  
HETATM   24  H   UNL     1     -13.267  11.290  63.045  1.00  0.00     0.000 HD 
ENDBRANCH   7  21
TORSDOF 6
ENDMDL
MODEL       48
REMARK 921   NORMALIZED FREE ENERGY PREDICTED BY IDOCK:   -4.82 KCAL/MOL
REMARK 922        TOTAL FREE ENERGY PREDICTED BY IDOCK:   -7.72 KCAL/MOL
REMARK 923 INTER-LIGAND FREE ENERGY PREDICTED BY IDOCK:   -7.09 KCAL/MOL
REMARK 924 INTRA-LIGAND FREE ENERGY PREDICTED BY IDOCK:   -0.63 KCAL/MOL
REMARK 927      BINDING AFFINITY PREDICTED BY RF-SCORE:    0.00 PKD
ROOT
HETATM    1  C   UNL     1     -10.683  11.272  66.585  1.00  0.00    -0.272 C  
HETATM    2  C   UNL     1     -10.606  12.548  67.413  1.00  0.00    -0.242 C  
HETATM    3  C   UNL     1     -11.299  13.563  66.539  1.00  0.00    -0.319 C  
HETATM    4  C   UNL     1     -10.449  11.185  64.506  1.00  0.00    -0.350 C  
HETATM    5  C   UNL     1     -11.720  12.999  65.391  1.00  0.00    -0.364 C  
HETATM    6  N   UNL     1     -11.430  11.640  65.345  1.00  0.00    -0.175 N  
HETATM    7  C   UNL     1      -9.506  10.825  65.667  1.00  0.00    -0.250 C  
HETATM    8  C   UNL     1     -12.375  13.675  64.221  1.00  0.00    -0.335 C  
HETATM    9  O   UNL     1     -12.620  12.855  63.175  1.00  0.00    -0.636 OA 
HETATM   10  O   UNL     1     -12.740  14.839  64.202  1.00  0.00    -0.758 OA 
HETATM   11  O   UNL     1     -10.426  11.212  63.300  1.00  0.00    -0.353 OA 
ENDROOT
BRANCH   3  12
HETATM   12  S   UNL     1     -11.253  15.207  67.039  1.00  0.00    -0.267 SA 
BRANCH  12  13
HETATM   13  C   UNL     1     -10.740  15.172  68.782  1.00  0.00    -0.239 C  
BRANCH  13  14
HETATM   14  C   UNL     1      -9.960  16.394  69.267  1.00  0.00    -0.259 C  
BRANCH  14  15
HETATM   15  N   UNL     1     -10.729  17.616  68.965  1.00  0.00    -0.326 NA 
HETATM   16  H   UNL     1     -11.748  17.633  68.910  1.00  0.00     0.000 HD 
BRANCH  15  17
HETATM   17  C   UNL     1     -10.002  18.656  68.779  1.00  0.00    -0.383 C  
HETATM   18  H1  UNL     1      -9.726  20.697  69.143  1.00  0.00     0.000 HD 
HETATM   19  N   UNL     1     -10.303  19.870  69.292  1.00  0.00    -0.588 NA 
HETATM   20  H2  UNL     1     -11.149  19.962  69.854  1.00  0.00     0.000 HD 
ENDBRANCH  15  17
ENDBRANCH  14  15
ENDBRANCH  13  14
ENDBRANCH  12  13
ENDBRANCH   3  12
BRANCH   7  21
HETATM   21  C   UNL     1      -9.095   9.367  65.760  1.00  0.00    -0.200 C  
HETATM   22  O   UNL     1      -9.113   8.830  64.440  1.00  0.00    -0.416 OA 
HETATM   23  C   UNL     1     -10.057   8.582  66.641  1.00  0.00    -0.364 C  
HETATM   24  H   UNL     1      -8.855   7.918  64.499  1.00  0.00     0.000 HD 
ENDBRANCH   7  21
TORSDOF 6
ENDMDL
MODEL       49
REMARK 921   NORMALIZED FREE ENERGY PREDICTED BY IDOCK:   -4.78 KCAL/MOL
REMARK 922        TOTAL FREE ENERGY PREDICTED BY IDOCK:   -7.68 KCAL/MOL
REMARK 923 INTER-LIGAND FREE ENERGY PREDICTED BY IDOCK:   -6.78 KCAL/MOL
REMARK 924 INTRA-LIGAND FREE ENERGY PREDICTED BY IDOCK:   -0.90 KCAL/MOL
REMARK 927      BINDING AFFINITY PREDICTED BY RF-SCORE:    0.00 PKD
ROOT
HETATM    1  C   UNL     1     -10.718  12.258  65.454  1.00  0.00    -0.284 C  
HETATM    2  C   UNL     1      -9.591  11.339  65.909  1.00  0.00    -0.249 C  
HETATM    3  C   UNL     1      -8.834  12.192  66.895  1.00  0.00    -0.202 C  
HETATM    4  C   UNL     1     -10.512  14.313  65.107  1.00  0.00    -0.411 C  
HETATM    5  C   UNL     1      -9.403  13.407  67.015  1.00  0.00    -0.243 C  
HETATM    6  N   UNL     1     -10.542  13.525  66.226  1.00  0.00    -0.285 N  
HETATM    7  C   UNL     1     -10.599  13.109  64.154  1.00  0.00    -0.384 C  
HETATM    8  C   UNL     1      -8.916  14.574  67.823  1.00  0.00    -0.190 C  
HETATM    9  O   UNL     1      -9.663  15.692  67.686  1.00  0.00    -0.223 OA 
HETATM   10  O   UNL     1      -7.978  14.540  68.603  1.00  0.00    -0.135 OA 
HETATM   11  O   UNL     1     -10.363  15.509  65.040  1.00  0.00    -0.378 OA 
ENDROOT
BRANCH   3  12
HETATM   12  S   UNL     1      -7.349  11.576  67.504  1.00  0.00    -0.120 SA 
BRANCH  12  13
HETATM   13  C   UNL     1      -7.762  10.790  69.091  1.00  0.00    -0.138 C  
BRANCH  13  14
HETATM   14  C   UNL     1      -9.049   9.966  69.105  1.00  0.00    -0.173 C  
BRANCH  14  15
HETATM   15  N   UNL     1     -10.097  10.708  69.831  1.00  0.00    -0.427 NA 
HETATM   16  H   UNL     1      -9.894  11.489  70.455  1.00  0.00     0.000 HD 
BRANCH  15  17
HETATM   17  C   UNL     1     -11.286  10.283  69.606  1.00  0.00    -0.257 C  
HETATM   18  H1  UNL     1     -13.123  10.616  68.665  1.00  0.00     0.000 HD 
HETATM   19  N   UNL     1     -12.178  10.954  68.843  1.00  0.00    -0.764 NA 
HETATM   20  H2  UNL     1     -11.892  11.839  68.428  1.00  0.00     0.000 HD 
ENDBRANCH  15  17
ENDBRANCH  14  15
ENDBRANCH  13  14
ENDBRANCH  12  13
ENDBRANCH   3  12
BRANCH   7  21
HETATM   21  C   UNL     1     -11.797  13.086  63.222  1.00  0.00    -0.364 C  
HETATM   22  O   UNL     1     -12.397  14.378  63.261  1.00  0.00    -1.079 OA 
HETATM   23  C   UNL     1     -12.812  12.040  63.660  1.00  0.00    -0.472 C  
HETATM   24  H   UNL     1     -13.146  14.363  62.677  1.00  0.00     0.000 HD 
ENDBRANCH   7  21
TORSDOF 6
ENDMDL
MODEL       50
REMARK 921   NORMALIZED FREE ENERGY PREDICTED BY IDOCK:   -4.77 KCAL/MOL
REMARK 922        TOTAL FREE ENERGY PREDICTED BY IDOCK:   -7.66 KCAL/MOL
REMARK 923 INTER-LIGAND FREE ENERGY PREDICTED BY IDOCK:   -6.59 KCAL/MOL
REMARK 924 INTRA-LIGAND FREE ENERGY PREDICTED BY IDOCK:   -1.07 KCAL/MOL
REMARK 927      BINDING AFFINITY PREDICTED BY RF-SCORE:    0.00 PKD
ROOT
HETATM    1  C   UNL     1     -10.908  15.980  65.844  1.00  0.00    -0.207 C  
HETATM    2  C   UNL     1     -11.341  15.092  64.684  1.00  0.00    -0.357 C  
HETATM    3  C   UNL     1     -11.666  13.784  65.362  1.00  0.00    -0.335 C  
HETATM    4  C   UNL     1      -9.757  15.339  67.471  1.00  0.00    -0.204 C  
HETATM    5  C   UNL     1     -11.466  13.869  66.690  1.00  0.00    -0.355 C  
HETATM    6  N   UNL     1     -11.051  15.141  67.072  1.00  0.00    -0.334 N  
HETATM    7  C   UNL     1      -9.406  16.157  66.218  1.00  0.00    -0.351 C  
HETATM    8  C   UNL     1     -11.590  12.775  67.711  1.00  0.00    -0.353 C  
HETATM    9  O   UNL     1     -11.254  13.148  68.966  1.00  0.00    -0.248 OA 
HETATM   10  O   UNL     1     -12.023  11.657  67.486  1.00  0.00    -0.622 OA 
HETATM   11  O   UNL     1      -9.198  14.886  68.440  1.00  0.00    -0.177 OA 
ENDROOT
BRANCH   3  12
HETATM   12  S   UNL     1     -12.015  12.433  64.357  1.00  0.00    -0.416 SA 
BRANCH  12  13
HETATM   13  C   UNL     1     -10.462  12.056  63.491  1.00  0.00    -0.464 C  
BRANCH  13  14
HETATM   14  C   UNL     1      -9.540  11.059  64.191  1.00  0.00    -0.266 C  
BRANCH  14  15
HETATM   15  N   UNL     1     -10.267  10.418  65.303  1.00  0.00    -0.291 NA 
HETATM   16  H   UNL     1     -11.154  10.769  65.663  1.00  0.00     0.000 HD 
BRANCH  15  17
HETATM   17  C   UNL     1      -9.682   9.378  65.776  1.00  0.00    -0.284 C  
HETATM   18  H1  UNL     1      -8.452   7.730  65.399  1.00  0.00     0.000 HD 
HETATM   19  N   UNL     1      -8.916   8.556  65.024  1.00  0.00    -0.418 NA 
HETATM   20  H2  UNL     1      -8.797   8.774  64.035  1.00  0.00     0.000 HD 
ENDBRANCH  15  17
ENDBRANCH  14  15
ENDBRANCH  13  14
ENDBRANCH  12  13
ENDBRANCH   3  12
BRANCH   7  21
HETATM   21  C   UNL     1      -8.936  17.579  66.463  1.00  0.00    -0.261 C  
HETATM   22  O   UNL     1      -8.369  17.625  67.769  1.00  0.00    -0.219 OA 
HETATM   23  C   UNL     1     -10.095  18.562  66.377  1.00  0.00    -0.430 C  
HETATM   24  H   UNL     1      -8.074  18.515  67.923  1.00  0.00     0.000 HD 
ENDBRANCH   7  21
TORSDOF 6
ENDMDL
MODEL       51
REMARK 921   NORMALIZED FREE ENERGY PREDICTED BY IDOCK:   -4.77 KCAL/MOL
REMARK 922        TOTAL FREE ENERGY PREDICTED BY IDOCK:   -7.66 KCAL/MOL
REMARK 923 INTER-LIGAND FREE ENERGY PREDICTED BY IDOCK:   -7.04 KCAL/MOL
REMARK 924 INTRA-LIGAND FREE ENERGY PREDICTED BY IDOCK:   -0.61 KCAL/MOL
REMARK 927      BINDING AFFINITY PREDICTED BY RF-SCORE:    0.00 PKD
ROOT
HETATM    1  C   UNL     1     -10.580  12.447  66.280  1.00  0.00    -0.249 C  
HETATM    2  C   UNL     1     -10.190  11.174  67.019  1.00  0.00    -0.251 C  
HETATM    3  C   UNL     1      -9.630  10.302  65.922  1.00  0.00    -0.209 C  
HETATM    4  C   UNL     1     -11.439  12.501  64.371  1.00  0.00    -0.349 C  
HETATM    5  C   UNL     1      -9.675  10.937  64.736  1.00  0.00    -0.271 C  
HETATM    6  N   UNL     1     -10.189  12.223  64.855  1.00  0.00    -0.281 N  
HETATM    7  C   UNL     1     -12.036  12.683  65.776  1.00  0.00    -0.503 C  
HETATM    8  C   UNL     1      -9.297  10.393  63.388  1.00  0.00    -0.300 C  
HETATM    9  O   UNL     1      -9.519  11.248  62.365  1.00  0.00    -0.232 OA 
HETATM   10  O   UNL     1      -8.765   9.312  63.196  1.00  0.00    -0.215 OA 
HETATM   11  O   UNL     1     -11.817  12.475  63.225  1.00  0.00    -0.482 OA 
ENDROOT
BRANCH   3  12
HETATM   12  S   UNL     1      -9.248   8.674  66.318  1.00  0.00    -0.217 SA 
BRANCH  12  13
HETATM   13  C   UNL     1     -10.161   8.317  67.849  1.00  0.00    -0.220 C  
BRANCH  13  14
HETATM   14  C   UNL     1     -10.704   6.894  67.979  1.00  0.00    -0.218 C  
BRANCH  14  15
HETATM   15  N   UNL     1     -11.306   6.482  66.696  1.00  0.00    -0.725 NA 
HETATM   16  H   UNL     1     -12.066   6.993  66.249  1.00  0.00     0.000 HD 
BRANCH  15  17
HETATM   17  C   UNL     1     -10.786   5.421  66.195  1.00  0.00    -0.027 C  
HETATM   18  H1  UNL     1     -10.972   3.851  64.826  1.00  0.00     0.000 HD 
HETATM   19  N   UNL     1     -11.384   4.694  65.225  1.00  0.00    -1.078 NA 
HETATM   20  H2  UNL     1     -12.291   5.004  64.875  1.00  0.00     0.000 HD 
ENDBRANCH  15  17
ENDBRANCH  14  15
ENDBRANCH  13  14
ENDBRANCH  12  13
ENDBRANCH   3  12
BRANCH   7  21
HETATM   21  C   UNL     1     -12.639  14.044  66.071  1.00  0.00    -0.414 C  
HETATM   22  O   UNL     1     -12.834  14.706  64.824  1.00  0.00    -0.542 OA 
HETATM   23  C   UNL     1     -11.713  14.875  66.947  1.00  0.00    -0.260 C  
HETATM   24  H   UNL     1     -13.212  15.557  65.008  1.00  0.00     0.000 HD 
ENDBRANCH   7  21
TORSDOF 6
ENDMDL
MODEL       52
REMARK 921   NORMALIZED FREE ENERGY PREDICTED BY IDOCK:   -4.76 KCAL/MOL
REMARK 922        TOTAL FREE ENERGY PREDICTED BY IDOCK:   -7.64 KCAL/MOL
REMARK 923 INTER-LIGAND FREE ENERGY PREDICTED BY IDOCK:   -6.54 KCAL/MOL
REMARK 924 INTRA-LIGAND FREE ENERGY PREDICTED BY IDOCK:   -1.10 KCAL/MOL
REMARK 927      BINDING AFFINITY PREDICTED BY RF-SCORE:    0.00 PKD
ROOT
HETATM    1  C   UNL     1     -12.172  11.614  69.967  1.00  0.00    -0.263 C  
HETATM    2  C   UNL     1     -12.089  13.062  70.435  1.00  0.00    -0.391 C  
HETATM    3  C   UNL     1     -12.000  13.832  69.141  1.00  0.00    -0.361 C  
HETATM    4  C   UNL     1     -11.095  10.819  68.357  1.00  0.00    -0.266 C  
HETATM    5  C   UNL     1     -12.026  12.999  68.084  1.00  0.00    -0.280 C  
HETATM    6  N   UNL     1     -12.160  11.671  68.474  1.00  0.00    -0.209 N  
HETATM    7  C   UNL     1     -10.903  10.714  69.879  1.00  0.00    -0.301 C  
HETATM    8  C   UNL     1     -11.876  13.351  66.632  1.00  0.00    -0.395 C  
HETATM    9  O   UNL     1     -11.871  12.285  65.802  1.00  0.00    -0.434 OA 
HETATM   10  O   UNL     1     -11.835  14.488  66.191  1.00  0.00    -0.374 OA 
HETATM   11  O   UNL     1     -10.544  10.449  67.349  1.00  0.00    -0.231 OA 
ENDROOT
BRANCH   3  12
HETATM   12  S   UNL     1     -11.693  15.521  69.241  1.00  0.00    -0.368 SA 
BRANCH  12  13
HETATM   13  C   UNL     1      -9.892  15.678  69.427  1.00  0.00    -0.284 C  
BRANCH  13  14
HETATM   14  C   UNL     1      -9.059  15.184  68.244  1.00  0.00    -0.183 C  
BRANCH  14  15
HETATM   15  N   UNL     1      -8.608  16.341  67.447  1.00  0.00    -0.175 NA 
HETATM   16  H   UNL     1      -8.176  17.167  67.860  1.00  0.00     0.000 HD 
BRANCH  15  17
HETATM   17  C   UNL     1      -8.810  16.213  66.186  1.00  0.00    -0.332 C  
HETATM   18  H1  UNL     1     -10.129  16.464  64.583  1.00  0.00     0.000 HD 
HETATM   19  N   UNL     1      -9.968  16.565  65.585  1.00  0.00    -0.549 NA 
HETATM   20  H2  UNL     1     -10.716  16.950  66.160  1.00  0.00     0.000 HD 
ENDBRANCH  15  17
ENDBRANCH  14  15
ENDBRANCH  13  14
ENDBRANCH  12  13
ENDBRANCH   3  12
BRANCH   7  21
HETATM   21  C   UNL     1     -11.024   9.320  70.468  1.00  0.00    -0.265 C  
HETATM   22  O   UNL     1     -11.283   8.421  69.393  1.00  0.00    -0.444 OA 
HETATM   23  C   UNL     1     -12.162   9.248  71.476  1.00  0.00    -0.439 C  
HETATM   24  H   UNL     1     -11.358   7.549  69.762  1.00  0.00     0.000 HD 
ENDBRANCH   7  21
TORSDOF 6
ENDMDL
MODEL       53
REMARK 921   NORMALIZED FREE ENERGY PREDICTED BY IDOCK:   -4.75 KCAL/MOL
REMARK 922        TOTAL FREE ENERGY PREDICTED BY IDOCK:   -7.63 KCAL/MOL
REMARK 923 INTER-LIGAND FREE ENERGY PREDICTED BY IDOCK:   -6.85 KCAL/MOL
REMARK 924 INTRA-LIGAND FREE ENERGY PREDICTED BY IDOCK:   -0.79 KCAL/MOL
REMARK 927      BINDING AFFINITY PREDICTED BY RF-SCORE:    0.00 PKD
ROOT
HETATM    1  C   UNL     1      -9.907  10.860  66.089  1.00  0.00    -0.222 C  
HETATM    2  C   UNL     1      -9.706  11.970  67.114  1.00  0.00    -0.203 C  
HETATM    3  C   UNL     1     -10.777  12.967  66.750  1.00  0.00    -0.261 C  
HETATM    4  C   UNL     1     -10.395  11.171  64.077  1.00  0.00    -0.376 C  
HETATM    5  C   UNL     1     -11.495  12.535  65.696  1.00  0.00    -0.359 C  
HETATM    6  N   UNL     1     -11.075  11.283  65.260  1.00  0.00    -0.142 N  
HETATM    7  C   UNL     1      -9.074  10.807  64.774  1.00  0.00    -0.222 C  
HETATM    8  C   UNL     1     -12.592  13.261  64.972  1.00  0.00    -0.423 C  
HETATM    9  O   UNL     1     -13.079  12.599  63.900  1.00  0.00    -0.656 OA 
HETATM   10  O   UNL     1     -13.080  14.321  65.327  1.00  0.00    -0.707 OA 
HETATM   11  O   UNL     1     -10.794  11.406  62.962  1.00  0.00    -0.202 OA 
ENDROOT
BRANCH   3  12
HETATM   12  S   UNL     1     -10.764  14.481  67.563  1.00  0.00    -0.281 SA 
BRANCH  12  13
HETATM   13  C   UNL     1     -12.183  14.437  68.698  1.00  0.00    -0.150 C  
BRANCH  13  14
HETATM   14  C   UNL     1     -11.886  13.926  70.108  1.00  0.00    -0.298 C  
BRANCH  14  15
HETATM   15  N   UNL     1     -11.301  12.574  70.025  1.00  0.00    -0.505 NA 
HETATM   16  H   UNL     1     -10.320  12.405  69.806  1.00  0.00     0.000 HD 
BRANCH  15  17
HETATM   17  C   UNL     1     -12.140  11.630  70.254  1.00  0.00    -0.358 C  
HETATM   18  H1  UNL     1     -13.182   9.984  69.495  1.00  0.00     0.000 HD 
HETATM   19  N   UNL     1     -12.516  10.734  69.314  1.00  0.00    -0.684 NA 
HETATM   20  H2  UNL     1     -12.114  10.812  68.380  1.00  0.00     0.000 HD 
ENDBRANCH  15  17
ENDBRANCH  14  15
ENDBRANCH  13  14
ENDBRANCH  12  13
ENDBRANCH   3  12
BRANCH   7  21
HETATM   21  C   UNL     1      -8.479   9.459  64.407  1.00  0.00    -0.184 C  
HETATM   22  O   UNL     1      -9.066   9.053  63.173  1.00  0.00    -0.418 OA 
HETATM   23  C   UNL     1      -8.777   8.419  65.478  1.00  0.00    -0.196 C  
HETATM   24  H   UNL     1      -8.694   8.210  62.944  1.00  0.00     0.000 HD 
ENDBRANCH   7  21
TORSDOF 6
ENDMDL
MODEL       54
REMARK 921   NORMALIZED FREE ENERGY PREDICTED BY IDOCK:   -4.73 KCAL/MOL
REMARK 922        TOTAL FREE ENERGY PREDICTED BY IDOCK:   -7.61 KCAL/MOL
REMARK 923 INTER-LIGAND FREE ENERGY PREDICTED BY IDOCK:   -6.77 KCAL/MOL
REMARK 924 INTRA-LIGAND FREE ENERGY PREDICTED BY IDOCK:   -0.84 KCAL/MOL
REMARK 927      BINDING AFFINITY PREDICTED BY RF-SCORE:    0.00 PKD
ROOT
HETATM    1  C   UNL     1     -11.562  14.735  69.052  1.00  0.00    -0.297 C  
HETATM    2  C   UNL     1     -11.517  13.213  69.099  1.00  0.00    -0.358 C  
HETATM    3  C   UNL     1     -12.383  12.885  70.289  1.00  0.00    -0.223 C  
HETATM    4  C   UNL     1     -11.529  15.981  70.735  1.00  0.00    -0.414 C  
HETATM    5  C   UNL     1     -12.864  14.007  70.857  1.00  0.00    -0.318 C  
HETATM    6  N   UNL     1     -12.459  15.148  70.173  1.00  0.00    -0.336 N  
HETATM    7  C   UNL     1     -10.447  15.603  69.710  1.00  0.00    -0.312 C  
HETATM    8  C   UNL     1     -13.691  14.124  72.104  1.00  0.00    -0.493 C  
HETATM    9  O   UNL     1     -13.964  15.397  72.469  1.00  0.00    -0.519 OA 
HETATM   10  O   UNL     1     -14.159  13.183  72.723  1.00  0.00    -0.641 OA 
HETATM   11  O   UNL     1     -11.630  16.641  71.740  1.00  0.00    -0.348 OA 
ENDROOT
BRANCH   3  12
HETATM   12  S   UNL     1     -12.436  11.246  70.807  1.00  0.00    -0.352 SA 
BRANCH  12  13
HETATM   13  C   UNL     1     -10.881  10.503  70.229  1.00  0.00    -0.174 C  
BRANCH  13  14
HETATM   14  C   UNL     1     -11.028   9.345  69.242  1.00  0.00    -0.117 C  
BRANCH  14  15
HETATM   15  N   UNL     1     -11.198   9.883  67.879  1.00  0.00    -0.509 NA 
HETATM   16  H   UNL     1     -12.102  10.168  67.503  1.00  0.00     0.000 HD 
BRANCH  15  17
HETATM   17  C   UNL     1     -10.106   9.961  67.210  1.00  0.00    -0.211 C  
HETATM   18  H1  UNL     1      -8.771  11.181  66.160  1.00  0.00     0.000 HD 
HETATM   19  N   UNL     1      -9.639  11.119  66.692  1.00  0.00    -0.187 NA 
HETATM   20  H2  UNL     1     -10.179  11.970  66.841  1.00  0.00     0.000 HD 
ENDBRANCH  15  17
ENDBRANCH  14  15
ENDBRANCH  13  14
ENDBRANCH  12  13
ENDBRANCH   3  12
BRANCH   7  21
HETATM   21  C   UNL     1      -9.898  16.744  68.873  1.00  0.00    -0.264 C  
HETATM   22  O   UNL     1     -10.470  17.952  69.367  1.00  0.00    -0.408 OA 
HETATM   23  C   UNL     1     -10.263  16.571  67.405  1.00  0.00    -0.287 C  
HETATM   24  H   UNL     1     -10.126  18.666  68.842  1.00  0.00     0.000 HD 
ENDBRANCH   7  21
TORSDOF 6
ENDMDL
MODEL       55
REMARK 921   NORMALIZED FREE ENERGY PREDICTED BY IDOCK:   -4.73 KCAL/MOL
REMARK 922        TOTAL FREE ENERGY PREDICTED BY IDOCK:   -7.60 KCAL/MOL
REMARK 923 INTER-LIGAND FREE ENERGY PREDICTED BY IDOCK:   -7.13 KCAL/MOL
REMARK 924 INTRA-LIGAND FREE ENERGY PREDICTED BY IDOCK:   -0.48 KCAL/MOL
REMARK 927      BINDING AFFINITY PREDICTED BY RF-SCORE:    0.00 PKD
ROOT
HETATM    1  C   UNL     1     -11.051  14.333  68.682  1.00  0.00    -0.253 C  
HETATM    2  C   UNL     1     -11.540  14.039  67.270  1.00  0.00    -0.396 C  
HETATM    3  C   UNL     1     -10.824  15.076  66.440  1.00  0.00    -0.326 C  
HETATM    4  C   UNL     1     -10.740  16.252  69.461  1.00  0.00    -0.323 C  
HETATM    5  C   UNL     1     -10.044  15.853  67.214  1.00  0.00    -0.260 C  
HETATM    6  N   UNL     1     -10.088  15.467  68.549  1.00  0.00    -0.209 N  
HETATM    7  C   UNL     1     -11.871  15.229  69.658  1.00  0.00    -0.363 C  
HETATM    8  C   UNL     1      -9.235  17.048  66.797  1.00  0.00    -0.252 C  
HETATM    9  O   UNL     1      -8.607  17.674  67.817  1.00  0.00    -0.222 OA 
HETATM   10  O   UNL     1      -9.072  17.413  65.644  1.00  0.00    -0.459 OA 
HETATM   11  O   UNL     1     -10.464  17.372  69.813  1.00  0.00    -0.096 OA 
ENDROOT
BRANCH   3  12
HETATM   12  S   UNL     1     -11.261  15.209  64.783  1.00  0.00    -0.353 SA 
BRANCH  12  13
HETATM   13  C   UNL     1     -12.534  13.939  64.511  1.00  0.00    -0.297 C  
BRANCH  13  14
HETATM   14  C   UNL     1     -12.156  12.820  63.542  1.00  0.00    -0.559 C  
BRANCH  14  15
HETATM   15  N   UNL     1     -10.703  12.863  63.289  1.00  0.00    -0.483 NA 
HETATM   16  H   UNL     1     -10.209  13.715  63.025  1.00  0.00     0.000 HD 
BRANCH  15  17
HETATM   17  C   UNL     1     -10.117  11.730  63.430  1.00  0.00    -0.446 C  
HETATM   18  H1  UNL     1      -8.415  10.574  63.059  1.00  0.00     0.000 HD 
HETATM   19  N   UNL     1      -8.880  11.474  62.947  1.00  0.00    -0.596 NA 
HETATM   20  H2  UNL     1      -8.391  12.216  62.448  1.00  0.00     0.000 HD 
ENDBRANCH  15  17
ENDBRANCH  14  15
ENDBRANCH  13  14
ENDBRANCH  12  13
ENDBRANCH   3  12
BRANCH   7  21
HETATM   21  C   UNL     1     -12.050  14.700  71.069  1.00  0.00    -0.329 C  
HETATM   22  O   UNL     1     -12.323  13.305  70.973  1.00  0.00    -0.362 OA 
HETATM   23  C   UNL     1     -13.206  15.397  71.773  1.00  0.00    -0.544 C  
HETATM   24  H   UNL     1     -12.435  12.974  71.857  1.00  0.00     0.000 HD 
ENDBRANCH   7  21
TORSDOF 6
ENDMDL
MODEL       56
REMARK 921   NORMALIZED FREE ENERGY PREDICTED BY IDOCK:   -4.73 KCAL/MOL
REMARK 922        TOTAL FREE ENERGY PREDICTED BY IDOCK:   -7.60 KCAL/MOL
REMARK 923 INTER-LIGAND FREE ENERGY PREDICTED BY IDOCK:   -6.89 KCAL/MOL
REMARK 924 INTRA-LIGAND FREE ENERGY PREDICTED BY IDOCK:   -0.72 KCAL/MOL
REMARK 927      BINDING AFFINITY PREDICTED BY RF-SCORE:    0.00 PKD
ROOT
HETATM    1  C   UNL     1      -9.113  15.380  66.701  1.00  0.00    -0.279 C  
HETATM    2  C   UNL     1      -9.584  14.272  67.635  1.00  0.00    -0.219 C  
HETATM    3  C   UNL     1     -10.853  13.790  66.977  1.00  0.00    -0.284 C  
HETATM    4  C   UNL     1     -10.376  16.753  65.750  1.00  0.00    -0.305 C  
HETATM    5  C   UNL     1     -11.101  14.482  65.849  1.00  0.00    -0.327 C  
HETATM    6  N   UNL     1     -10.108  15.420  65.588  1.00  0.00    -0.352 N  
HETATM    7  C   UNL     1      -9.455  16.875  66.975  1.00  0.00    -0.251 C  
HETATM    8  C   UNL     1     -12.297  14.373  64.948  1.00  0.00    -0.405 C  
HETATM    9  O   UNL     1     -12.300  15.256  63.925  1.00  0.00    -0.655 OA 
HETATM   10  O   UNL     1     -13.174  13.531  65.051  1.00  0.00    -0.721 OA 
HETATM   11  O   UNL     1     -11.158  17.436  65.135  1.00  0.00    -0.514 OA 
ENDROOT
BRANCH   3  12
HETATM   12  S   UNL     1     -11.811  12.650  67.836  1.00  0.00    -0.265 SA 
BRANCH  12  13
HETATM   13  C   UNL     1     -11.143  11.019  67.394  1.00  0.00    -0.305 C  
BRANCH  13  14
HETATM   14  C   UNL     1     -10.153  10.417  68.390  1.00  0.00    -0.163 C  
BRANCH  14  15
HETATM   15  N   UNL     1      -9.877   9.016  68.020  1.00  0.00    -0.160 NA 
HETATM   16  H   UNL     1      -9.288   8.399  68.579  1.00  0.00     0.000 HD 
BRANCH  15  17
HETATM   17  C   UNL     1     -10.444   8.645  66.930  1.00  0.00    -0.258 C  
HETATM   18  H1  UNL     1     -10.567   7.211  65.414  1.00  0.00     0.000 HD 
HETATM   19  N   UNL     1     -10.117   7.506  66.280  1.00  0.00    -0.463 NA 
HETATM   20  H2  UNL     1      -9.385   6.915  66.673  1.00  0.00     0.000 HD 
ENDBRANCH  15  17
ENDBRANCH  14  15
ENDBRANCH  13  14
ENDBRANCH  12  13
ENDBRANCH   3  12
BRANCH   7  21
HETATM   21  C   UNL     1      -8.310  17.863  66.849  1.00  0.00    -0.242 C  
HETATM   22  O   UNL     1      -8.595  18.712  65.742  1.00  0.00    -0.430 OA 
HETATM   23  C   UNL     1      -6.990  17.143  66.611  1.00  0.00    -0.285 C  
HETATM   24  H   UNL     1      -7.878  19.330  65.663  1.00  0.00     0.000 HD 
ENDBRANCH   7  21
TORSDOF 6
ENDMDL
MODEL       57
REMARK 921   NORMALIZED FREE ENERGY PREDICTED BY IDOCK:   -4.73 KCAL/MOL
REMARK 922        TOTAL FREE ENERGY PREDICTED BY IDOCK:   -7.60 KCAL/MOL
REMARK 923 INTER-LIGAND FREE ENERGY PREDICTED BY IDOCK:   -6.82 KCAL/MOL
REMARK 924 INTRA-LIGAND FREE ENERGY PREDICTED BY IDOCK:   -0.77 KCAL/MOL
REMARK 927      BINDING AFFINITY PREDICTED BY RF-SCORE:    0.00 PKD
ROOT
HETATM    1  C   UNL     1     -11.446  13.053  68.599  1.00  0.00    -0.307 C  
HETATM    2  C   UNL     1     -11.875  12.062  67.525  1.00  0.00    -0.275 C  
HETATM    3  C   UNL     1     -10.570  11.690  66.866  1.00  0.00    -0.241 C  
HETATM    4  C   UNL     1      -9.955  14.503  68.356  1.00  0.00    -0.241 C  
HETATM    5  C   UNL     1      -9.540  12.339  67.442  1.00  0.00    -0.179 C  
HETATM    6  N   UNL     1      -9.958  13.142  68.497  1.00  0.00    -0.216 N  
HETATM    7  C   UNL     1     -11.490  14.591  68.352  1.00  0.00    -0.328 C  
HETATM    8  C   UNL     1      -8.095  12.315  67.034  1.00  0.00    -0.141 C  
HETATM    9  O   UNL     1      -7.302  13.131  67.762  1.00  0.00    -0.112 OA 
HETATM   10  O   UNL     1      -7.624  11.585  66.177  1.00  0.00     0.015 OA 
HETATM   11  O   UNL     1      -9.008  15.234  68.200  1.00  0.00    -0.169 OA 
ENDROOT
BRANCH   3  12
HETATM   12  S   UNL     1     -10.642  10.719  65.449  1.00  0.00    -0.090 SA 
BRANCH  12  13
HETATM   13  C   UNL     1     -10.865  11.883  64.072  1.00  0.00    -0.379 C  
BRANCH  13  14
HETATM   14  C   UNL     1     -12.238  12.550  63.985  1.00  0.00    -0.480 C  
BRANCH  14  15
HETATM   15  N   UNL     1     -12.091  13.898  63.405  1.00  0.00    -1.002 NA 
HETATM   16  H   UNL     1     -12.014  14.067  62.403  1.00  0.00     0.000 HD 
BRANCH  15  17
HETATM   17  C   UNL     1     -12.070  14.840  64.277  1.00  0.00    -0.394 C  
HETATM   18  H1  UNL     1     -12.036  16.899  64.639  1.00  0.00     0.000 HD 
HETATM   19  N   UNL     1     -12.054  16.151  63.947  1.00  0.00    -1.261 NA 
HETATM   20  H2  UNL     1     -12.059  16.402  62.959  1.00  0.00     0.000 HD 
ENDBRANCH  15  17
ENDBRANCH  14  15
ENDBRANCH  13  14
ENDBRANCH  12  13
ENDBRANCH   3  12
BRANCH   7  21
HETATM   21  C   UNL     1     -12.110  15.433  69.452  1.00  0.00    -0.280 C  
HETATM   22  O   UNL     1     -11.083  16.263  69.988  1.00  0.00    -0.341 OA 
HETATM   23  C   UNL     1     -12.682  14.555  70.557  1.00  0.00    -0.404 C  
HETATM   24  H   UNL     1     -11.472  16.790  70.676  1.00  0.00     0.000 HD 
ENDBRANCH   7  21
TORSDOF 6
ENDMDL
MODEL       58
REMARK 921   NORMALIZED FREE ENERGY PREDICTED BY IDOCK:   -4.72 KCAL/MOL
REMARK 922        TOTAL FREE ENERGY PREDICTED BY IDOCK:   -7.58 KCAL/MOL
REMARK 923 INTER-LIGAND FREE ENERGY PREDICTED BY IDOCK:   -6.86 KCAL/MOL
REMARK 924 INTRA-LIGAND FREE ENERGY PREDICTED BY IDOCK:   -0.73 KCAL/MOL
REMARK 927      BINDING AFFINITY PREDICTED BY RF-SCORE:    0.00 PKD
ROOT
HETATM    1  C   UNL     1      -9.466  13.363  66.536  1.00  0.00    -0.245 C  
HETATM    2  C   UNL     1      -8.363  14.355  66.881  1.00  0.00    -0.109 C  
HETATM    3  C   UNL     1      -8.955  15.137  68.027  1.00  0.00    -0.172 C  
HETATM    4  C   UNL     1     -11.512  13.807  66.542  1.00  0.00    -0.348 C  
HETATM    5  C   UNL     1     -10.192  14.694  68.320  1.00  0.00    -0.227 C  
HETATM    6  N   UNL     1     -10.565  13.625  67.513  1.00  0.00    -0.240 N  
HETATM    7  C   UNL     1     -10.494  13.651  65.400  1.00  0.00    -0.333 C  
HETATM    8  C   UNL     1     -11.152  15.252  69.331  1.00  0.00    -0.280 C  
HETATM    9  O   UNL     1     -12.356  14.637  69.348  1.00  0.00    -0.263 OA 
HETATM   10  O   UNL     1     -10.887  16.131  70.134  1.00  0.00    -0.332 OA 
HETATM   11  O   UNL     1     -12.678  14.086  66.680  1.00  0.00    -0.255 OA 
ENDROOT
BRANCH   3  12
HETATM   12  S   UNL     1      -8.084  16.508  68.589  1.00  0.00    -0.243 SA 
BRANCH  12  13
HETATM   13  C   UNL     1      -8.464  17.842  67.415  1.00  0.00    -0.235 C  
BRANCH  13  14
HETATM   14  C   UNL     1      -9.774  18.589  67.664  1.00  0.00    -0.296 C  
BRANCH  14  15
HETATM   15  N   UNL     1     -10.639  18.469  66.476  1.00  0.00    -0.379 NA 
HETATM   16  H   UNL     1     -11.278  19.205  66.176  1.00  0.00     0.000 HD 
BRANCH  15  17
HETATM   17  C   UNL     1     -10.516  17.354  65.854  1.00  0.00    -0.252 C  
HETATM   18  H1  UNL     1     -10.979  16.230  64.152  1.00  0.00     0.000 HD 
HETATM   19  N   UNL     1     -11.076  17.117  64.646  1.00  0.00    -1.007 NA 
HETATM   20  H2  UNL     1     -11.621  17.859  64.210  1.00  0.00     0.000 HD 
ENDBRANCH  15  17
ENDBRANCH  14  15
ENDBRANCH  13  14
ENDBRANCH  12  13
ENDBRANCH   3  12
BRANCH   7  21
HETATM   21  C   UNL     1     -10.757  12.517  64.426  1.00  0.00    -0.350 C  
HETATM   22  O   UNL     1      -9.585  12.354  63.632  1.00  0.00    -0.659 OA 
HETATM   23  C   UNL     1     -11.942  12.834  63.525  1.00  0.00    -0.633 C  
HETATM   24  H   UNL     1      -9.750  11.644  63.022  1.00  0.00     0.000 HD 
ENDBRANCH   7  21
TORSDOF 6
ENDMDL
MODEL       59
REMARK 921   NORMALIZED FREE ENERGY PREDICTED BY IDOCK:   -4.71 KCAL/MOL
REMARK 922        TOTAL FREE ENERGY PREDICTED BY IDOCK:   -7.57 KCAL/MOL
REMARK 923 INTER-LIGAND FREE ENERGY PREDICTED BY IDOCK:   -6.57 KCAL/MOL
REMARK 924 INTRA-LIGAND FREE ENERGY PREDICTED BY IDOCK:   -1.01 KCAL/MOL
REMARK 927      BINDING AFFINITY PREDICTED BY RF-SCORE:    0.00 PKD
ROOT
HETATM    1  C   UNL     1     -11.341  13.931  64.922  1.00  0.00    -0.347 C  
HETATM    2  C   UNL     1     -10.699  12.815  64.107  1.00  0.00    -0.441 C  
HETATM    3  C   UNL     1     -10.713  11.647  65.062  1.00  0.00    -0.296 C  
HETATM    4  C   UNL     1     -11.014  14.255  66.965  1.00  0.00    -0.303 C  
HETATM    5  C   UNL     1     -11.266  11.996  66.239  1.00  0.00    -0.342 C  
HETATM    6  N   UNL     1     -11.697  13.318  66.237  1.00  0.00    -0.351 N  
HETATM    7  C   UNL     1     -10.480  14.963  65.709  1.00  0.00    -0.345 C  
HETATM    8  C   UNL     1     -11.394  11.159  67.478  1.00  0.00    -0.278 C  
HETATM    9  O   UNL     1     -11.932  11.811  68.533  1.00  0.00    -0.406 OA 
HETATM   10  O   UNL     1     -11.120   9.972  67.551  1.00  0.00    -0.274 OA 
HETATM   11  O   UNL     1     -10.884  14.319  68.162  1.00  0.00    -0.236 OA 
ENDROOT
BRANCH   3  12
HETATM   12  S   UNL     1      -9.886  10.218  64.583  1.00  0.00    -0.289 SA 
BRANCH  12  13
HETATM   13  C   UNL     1      -8.137  10.510  64.984  1.00  0.00    -0.096 C  
BRANCH  13  14
HETATM   14  C   UNL     1      -7.732  10.218  66.428  1.00  0.00    -0.116 C  
BRANCH  14  15
HETATM   15  N   UNL     1      -7.474  11.490  67.130  1.00  0.00    -0.135 NA 
HETATM   16  H   UNL     1      -7.098  12.315  66.665  1.00  0.00     0.000 HD 
BRANCH  15  17
HETATM   17  C   UNL     1      -7.766  11.463  68.380  1.00  0.00    -0.127 C  
HETATM   18  H1  UNL     1      -9.043  12.118  69.901  1.00  0.00     0.000 HD 
HETATM   19  N   UNL     1      -8.811  12.139  68.908  1.00  0.00    -0.372 NA 
HETATM   20  H2  UNL     1      -9.393  12.697  68.285  1.00  0.00     0.000 HD 
ENDBRANCH  15  17
ENDBRANCH  14  15
ENDBRANCH  13  14
ENDBRANCH  12  13
ENDBRANCH   3  12
BRANCH   7  21
HETATM   21  C   UNL     1     -10.868  16.422  65.554  1.00  0.00    -0.215 C  
HETATM   22  O   UNL     1     -11.188  16.638  64.182  1.00  0.00    -1.410 OA 
HETATM   23  C   UNL     1      -9.722  17.340  65.958  1.00  0.00    -0.190 C  
HETATM   24  H   UNL     1     -11.431  17.551  64.085  1.00  0.00     0.000 HD 
ENDBRANCH   7  21
TORSDOF 6
ENDMDL
MODEL       60
REMARK 921   NORMALIZED FREE ENERGY PREDICTED BY IDOCK:   -4.67 KCAL/MOL
REMARK 922        TOTAL FREE ENERGY PREDICTED BY IDOCK:   -7.53 KCAL/MOL
REMARK 923 INTER-LIGAND FREE ENERGY PREDICTED BY IDOCK:   -6.63 KCAL/MOL
REMARK 924 INTRA-LIGAND FREE ENERGY PREDICTED BY IDOCK:   -0.90 KCAL/MOL
REMARK 927      BINDING AFFINITY PREDICTED BY RF-SCORE:    0.00 PKD
ROOT
HETATM    1  C   UNL     1     -10.876  11.601  66.869  1.00  0.00    -0.278 C  
HETATM    2  C   UNL     1     -10.770  12.949  67.571  1.00  0.00    -0.241 C  
HETATM    3  C   UNL     1     -11.366  13.903  66.566  1.00  0.00    -0.331 C  
HETATM    4  C   UNL     1     -10.548  11.294  64.824  1.00  0.00    -0.312 C  
HETATM    5  C   UNL     1     -11.761  13.248  65.459  1.00  0.00    -0.346 C  
HETATM    6  N   UNL     1     -11.543  11.878  65.561  1.00  0.00    -0.280 N  
HETATM    7  C   UNL     1      -9.683  11.007  66.062  1.00  0.00    -0.265 C  
HETATM    8  C   UNL     1     -12.323  13.834  64.196  1.00  0.00    -0.332 C  
HETATM    9  O   UNL     1     -12.561  12.925  63.224  1.00  0.00    -0.685 OA 
HETATM   10  O   UNL     1     -12.623  15.006  64.044  1.00  0.00    -0.817 OA 
HETATM   11  O   UNL     1     -10.467  11.199  63.624  1.00  0.00    -0.359 OA 
ENDROOT
BRANCH   3  12
HETATM   12  S   UNL     1     -11.255  15.585  66.904  1.00  0.00    -0.077 SA 
BRANCH  12  13
HETATM   13  C   UNL     1      -9.866  16.193  65.902  1.00  0.00    -0.353 C  
BRANCH  13  14
HETATM   14  C   UNL     1      -8.505  16.207  66.598  1.00  0.00    -0.280 C  
BRANCH  14  15
HETATM   15  N   UNL     1      -8.686  15.914  68.032  1.00  0.00    -0.168 NA 
HETATM   16  H   UNL     1      -9.458  16.289  68.583  1.00  0.00     0.000 HD 
BRANCH  15  17
HETATM   17  C   UNL     1      -7.785  15.144  68.524  1.00  0.00    -0.122 C  
HETATM   18  H1  UNL     1      -7.096  14.086  70.191  1.00  0.00     0.000 HD 
HETATM   19  N   UNL     1      -7.812  14.697  69.799  1.00  0.00    -0.402 NA 
HETATM   20  H2  UNL     1      -8.585  14.985  70.398  1.00  0.00     0.000 HD 
ENDBRANCH  15  17
ENDBRANCH  14  15
ENDBRANCH  13  14
ENDBRANCH  12  13
ENDBRANCH   3  12
BRANCH   7  21
HETATM   21  C   UNL     1      -9.355   9.548  66.320  1.00  0.00    -0.188 C  
HETATM   22  O   UNL     1      -9.317   8.887  65.058  1.00  0.00    -0.442 OA 
HETATM   23  C   UNL     1     -10.410   8.897  67.203  1.00  0.00    -0.351 C  
HETATM   24  H   UNL     1      -9.112   7.974  65.220  1.00  0.00     0.000 HD 
ENDBRANCH   7  21
TORSDOF 6
ENDMDL
MODEL       61
REMARK 921   NORMALIZED FREE ENERGY PREDICTED BY IDOCK:   -4.66 KCAL/MOL
REMARK 922        TOTAL FREE ENERGY PREDICTED BY IDOCK:   -7.51 KCAL/MOL
REMARK 923 INTER-LIGAND FREE ENERGY PREDICTED BY IDOCK:   -6.88 KCAL/MOL
REMARK 924 INTRA-LIGAND FREE ENERGY PREDICTED BY IDOCK:   -0.63 KCAL/MOL
REMARK 927      BINDING AFFINITY PREDICTED BY RF-SCORE:    0.00 PKD
ROOT
HETATM    1  C   UNL     1     -11.839  12.141  67.970  1.00  0.00    -0.285 C  
HETATM    2  C   UNL     1     -11.850  13.610  67.566  1.00  0.00    -0.416 C  
HETATM    3  C   UNL     1     -11.396  13.569  66.128  1.00  0.00    -0.308 C  
HETATM    4  C   UNL     1     -10.388  10.753  67.378  1.00  0.00    -0.211 C  
HETATM    5  C   UNL     1     -11.157  12.304  65.736  1.00  0.00    -0.323 C  
HETATM    6  N   UNL     1     -11.424  11.389  66.749  1.00  0.00    -0.185 N  
HETATM    7  C   UNL     1     -10.616  11.506  68.699  1.00  0.00    -0.236 C  
HETATM    8  C   UNL     1     -10.612  11.838  64.417  1.00  0.00    -0.317 C  
HETATM    9  O   UNL     1     -10.410  10.504  64.343  1.00  0.00    -0.341 OA 
HETATM   10  O   UNL     1     -10.425  12.554  63.447  1.00  0.00    -0.397 OA 
HETATM   11  O   UNL     1      -9.595   9.974  66.908  1.00  0.00    -0.164 OA 
ENDROOT
BRANCH   3  12
HETATM   12  S   UNL     1     -11.085  15.071  65.350  1.00  0.00    -0.381 SA 
BRANCH  12  13
HETATM   13  C   UNL     1      -9.796  15.878  66.346  1.00  0.00    -0.282 C  
BRANCH  13  14
HETATM   14  C   UNL     1     -10.166  17.242  66.927  1.00  0.00    -0.322 C  
BRANCH  14  15
HETATM   15  N   UNL     1     -10.351  18.208  65.828  1.00  0.00    -0.615 NA 
HETATM   16  H   UNL     1     -10.389  17.933  64.847  1.00  0.00     0.000 HD 
BRANCH  15  17
HETATM   17  C   UNL     1     -10.458  19.426  66.218  1.00  0.00    -0.493 C  
HETATM   18  H1  UNL     1      -9.610  21.336  66.270  1.00  0.00     0.000 HD 
HETATM   19  N   UNL     1      -9.525  20.369  65.959  1.00  0.00    -0.651 NA 
HETATM   20  H2  UNL     1      -8.697  20.099  65.429  1.00  0.00     0.000 HD 
ENDBRANCH  15  17
ENDBRANCH  14  15
ENDBRANCH  13  14
ENDBRANCH  12  13
ENDBRANCH   3  12
BRANCH   7  21
HETATM   21  C   UNL     1     -10.926  10.645  69.909  1.00  0.00    -0.274 C  
HETATM   22  O   UNL     1     -10.813   9.282  69.507  1.00  0.00    -0.236 OA 
HETATM   23  C   UNL     1     -12.334  10.908  70.423  1.00  0.00    -0.436 C  
HETATM   24  H   UNL     1     -11.006   8.744  70.265  1.00  0.00     0.000 HD 
ENDBRANCH   7  21
TORSDOF 6
ENDMDL
MODEL       62
REMARK 921   NORMALIZED FREE ENERGY PREDICTED BY IDOCK:   -4.66 KCAL/MOL
REMARK 922        TOTAL FREE ENERGY PREDICTED BY IDOCK:   -7.50 KCAL/MOL
REMARK 923 INTER-LIGAND FREE ENERGY PREDICTED BY IDOCK:   -7.14 KCAL/MOL
REMARK 924 INTRA-LIGAND FREE ENERGY PREDICTED BY IDOCK:   -0.37 KCAL/MOL
REMARK 927      BINDING AFFINITY PREDICTED BY RF-SCORE:    0.00 PKD
ROOT
HETATM    1  C   UNL     1     -10.382  13.768  67.354  1.00  0.00    -0.252 C  
HETATM    2  C   UNL     1      -9.766  12.400  67.616  1.00  0.00    -0.195 C  
HETATM    3  C   UNL     1      -9.945  11.690  66.297  1.00  0.00    -0.217 C  
HETATM    4  C   UNL     1     -12.112  14.101  66.222  1.00  0.00    -0.442 C  
HETATM    5  C   UNL     1     -10.557  12.488  65.402  1.00  0.00    -0.281 C  
HETATM    6  N   UNL     1     -10.822  13.748  65.927  1.00  0.00    -0.281 N  
HETATM    7  C   UNL     1     -11.859  14.084  67.739  1.00  0.00    -0.419 C  
HETATM    8  C   UNL     1     -10.994  12.140  64.008  1.00  0.00    -0.380 C  
HETATM    9  O   UNL     1     -11.652  13.134  63.371  1.00  0.00    -0.420 OA 
HETATM   10  O   UNL     1     -10.735  11.094  63.436  1.00  0.00    -0.360 OA 
HETATM   11  O   UNL     1     -13.038  14.242  65.462  1.00  0.00    -0.639 OA 
ENDROOT
BRANCH   3  12
HETATM   12  S   UNL     1      -9.547  10.019  66.233  1.00  0.00    -0.217 SA 
BRANCH  12  13
HETATM   13  C   UNL     1     -10.770   9.185  67.288  1.00  0.00    -0.154 C  
BRANCH  13  14
HETATM   14  C   UNL     1     -10.387   7.786  67.767  1.00  0.00    -0.221 C  
BRANCH  14  15
HETATM   15  N   UNL     1     -11.299   6.795  67.164  1.00  0.00    -0.755 NA 
HETATM   16  H   UNL     1     -12.314   6.889  67.186  1.00  0.00     0.000 HD 
BRANCH  15  17
HETATM   17  C   UNL     1     -10.699   5.806  66.609  1.00  0.00    -0.262 C  
HETATM   18  H1  UNL     1     -10.816   4.212  65.260  1.00  0.00     0.000 HD 
HETATM   19  N   UNL     1     -11.292   4.999  65.701  1.00  0.00    -0.874 NA 
HETATM   20  H2  UNL     1     -12.261   5.186  65.445  1.00  0.00     0.000 HD 
ENDBRANCH  15  17
ENDBRANCH  14  15
ENDBRANCH  13  14
ENDBRANCH  12  13
ENDBRANCH   3  12
BRANCH   7  21
HETATM   21  C   UNL     1     -12.101  15.393  68.467  1.00  0.00    -0.054 C  
HETATM   22  O   UNL     1     -11.130  16.328  68.003  1.00  0.00    -0.340 OA 
HETATM   23  C   UNL     1     -11.958  15.218  69.972  1.00  0.00    -0.375 C  
HETATM   24  H   UNL     1     -11.282  17.148  68.458  1.00  0.00     0.000 HD 
ENDBRANCH   7  21
TORSDOF 6
ENDMDL
MODEL       63
REMARK 921   NORMALIZED FREE ENERGY PREDICTED BY IDOCK:   -4.66 KCAL/MOL
REMARK 922        TOTAL FREE ENERGY PREDICTED BY IDOCK:   -7.50 KCAL/MOL
REMARK 923 INTER-LIGAND FREE ENERGY PREDICTED BY IDOCK:   -6.79 KCAL/MOL
REMARK 924 INTRA-LIGAND FREE ENERGY PREDICTED BY IDOCK:   -0.71 KCAL/MOL
REMARK 927      BINDING AFFINITY PREDICTED BY RF-SCORE:    0.00 PKD
ROOT
HETATM    1  C   UNL     1      -9.736  12.786  66.599  1.00  0.00    -0.252 C  
HETATM    2  C   UNL     1     -10.230  14.208  66.833  1.00  0.00    -0.267 C  
HETATM    3  C   UNL     1     -11.044  14.080  68.096  1.00  0.00    -0.260 C  
HETATM    4  C   UNL     1     -10.872  11.059  66.932  1.00  0.00    -0.269 C  
HETATM    5  C   UNL     1     -11.040  12.811  68.543  1.00  0.00    -0.266 C  
HETATM    6  N   UNL     1     -10.264  11.981  67.741  1.00  0.00    -0.198 N  
HETATM    7  C   UNL     1     -10.488  11.809  65.646  1.00  0.00    -0.308 C  
HETATM    8  C   UNL     1     -11.791  12.246  69.715  1.00  0.00    -0.318 C  
HETATM    9  O   UNL     1     -11.644  10.912  69.874  1.00  0.00    -0.273 OA 
HETATM   10  O   UNL     1     -12.428  12.906  70.519  1.00  0.00    -0.298 OA 
HETATM   11  O   UNL     1     -11.530  10.100  67.257  1.00  0.00    -0.164 OA 
ENDROOT
BRANCH   3  12
HETATM   12  S   UNL     1     -11.949  15.452  68.601  1.00  0.00    -0.116 SA 
BRANCH  12  13
HETATM   13  C   UNL     1     -11.256  15.927  70.213  1.00  0.00    -0.380 C  
BRANCH  13  14
HETATM   14  C   UNL     1     -12.257  16.006  71.365  1.00  0.00    -0.388 C  
BRANCH  14  15
HETATM   15  N   UNL     1     -13.570  15.515  70.907  1.00  0.00    -0.818 NA 
HETATM   16  H   UNL     1     -13.804  15.390  69.922  1.00  0.00     0.000 HD 
BRANCH  15  17
HETATM   17  C   UNL     1     -14.391  15.258  71.859  1.00  0.00    -0.589 C  
HETATM   18  H1  UNL     1     -15.015  13.905  73.326  1.00  0.00     0.000 HD 
HETATM   19  N   UNL     1     -14.362  14.109  72.569  1.00  0.00    -0.565 NA 
HETATM   20  H2  UNL     1     -13.655  13.412  72.337  1.00  0.00     0.000 HD 
ENDBRANCH  15  17
ENDBRANCH  14  15
ENDBRANCH  13  14
ENDBRANCH  12  13
ENDBRANCH   3  12
BRANCH   7  21
HETATM   21  C   UNL     1      -9.632  11.038  64.658  1.00  0.00    -0.254 C  
HETATM   22  O   UNL     1      -8.270  11.214  65.042  1.00  0.00    -0.375 OA 
HETATM   23  C   UNL     1      -9.831  11.554  63.240  1.00  0.00    -0.431 C  
HETATM   24  H   UNL     1      -7.735  10.731  64.424  1.00  0.00     0.000 HD 
ENDBRANCH   7  21
TORSDOF 6
ENDMDL
MODEL       64
REMARK 921   NORMALIZED FREE ENERGY PREDICTED BY IDOCK:   -4.65 KCAL/MOL
REMARK 922        TOTAL FREE ENERGY PREDICTED BY IDOCK:   -7.49 KCAL/MOL
REMARK 923 INTER-LIGAND FREE ENERGY PREDICTED BY IDOCK:   -6.74 KCAL/MOL
REMARK 924 INTRA-LIGAND FREE ENERGY PREDICTED BY IDOCK:   -0.75 KCAL/MOL
REMARK 927      BINDING AFFINITY PREDICTED BY RF-SCORE:    0.00 PKD
ROOT
HETATM    1  C   UNL     1     -10.135  16.749  66.184  1.00  0.00    -0.345 C  
HETATM    2  C   UNL     1      -9.639  15.348  65.848  1.00  0.00    -0.386 C  
HETATM    3  C   UNL     1     -10.138  14.525  67.009  1.00  0.00    -0.254 C  
HETATM    4  C   UNL     1     -10.161  17.575  68.108  1.00  0.00    -0.341 C  
HETATM    5  C   UNL     1     -10.814  15.291  67.886  1.00  0.00    -0.288 C  
HETATM    6  N   UNL     1     -10.892  16.614  67.464  1.00  0.00    -0.271 N  
HETATM    7  C   UNL     1      -9.222  17.784  66.908  1.00  0.00    -0.263 C  
HETATM    8  C   UNL     1     -11.396  14.881  69.207  1.00  0.00    -0.296 C  
HETATM    9  O   UNL     1     -11.958  15.895  69.902  1.00  0.00    -0.334 OA 
HETATM   10  O   UNL     1     -11.447  13.735  69.622  1.00  0.00    -0.264 OA 
HETATM   11  O   UNL     1     -10.265  17.952  69.249  1.00  0.00    -0.305 OA 
ENDROOT
BRANCH   3  12
HETATM   12  S   UNL     1      -9.613  12.891  67.109  1.00  0.00    -0.232 SA 
BRANCH  12  13
HETATM   13  C   UNL     1     -11.112  11.884  66.899  1.00  0.00    -0.305 C  
BRANCH  13  14
HETATM   14  C   UNL     1     -11.166  10.599  67.724  1.00  0.00    -0.313 C  
BRANCH  14  15
HETATM   15  N   UNL     1     -12.240  10.708  68.729  1.00  0.00    -0.808 NA 
HETATM   16  H   UNL     1     -13.191  10.993  68.498  1.00  0.00     0.000 HD 
BRANCH  15  17
HETATM   17  C   UNL     1     -11.869  10.412  69.921  1.00  0.00    -0.238 C  
HETATM   18  H1  UNL     1     -11.714  11.020  71.916  1.00  0.00     0.000 HD 
HETATM   19  N   UNL     1     -12.009  11.255  70.968  1.00  0.00    -0.304 NA 
HETATM   20  H2  UNL     1     -12.429  12.169  70.803  1.00  0.00     0.000 HD 
ENDBRANCH  15  17
ENDBRANCH  14  15
ENDBRANCH  13  14
ENDBRANCH  12  13
ENDBRANCH   3  12
BRANCH   7  21
HETATM   21  C   UNL     1      -9.194  19.184  66.322  1.00  0.00    -0.313 C  
HETATM   22  O   UNL     1      -8.417  19.999  67.195  1.00  0.00    -0.309 OA 
HETATM   23  C   UNL     1     -10.599  19.758  66.208  1.00  0.00    -0.572 C  
HETATM   24  H   UNL     1      -8.399  20.875  66.829  1.00  0.00     0.000 HD 
ENDBRANCH   7  21
TORSDOF 6
ENDMDL
MODEL       65
REMARK 921   NORMALIZED FREE ENERGY PREDICTED BY IDOCK:   -4.64 KCAL/MOL
REMARK 922        TOTAL FREE ENERGY PREDICTED BY IDOCK:   -7.48 KCAL/MOL
REMARK 923 INTER-LIGAND FREE ENERGY PREDICTED BY IDOCK:   -6.33 KCAL/MOL
REMARK 924 INTRA-LIGAND FREE ENERGY PREDICTED BY IDOCK:   -1.14 KCAL/MOL
REMARK 927      BINDING AFFINITY PREDICTED BY RF-SCORE:    0.00 PKD
ROOT
HETATM    1  C   UNL     1     -12.498  15.107  70.170  1.00  0.00    -0.318 C  
HETATM    2  C   UNL     1     -11.421  15.899  69.439  1.00  0.00    -0.351 C  
HETATM    3  C   UNL     1     -10.949  14.932  68.381  1.00  0.00    -0.261 C  
HETATM    4  C   UNL     1     -12.384  13.062  70.607  1.00  0.00    -0.310 C  
HETATM    5  C   UNL     1     -11.622  13.769  68.460  1.00  0.00    -0.338 C  
HETATM    6  N   UNL     1     -12.581  13.792  69.466  1.00  0.00    -0.070 N  
HETATM    7  C   UNL     1     -12.182  14.315  71.475  1.00  0.00    -0.378 C  
HETATM    8  C   UNL     1     -11.401  12.523  67.651  1.00  0.00    -0.306 C  
HETATM    9  O   UNL     1     -12.189  11.485  68.009  1.00  0.00    -0.582 OA 
HETATM   10  O   UNL     1     -10.643  12.434  66.699  1.00  0.00    -0.227 OA 
HETATM   11  O   UNL     1     -12.317  11.863  70.723  1.00  0.00    -0.374 OA 
ENDROOT
BRANCH   3  12
HETATM   12  S   UNL     1      -9.577  15.383  67.448  1.00  0.00    -0.210 SA 
BRANCH  12  13
HETATM   13  C   UNL     1      -8.143  15.120  68.534  1.00  0.00    -0.145 C  
BRANCH  13  14
HETATM   14  C   UNL     1      -7.377  13.816  68.315  1.00  0.00    -0.118 C  
BRANCH  14  15
HETATM   15  N   UNL     1      -8.180  12.687  68.822  1.00  0.00    -0.346 NA 
HETATM   16  H   UNL     1      -8.955  12.805  69.474  1.00  0.00     0.000 HD 
BRANCH  15  17
HETATM   17  C   UNL     1      -7.814  11.543  68.370  1.00  0.00    -0.136 C  
HETATM   18  H1  UNL     1      -8.398   9.663  67.668  1.00  0.00     0.000 HD 
HETATM   19  N   UNL     1      -8.689  10.571  68.027  1.00  0.00    -0.126 NA 
HETATM   20  H2  UNL     1      -9.685  10.756  68.133  1.00  0.00     0.000 HD 
ENDBRANCH  15  17
ENDBRANCH  14  15
ENDBRANCH  13  14
ENDBRANCH  12  13
ENDBRANCH   3  12
BRANCH   7  21
HETATM   21  C   UNL     1     -13.158  14.492  72.623  1.00  0.00    -0.467 C  
HETATM   22  O   UNL     1     -13.874  13.269  72.771  1.00  0.00    -0.692 OA 
HETATM   23  C   UNL     1     -14.138  15.623  72.341  1.00  0.00    -0.575 C  
HETATM   24  H   UNL     1     -14.484  13.380  73.490  1.00  0.00     0.000 HD 
ENDBRANCH   7  21
TORSDOF 6
ENDMDL
MODEL       66
REMARK 921   NORMALIZED FREE ENERGY PREDICTED BY IDOCK:   -4.63 KCAL/MOL
REMARK 922        TOTAL FREE ENERGY PREDICTED BY IDOCK:   -7.47 KCAL/MOL
REMARK 923 INTER-LIGAND FREE ENERGY PREDICTED BY IDOCK:   -6.90 KCAL/MOL
REMARK 924 INTRA-LIGAND FREE ENERGY PREDICTED BY IDOCK:   -0.58 KCAL/MOL
REMARK 927      BINDING AFFINITY PREDICTED BY RF-SCORE:    0.00 PKD
ROOT
HETATM    1  C   UNL     1     -11.782  14.317  66.180  1.00  0.00    -0.390 C  
HETATM    2  C   UNL     1     -11.310  12.905  65.861  1.00  0.00    -0.348 C  
HETATM    3  C   UNL     1     -11.375  12.214  67.201  1.00  0.00    -0.331 C  
HETATM    4  C   UNL     1     -11.287  15.375  67.918  1.00  0.00    -0.325 C  
HETATM    5  C   UNL     1     -11.809  13.059  68.155  1.00  0.00    -0.340 C  
HETATM    6  N   UNL     1     -12.107  14.315  67.638  1.00  0.00    -0.354 N  
HETATM    7  C   UNL     1     -10.771  15.467  66.473  1.00  0.00    -0.308 C  
HETATM    8  C   UNL     1     -11.935  12.795  69.627  1.00  0.00    -0.288 C  
HETATM    9  O   UNL     1     -12.334  13.867  70.348  1.00  0.00    -0.332 OA 
HETATM   10  O   UNL     1     -11.775  11.709  70.158  1.00  0.00    -0.323 OA 
HETATM   11  O   UNL     1     -11.070  15.887  68.989  1.00  0.00    -0.253 OA 
ENDROOT
BRANCH   3  12
HETATM   12  S   UNL     1     -10.727  10.626  67.309  1.00  0.00    -0.285 SA 
BRANCH  12  13
HETATM   13  C   UNL     1      -8.940  10.808  67.025  1.00  0.00    -0.141 C  
BRANCH  13  14
HETATM   14  C   UNL     1      -8.474  10.594  65.585  1.00  0.00    -0.178 C  
BRANCH  14  15
HETATM   15  N   UNL     1      -9.558   9.963  64.809  1.00  0.00    -0.353 NA 
HETATM   16  H   UNL     1     -10.271   9.368  65.231  1.00  0.00     0.000 HD 
BRANCH  15  17
HETATM   17  C   UNL     1      -9.523  10.229  63.554  1.00  0.00    -0.298 C  
HETATM   18  H1  UNL     1     -10.455  11.154  61.927  1.00  0.00     0.000 HD 
HETATM   19  N   UNL     1     -10.483  10.943  62.924  1.00  0.00    -0.783 NA 
HETATM   20  H2  UNL     1     -11.271  11.285  63.472  1.00  0.00     0.000 HD 
ENDBRANCH  15  17
ENDBRANCH  14  15
ENDBRANCH  13  14
ENDBRANCH  12  13
ENDBRANCH   3  12
BRANCH   7  21
HETATM   21  C   UNL     1     -11.023  16.783  65.760  1.00  0.00     0.044 C  
HETATM   22  O   UNL     1     -10.897  16.545  64.361  1.00  0.00    -1.027 OA 
HETATM   23  C   UNL     1     -10.015  17.840  66.189  1.00  0.00    -0.283 C  
HETATM   24  H   UNL     1     -11.054  17.368  63.915  1.00  0.00     0.000 HD 
ENDBRANCH   7  21
TORSDOF 6
ENDMDL
MODEL       67
REMARK 921   NORMALIZED FREE ENERGY PREDICTED BY IDOCK:   -4.62 KCAL/MOL
REMARK 922        TOTAL FREE ENERGY PREDICTED BY IDOCK:   -7.46 KCAL/MOL
REMARK 923 INTER-LIGAND FREE ENERGY PREDICTED BY IDOCK:   -6.93 KCAL/MOL
REMARK 924 INTRA-LIGAND FREE ENERGY PREDICTED BY IDOCK:   -0.53 KCAL/MOL
REMARK 927      BINDING AFFINITY PREDICTED BY RF-SCORE:    0.00 PKD
ROOT
HETATM    1  C   UNL     1      -9.409   9.061  66.334  1.00  0.00    -0.206 C  
HETATM    2  C   UNL     1      -9.565   9.544  64.897  1.00  0.00    -0.158 C  
HETATM    3  C   UNL     1      -9.583  11.045  65.044  1.00  0.00    -0.247 C  
HETATM    4  C   UNL     1     -10.345   9.932  67.992  1.00  0.00    -0.203 C  
HETATM    5  C   UNL     1      -9.458  11.402  66.336  1.00  0.00    -0.204 C  
HETATM    6  N   UNL     1      -9.315  10.297  67.168  1.00  0.00    -0.152 N  
HETATM    7  C   UNL     1     -10.642   8.652  67.193  1.00  0.00    -0.304 C  
HETATM    8  C   UNL     1      -9.513  12.786  66.916  1.00  0.00    -0.235 C  
HETATM    9  O   UNL     1      -9.429  12.823  68.265  1.00  0.00    -0.214 OA 
HETATM   10  O   UNL     1      -9.555  13.816  66.263  1.00  0.00    -0.281 OA 
HETATM   11  O   UNL     1     -10.812  10.547  68.919  1.00  0.00    -0.206 OA 
ENDROOT
BRANCH   3  12
HETATM   12  S   UNL     1      -9.943  11.977  63.644  1.00  0.00    -0.306 SA 
BRANCH  12  13
HETATM   13  C   UNL     1     -11.758  12.014  63.538  1.00  0.00    -0.472 C  
BRANCH  13  14
HETATM   14  C   UNL     1     -12.459  12.951  64.522  1.00  0.00    -0.400 C  
BRANCH  14  15
HETATM   15  N   UNL     1     -12.653  14.269  63.887  1.00  0.00    -0.886 NA 
HETATM   16  H   UNL     1     -13.274  14.417  63.093  1.00  0.00     0.000 HD 
BRANCH  15  17
HETATM   17  C   UNL     1     -11.969  15.211  64.426  1.00  0.00    -0.310 C  
HETATM   18  H1  UNL     1     -11.313  17.193  64.310  1.00  0.00     0.000 HD 
HETATM   19  N   UNL     1     -11.857  16.444  63.883  1.00  0.00    -1.402 NA 
HETATM   20  H2  UNL     1     -12.338  16.634  63.005  1.00  0.00     0.000 HD 
ENDBRANCH  15  17
ENDBRANCH  14  15
ENDBRANCH  13  14
ENDBRANCH  12  13
ENDBRANCH   3  12
BRANCH   7  21
HETATM   21  C   UNL     1     -10.525   7.348  67.961  1.00  0.00    -0.199 C  
HETATM   22  O   UNL     1      -9.159   7.192  68.337  1.00  0.00    -0.129 OA 
HETATM   23  C   UNL     1     -10.954   6.166  67.103  1.00  0.00    -0.420 C  
HETATM   24  H   UNL     1      -9.086   6.377  68.818  1.00  0.00     0.000 HD 
ENDBRANCH   7  21
TORSDOF 6
ENDMDL
MODEL       68
REMARK 921   NORMALIZED FREE ENERGY PREDICTED BY IDOCK:   -4.61 KCAL/MOL
REMARK 922        TOTAL FREE ENERGY PREDICTED BY IDOCK:   -7.44 KCAL/MOL
REMARK 923 INTER-LIGAND FREE ENERGY PREDICTED BY IDOCK:   -6.70 KCAL/MOL
REMARK 924 INTRA-LIGAND FREE ENERGY PREDICTED BY IDOCK:   -0.73 KCAL/MOL
REMARK 927      BINDING AFFINITY PREDICTED BY RF-SCORE:    0.00 PKD
ROOT
HETATM    1  C   UNL     1     -10.289  14.218  66.917  1.00  0.00    -0.268 C  
HETATM    2  C   UNL     1      -9.359  13.028  67.107  1.00  0.00    -0.230 C  
HETATM    3  C   UNL     1      -9.608  12.201  65.871  1.00  0.00    -0.214 C  
HETATM    4  C   UNL     1     -12.221  14.105  66.115  1.00  0.00    -0.442 C  
HETATM    5  C   UNL     1     -10.523  12.788  65.077  1.00  0.00    -0.314 C  
HETATM    6  N   UNL     1     -10.958  14.002  65.598  1.00  0.00    -0.295 N  
HETATM    7  C   UNL     1     -11.709  14.253  67.558  1.00  0.00    -0.415 C  
HETATM    8  C   UNL     1     -11.112  12.256  63.803  1.00  0.00    -0.442 C  
HETATM    9  O   UNL     1     -12.069  13.044  63.264  1.00  0.00    -0.569 OA 
HETATM   10  O   UNL     1     -10.739  11.246  63.230  1.00  0.00    -0.344 OA 
HETATM   11  O   UNL     1     -13.274  13.997  65.537  1.00  0.00    -0.710 OA 
ENDROOT
BRANCH   3  12
HETATM   12  S   UNL     1      -8.878  10.646  65.793  1.00  0.00    -0.189 SA 
BRANCH  12  13
HETATM   13  C   UNL     1     -10.174   9.473  66.292  1.00  0.00    -0.220 C  
BRANCH  13  14
HETATM   14  C   UNL     1     -10.261   9.181  67.789  1.00  0.00    -0.224 C  
BRANCH  14  15
HETATM   15  N   UNL     1     -11.242  10.090  68.409  1.00  0.00    -0.490 NA 
HETATM   16  H   UNL     1     -12.162  10.273  68.008  1.00  0.00     0.000 HD 
BRANCH  15  17
HETATM   17  C   UNL     1     -10.835  10.631  69.499  1.00  0.00    -0.259 C  
HETATM   18  H1  UNL     1     -11.256  11.934  71.079  1.00  0.00     0.000 HD 
HETATM   19  N   UNL     1     -11.580  11.504  70.213  1.00  0.00    -0.504 NA 
HETATM   20  H2  UNL     1     -12.509  11.744  69.869  1.00  0.00     0.000 HD 
ENDBRANCH  15  17
ENDBRANCH  14  15
ENDBRANCH  13  14
ENDBRANCH  12  13
ENDBRANCH   3  12
BRANCH   7  21
HETATM   21  C   UNL     1     -12.096  15.535  68.271  1.00  0.00     0.119 C  
HETATM   22  O   UNL     1     -11.151  16.535  67.899  1.00  0.00    -0.319 OA 
HETATM   23  C   UNL     1     -12.071  15.350  69.782  1.00  0.00    -0.373 C  
HETATM   24  H   UNL     1     -11.393  17.338  68.345  1.00  0.00     0.000 HD 
ENDBRANCH   7  21
TORSDOF 6
ENDMDL
MODEL       69
REMARK 921   NORMALIZED FREE ENERGY PREDICTED BY IDOCK:   -4.60 KCAL/MOL
REMARK 922        TOTAL FREE ENERGY PREDICTED BY IDOCK:   -7.42 KCAL/MOL
REMARK 923 INTER-LIGAND FREE ENERGY PREDICTED BY IDOCK:   -6.78 KCAL/MOL
REMARK 924 INTRA-LIGAND FREE ENERGY PREDICTED BY IDOCK:   -0.64 KCAL/MOL
REMARK 927      BINDING AFFINITY PREDICTED BY RF-SCORE:    0.00 PKD
ROOT
HETATM    1  C   UNL     1      -9.901   8.683  69.548  1.00  0.00    -0.187 C  
HETATM    2  C   UNL     1     -10.048   9.920  68.672  1.00  0.00    -0.191 C  
HETATM    3  C   UNL     1     -11.113  10.716  69.384  1.00  0.00    -0.260 C  
HETATM    4  C   UNL     1     -11.491   7.689  70.482  1.00  0.00    -0.218 C  
HETATM    5  C   UNL     1     -11.532  10.074  70.491  1.00  0.00    -0.330 C  
HETATM    6  N   UNL     1     -10.848   8.880  70.687  1.00  0.00    -0.228 N  
HETATM    7  C   UNL     1     -10.665   7.363  69.226  1.00  0.00    -0.197 C  
HETATM    8  C   UNL     1     -12.631  10.481  71.429  1.00  0.00    -0.434 C  
HETATM    9  O   UNL     1     -12.872   9.592  72.417  1.00  0.00    -0.363 OA 
HETATM   10  O   UNL     1     -13.229  11.544  71.384  1.00  0.00    -0.314 OA 
HETATM   11  O   UNL     1     -12.426   7.232  71.091  1.00  0.00    -0.348 OA 
ENDROOT
BRANCH   3  12
HETATM   12  S   UNL     1     -11.716  12.120  68.596  1.00  0.00    -0.326 SA 
BRANCH  12  13
HETATM   13  C   UNL     1     -11.377  11.871  66.828  1.00  0.00    -0.330 C  
BRANCH  13  14
HETATM   14  C   UNL     1     -11.844  12.992  65.900  1.00  0.00    -0.416 C  
BRANCH  14  15
HETATM   15  N   UNL     1     -12.831  12.456  64.944  1.00  0.00    -0.720 NA 
HETATM   16  H   UNL     1     -13.708  12.025  65.233  1.00  0.00     0.000 HD 
BRANCH  15  17
HETATM   17  C   UNL     1     -12.485  12.582  63.714  1.00  0.00    -0.455 C  
HETATM   18  H1  UNL     1     -11.689  11.668  62.011  1.00  0.00     0.000 HD 
HETATM   19  N   UNL     1     -11.964  11.568  62.987  1.00  0.00    -0.908 NA 
HETATM   20  H2  UNL     1     -11.841  10.662  63.437  1.00  0.00     0.000 HD 
ENDBRANCH  15  17
ENDBRANCH  14  15
ENDBRANCH  13  14
ENDBRANCH  12  13
ENDBRANCH   3  12
BRANCH   7  21
HETATM   21  C   UNL     1      -9.850   6.083  69.281  1.00  0.00    -0.152 C  
HETATM   22  O   UNL     1     -10.433   5.246  70.276  1.00  0.00    -0.279 OA 
HETATM   23  C   UNL     1      -8.400   6.372  69.645  1.00  0.00    -0.126 C  
HETATM   24  H   UNL     1      -9.924   4.445  70.310  1.00  0.00     0.000 HD 
ENDBRANCH   7  21
TORSDOF 6
ENDMDL
MODEL       70
REMARK 921   NORMALIZED FREE ENERGY PREDICTED BY IDOCK:   -4.59 KCAL/MOL
REMARK 922        TOTAL FREE ENERGY PREDICTED BY IDOCK:   -7.41 KCAL/MOL
REMARK 923 INTER-LIGAND FREE ENERGY PREDICTED BY IDOCK:   -6.81 KCAL/MOL
REMARK 924 INTRA-LIGAND FREE ENERGY PREDICTED BY IDOCK:   -0.61 KCAL/MOL
REMARK 927      BINDING AFFINITY PREDICTED BY RF-SCORE:    0.00 PKD
ROOT
HETATM    1  C   UNL     1     -11.612  14.315  66.762  1.00  0.00    -0.391 C  
HETATM    2  C   UNL     1     -11.449  12.824  67.027  1.00  0.00    -0.397 C  
HETATM    3  C   UNL     1     -11.762  12.705  68.498  1.00  0.00    -0.330 C  
HETATM    4  C   UNL     1     -11.014  15.831  68.077  1.00  0.00    -0.330 C  
HETATM    5  C   UNL     1     -12.060  13.907  69.023  1.00  0.00    -0.329 C  
HETATM    6  N   UNL     1     -12.030  14.914  68.065  1.00  0.00    -0.262 N  
HETATM    7  C   UNL     1     -10.391  15.283  66.782  1.00  0.00    -0.279 C  
HETATM    8  C   UNL     1     -12.346  14.237  70.460  1.00  0.00    -0.360 C  
HETATM    9  O   UNL     1     -12.541  15.553  70.697  1.00  0.00    -0.416 OA 
HETATM   10  O   UNL     1     -12.472  13.415  71.353  1.00  0.00    -0.320 OA 
HETATM   11  O   UNL     1     -10.762  16.654  68.922  1.00  0.00    -0.302 OA 
ENDROOT
BRANCH   3  12
HETATM   12  S   UNL     1     -11.498  11.179  69.245  1.00  0.00    -0.325 SA 
BRANCH  12  13
HETATM   13  C   UNL     1     -10.856  10.098  67.933  1.00  0.00    -0.284 C  
BRANCH  13  14
HETATM   14  C   UNL     1     -10.409   8.707  68.382  1.00  0.00    -0.201 C  
BRANCH  14  15
HETATM   15  N   UNL     1     -10.911   7.700  67.427  1.00  0.00    -0.546 NA 
HETATM   16  H   UNL     1     -11.225   7.935  66.486  1.00  0.00     0.000 HD 
BRANCH  15  17
HETATM   17  C   UNL     1     -10.919   6.503  67.889  1.00  0.00    -0.294 C  
HETATM   18  H1  UNL     1     -11.269   5.254  69.529  1.00  0.00     0.000 HD 
HETATM   19  N   UNL     1     -11.263   6.206  69.162  1.00  0.00    -0.406 NA 
HETATM   20  H2  UNL     1     -11.529   6.968  69.784  1.00  0.00     0.000 HD 
ENDBRANCH  15  17
ENDBRANCH  14  15
ENDBRANCH  13  14
ENDBRANCH  12  13
ENDBRANCH   3  12
BRANCH   7  21
HETATM   21  C   UNL     1     -10.289  16.263  65.628  1.00  0.00    -0.363 C  
HETATM   22  O   UNL     1     -10.385  17.577  66.170  1.00  0.00    -0.361 OA 
HETATM   23  C   UNL     1     -11.410  16.045  64.622  1.00  0.00    -0.312 C  
HETATM   24  H   UNL     1     -10.321  18.190  65.448  1.00  0.00     0.000 HD 
ENDBRANCH   7  21
TORSDOF 6
ENDMDL
MODEL       71
REMARK 921   NORMALIZED FREE ENERGY PREDICTED BY IDOCK:   -4.59 KCAL/MOL
REMARK 922        TOTAL FREE ENERGY PREDICTED BY IDOCK:   -7.41 KCAL/MOL
REMARK 923 INTER-LIGAND FREE ENERGY PREDICTED BY IDOCK:   -6.56 KCAL/MOL
REMARK 924 INTRA-LIGAND FREE ENERGY PREDICTED BY IDOCK:   -0.84 KCAL/MOL
REMARK 927      BINDING AFFINITY PREDICTED BY RF-SCORE:    0.00 PKD
ROOT
HETATM    1  C   UNL     1     -11.921  10.849  69.487  1.00  0.00    -0.330 C  
HETATM    2  C   UNL     1     -12.072  12.363  69.420  1.00  0.00    -0.237 C  
HETATM    3  C   UNL     1     -11.590  12.691  68.028  1.00  0.00    -0.343 C  
HETATM    4  C   UNL     1     -10.326   9.773  68.660  1.00  0.00    -0.201 C  
HETATM    5  C   UNL     1     -11.217  11.575  67.375  1.00  0.00    -0.304 C  
HETATM    6  N   UNL     1     -11.409  10.434  68.146  1.00  0.00    -0.269 N  
HETATM    7  C   UNL     1     -10.654  10.184  70.105  1.00  0.00    -0.337 C  
HETATM    8  C   UNL     1     -10.604  11.471  66.008  1.00  0.00    -0.261 C  
HETATM    9  O   UNL     1     -10.267  10.213  65.647  1.00  0.00    -0.275 OA 
HETATM   10  O   UNL     1     -10.472  12.402  65.230  1.00  0.00    -0.272 OA 
HETATM   11  O   UNL     1      -9.450   9.198  68.061  1.00  0.00    -0.140 OA 
ENDROOT
BRANCH   3  12
HETATM   12  S   UNL     1     -11.418  14.351  67.617  1.00  0.00    -0.364 SA 
BRANCH  12  13
HETATM   13  C   UNL     1     -10.642  15.134  69.063  1.00  0.00    -0.245 C  
BRANCH  13  14
HETATM   14  C   UNL     1     -11.516  16.130  69.824  1.00  0.00    -0.282 C  
BRANCH  14  15
HETATM   15  N   UNL     1     -11.601  15.724  71.239  1.00  0.00    -0.404 NA 
HETATM   16  H   UNL     1     -10.785  15.642  71.844  1.00  0.00     0.000 HD 
BRANCH  15  17
HETATM   17  C   UNL     1     -12.796  15.483  71.640  1.00  0.00    -0.446 C  
HETATM   18  H1  UNL     1     -14.815  15.287  71.131  1.00  0.00     0.000 HD 
HETATM   19  N   UNL     1     -13.865  15.478  70.812  1.00  0.00    -0.865 NA 
HETATM   20  H2  UNL     1     -13.714  15.675  69.824  1.00  0.00     0.000 HD 
ENDBRANCH  15  17
ENDBRANCH  14  15
ENDBRANCH  13  14
ENDBRANCH  12  13
ENDBRANCH   3  12
BRANCH   7  21
HETATM   21  C   UNL     1     -10.897   9.047  71.080  1.00  0.00    -0.294 C  
HETATM   22  O   UNL     1     -10.961   7.840  70.325  1.00  0.00    -0.249 OA 
HETATM   23  C   UNL     1     -12.203   9.244  71.836  1.00  0.00    -0.448 C  
HETATM   24  H   UNL     1     -11.113   7.129  70.935  1.00  0.00     0.000 HD 
ENDBRANCH   7  21
TORSDOF 6
ENDMDL
MODEL       72
REMARK 921   NORMALIZED FREE ENERGY PREDICTED BY IDOCK:   -4.53 KCAL/MOL
REMARK 922        TOTAL FREE ENERGY PREDICTED BY IDOCK:   -7.34 KCAL/MOL
REMARK 923 INTER-LIGAND FREE ENERGY PREDICTED BY IDOCK:   -6.68 KCAL/MOL
REMARK 924 INTRA-LIGAND FREE ENERGY PREDICTED BY IDOCK:   -0.66 KCAL/MOL
REMARK 927      BINDING AFFINITY PREDICTED BY RF-SCORE:    0.00 PKD
ROOT
HETATM    1  C   UNL     1     -10.133  17.493  68.023  1.00  0.00    -0.332 C  
HETATM    2  C   UNL     1     -10.819  16.157  68.283  1.00  0.00    -0.326 C  
HETATM    3  C   UNL     1      -9.707  15.159  68.076  1.00  0.00    -0.209 C  
HETATM    4  C   UNL     1      -8.702  17.827  66.532  1.00  0.00    -0.257 C  
HETATM    5  C   UNL     1      -8.558  15.782  67.751  1.00  0.00    -0.159 C  
HETATM    6  N   UNL     1      -8.706  17.164  67.729  1.00  0.00    -0.217 N  
HETATM    7  C   UNL     1     -10.195  18.181  66.627  1.00  0.00    -0.388 C  
HETATM    8  C   UNL     1      -7.245  15.153  67.383  1.00  0.00    -0.199 C  
HETATM    9  O   UNL     1      -6.287  16.040  67.033  1.00  0.00    -0.295 OA 
HETATM   10  O   UNL     1      -6.999  13.961  67.451  1.00  0.00    -0.175 OA 
HETATM   11  O   UNL     1      -7.798  17.929  65.739  1.00  0.00    -0.542 OA 
ENDROOT
BRANCH   3  12
HETATM   12  S   UNL     1     -10.123  13.491  68.088  1.00  0.00    -0.254 SA 
BRANCH  12  13
HETATM   13  C   UNL     1     -11.839  13.422  68.685  1.00  0.00    -0.362 C  
BRANCH  13  14
HETATM   14  C   UNL     1     -12.018  12.962  70.132  1.00  0.00    -0.301 C  
BRANCH  14  15
HETATM   15  N   UNL     1     -11.358  11.656  70.315  1.00  0.00    -0.468 NA 
HETATM   16  H   UNL     1     -10.446  11.551  70.758  1.00  0.00     0.000 HD 
BRANCH  15  17
HETATM   17  C   UNL     1     -12.036  10.663  69.866  1.00  0.00    -0.310 C  
HETATM   18  H1  UNL     1     -12.958   8.833  70.281  1.00  0.00     0.000 HD 
HETATM   19  N   UNL     1     -12.420   9.622  70.638  1.00  0.00    -0.491 NA 
HETATM   20  H2  UNL     1     -12.158   9.626  71.623  1.00  0.00     0.000 HD 
ENDBRANCH  15  17
ENDBRANCH  14  15
ENDBRANCH  13  14
ENDBRANCH  12  13
ENDBRANCH   3  12
BRANCH   7  21
HETATM   21  C   UNL     1     -10.528  19.662  66.620  1.00  0.00    -0.497 C  
HETATM   22  O   UNL     1      -9.549  20.318  65.818  1.00  0.00    -0.592 OA 
HETATM   23  C   UNL     1     -10.500  20.237  68.029  1.00  0.00    -0.308 C  
HETATM   24  H   UNL     1      -9.758  21.245  65.814  1.00  0.00     0.000 HD 
ENDBRANCH   7  21
TORSDOF 6
ENDMDL
MODEL       73
REMARK 921   NORMALIZED FREE ENERGY PREDICTED BY IDOCK:   -4.53 KCAL/MOL
REMARK 922        TOTAL FREE ENERGY PREDICTED BY IDOCK:   -7.33 KCAL/MOL
REMARK 923 INTER-LIGAND FREE ENERGY PREDICTED BY IDOCK:   -6.46 KCAL/MOL
REMARK 924 INTRA-LIGAND FREE ENERGY PREDICTED BY IDOCK:   -0.87 KCAL/MOL
REMARK 927      BINDING AFFINITY PREDICTED BY RF-SCORE:    0.00 PKD
ROOT
HETATM    1  C   UNL     1     -12.614  15.074  70.233  1.00  0.00    -0.317 C  
HETATM    2  C   UNL     1     -11.634  15.893  69.402  1.00  0.00    -0.352 C  
HETATM    3  C   UNL     1     -11.158  14.904  68.368  1.00  0.00    -0.273 C  
HETATM    4  C   UNL     1     -12.340  13.067  70.763  1.00  0.00    -0.310 C  
HETATM    5  C   UNL     1     -11.745  13.706  68.543  1.00  0.00    -0.357 C  
HETATM    6  N   UNL     1     -12.648  13.721  69.601  1.00  0.00    -0.118 N  
HETATM    7  C   UNL     1     -12.175  14.375  71.555  1.00  0.00    -0.406 C  
HETATM    8  C   UNL     1     -11.487  12.436  67.785  1.00  0.00    -0.324 C  
HETATM    9  O   UNL     1     -12.182  11.370  68.239  1.00  0.00    -0.588 OA 
HETATM   10  O   UNL     1     -10.777  12.345  66.797  1.00  0.00    -0.228 OA 
HETATM   11  O   UNL     1     -12.187  11.882  70.934  1.00  0.00    -0.357 OA 
ENDROOT
BRANCH   3  12
HETATM   12  S   UNL     1      -9.872  15.391  67.336  1.00  0.00    -0.217 SA 
BRANCH  12  13
HETATM   13  C   UNL     1      -8.373  14.638  68.036  1.00  0.00    -0.146 C  
BRANCH  13  14
HETATM   14  C   UNL     1      -7.766  15.364  69.236  1.00  0.00    -0.221 C  
BRANCH  14  15
HETATM   15  N   UNL     1      -8.015  16.813  69.107  1.00  0.00    -0.185 NA 
HETATM   16  H   UNL     1      -8.929  17.201  68.875  1.00  0.00     0.000 HD 
BRANCH  15  17
HETATM   17  C   UNL     1      -6.978  17.539  69.314  1.00  0.00    -0.172 C  
HETATM   18  H1  UNL     1      -4.891  17.636  69.414  1.00  0.00     0.000 HD 
HETATM   19  N   UNL     1      -5.716  17.059  69.250  1.00  0.00    -0.169 NA 
HETATM   20  H2  UNL     1      -5.582  16.073  69.028  1.00  0.00     0.000 HD 
ENDBRANCH  15  17
ENDBRANCH  14  15
ENDBRANCH  13  14
ENDBRANCH  12  13
ENDBRANCH   3  12
BRANCH   7  21
HETATM   21  C   UNL     1     -13.097  14.550  72.748  1.00  0.00    -0.497 C  
HETATM   22  O   UNL     1     -13.993  13.442  72.763  1.00  0.00    -0.724 OA 
HETATM   23  C   UNL     1     -13.890  15.844  72.642  1.00  0.00    -0.496 C  
HETATM   24  H   UNL     1     -14.570  13.551  73.510  1.00  0.00     0.000 HD 
ENDBRANCH   7  21
TORSDOF 6
ENDMDL
MODEL       74
REMARK 921   NORMALIZED FREE ENERGY PREDICTED BY IDOCK:   -4.52 KCAL/MOL
REMARK 922        TOTAL FREE ENERGY PREDICTED BY IDOCK:   -7.32 KCAL/MOL
REMARK 923 INTER-LIGAND FREE ENERGY PREDICTED BY IDOCK:   -6.75 KCAL/MOL
REMARK 924 INTRA-LIGAND FREE ENERGY PREDICTED BY IDOCK:   -0.57 KCAL/MOL
REMARK 927      BINDING AFFINITY PREDICTED BY RF-SCORE:    0.00 PKD
ROOT
HETATM    1  C   UNL     1     -10.598   8.390  70.923  1.00  0.00    -0.204 C  
HETATM    2  C   UNL     1     -10.048   9.069  69.675  1.00  0.00    -0.202 C  
HETATM    3  C   UNL     1     -10.736  10.411  69.688  1.00  0.00    -0.265 C  
HETATM    4  C   UNL     1     -12.581   8.533  71.581  1.00  0.00    -0.333 C  
HETATM    5  C   UNL     1     -11.554  10.521  70.752  1.00  0.00    -0.338 C  
HETATM    6  N   UNL     1     -11.512   9.387  71.557  1.00  0.00    -0.376 N  
HETATM    7  C   UNL     1     -11.815   7.418  70.851  1.00  0.00    -0.320 C  
HETATM    8  C   UNL     1     -12.479  11.655  71.087  1.00  0.00    -0.307 C  
HETATM    9  O   UNL     1     -13.233  11.445  72.190  1.00  0.00    -0.490 OA 
HETATM   10  O   UNL     1     -12.526  12.717  70.490  1.00  0.00    -0.284 OA 
HETATM   11  O   UNL     1     -13.700   8.751  71.977  1.00  0.00    -0.389 OA 
ENDROOT
BRANCH   3  12
HETATM   12  S   UNL     1     -10.528  11.425  68.316  1.00  0.00    -0.208 SA 
BRANCH  12  13
HETATM   13  C   UNL     1     -10.687  10.331  66.873  1.00  0.00    -0.184 C  
BRANCH  13  14
HETATM   14  C   UNL     1      -9.679  10.568  65.748  1.00  0.00    -0.223 C  
BRANCH  14  15
HETATM   15  N   UNL     1     -10.314  10.268  64.451  1.00  0.00    -0.370 NA 
HETATM   16  H   UNL     1     -10.601   9.328  64.177  1.00  0.00     0.000 HD 
BRANCH  15  17
HETATM   17  C   UNL     1     -10.472  11.295  63.698  1.00  0.00    -0.405 C  
HETATM   18  H1  UNL     1     -11.791  12.461  62.571  1.00  0.00     0.000 HD 
HETATM   19  N   UNL     1     -11.666  11.645  63.170  1.00  0.00    -0.881 NA 
HETATM   20  H2  UNL     1     -12.478  11.066  63.379  1.00  0.00     0.000 HD 
ENDBRANCH  15  17
ENDBRANCH  14  15
ENDBRANCH  13  14
ENDBRANCH  12  13
ENDBRANCH   3  12
BRANCH   7  21
HETATM   21  C   UNL     1     -11.675   6.107  71.601  1.00  0.00    -0.228 C  
HETATM   22  O   UNL     1     -11.891   6.378  72.984  1.00  0.00    -0.452 OA 
HETATM   23  C   UNL     1     -10.287   5.511  71.411  1.00  0.00    -0.291 C  
HETATM   24  H   UNL     1     -11.803   5.557  73.453  1.00  0.00     0.000 HD 
ENDBRANCH   7  21
TORSDOF 6
ENDMDL
MODEL       75
REMARK 921   NORMALIZED FREE ENERGY PREDICTED BY IDOCK:   -4.49 KCAL/MOL
REMARK 922        TOTAL FREE ENERGY PREDICTED BY IDOCK:   -7.27 KCAL/MOL
REMARK 923 INTER-LIGAND FREE ENERGY PREDICTED BY IDOCK:   -6.34 KCAL/MOL
REMARK 924 INTRA-LIGAND FREE ENERGY PREDICTED BY IDOCK:   -0.93 KCAL/MOL
REMARK 927      BINDING AFFINITY PREDICTED BY RF-SCORE:    0.00 PKD
ROOT
HETATM    1  C   UNL     1     -11.824  13.753  66.073  1.00  0.00    -0.390 C  
HETATM    2  C   UNL     1     -11.334  12.346  65.755  1.00  0.00    -0.393 C  
HETATM    3  C   UNL     1     -11.320  11.678  67.107  1.00  0.00    -0.306 C  
HETATM    4  C   UNL     1     -11.274  14.852  67.769  1.00  0.00    -0.321 C  
HETATM    5  C   UNL     1     -11.729  12.529  68.067  1.00  0.00    -0.355 C  
HETATM    6  N   UNL     1     -12.081  13.769  67.545  1.00  0.00    -0.373 N  
HETATM    7  C   UNL     1     -10.829  14.930  66.299  1.00  0.00    -0.331 C  
HETATM    8  C   UNL     1     -11.780  12.288  69.548  1.00  0.00    -0.332 C  
HETATM    9  O   UNL     1     -12.169  13.362  70.270  1.00  0.00    -0.339 OA 
HETATM   10  O   UNL     1     -11.569  11.215  70.088  1.00  0.00    -0.303 OA 
HETATM   11  O   UNL     1     -11.019  15.387  68.820  1.00  0.00    -0.241 OA 
ENDROOT
BRANCH   3  12
HETATM   12  S   UNL     1     -10.630  10.107  67.211  1.00  0.00    -0.249 SA 
BRANCH  12  13
HETATM   13  C   UNL     1      -8.888  10.307  66.731  1.00  0.00    -0.133 C  
BRANCH  13  14
HETATM   14  C   UNL     1      -8.058  11.230  67.623  1.00  0.00    -0.119 C  
BRANCH  14  15
HETATM   15  N   UNL     1      -7.758  12.476  66.893  1.00  0.00    -0.382 NA 
HETATM   16  H   UNL     1      -7.489  12.492  65.909  1.00  0.00     0.000 HD 
BRANCH  15  17
HETATM   17  C   UNL     1      -7.866  13.537  67.607  1.00  0.00    -0.175 C  
HETATM   18  H1  UNL     1      -8.335  14.361  69.470  1.00  0.00     0.000 HD 
HETATM   19  N   UNL     1      -8.249  13.518  68.903  1.00  0.00    -0.351 NA 
HETATM   20  H2  UNL     1      -8.462  12.618  69.333  1.00  0.00     0.000 HD 
ENDBRANCH  15  17
ENDBRANCH  14  15
ENDBRANCH  13  14
ENDBRANCH  12  13
ENDBRANCH   3  12
BRANCH   7  21
HETATM   21  C   UNL     1     -11.145  16.228  65.578  1.00  0.00    -0.033 C  
HETATM   22  O   UNL     1     -10.850  16.034  64.197  1.00  0.00    -0.884 OA 
HETATM   23  C   UNL     1     -10.305  17.375  66.121  1.00  0.00    -0.329 C  
HETATM   24  H   UNL     1     -11.048  16.846  63.746  1.00  0.00     0.000 HD 
ENDBRANCH   7  21
TORSDOF 6
ENDMDL
MODEL       76
REMARK 921   NORMALIZED FREE ENERGY PREDICTED BY IDOCK:   -4.47 KCAL/MOL
REMARK 922        TOTAL FREE ENERGY PREDICTED BY IDOCK:   -7.25 KCAL/MOL
REMARK 923 INTER-LIGAND FREE ENERGY PREDICTED BY IDOCK:   -6.45 KCAL/MOL
REMARK 924 INTRA-LIGAND FREE ENERGY PREDICTED BY IDOCK:   -0.80 KCAL/MOL
REMARK 927      BINDING AFFINITY PREDICTED BY RF-SCORE:    0.00 PKD
ROOT
HETATM    1  C   UNL     1     -10.613  11.772  69.186  1.00  0.00    -0.069 C  
HETATM    2  C   UNL     1     -10.657  10.531  70.069  1.00  0.00    -0.223 C  
HETATM    3  C   UNL     1     -10.420   9.409  69.089  1.00  0.00    -0.217 C  
HETATM    4  C   UNL     1     -11.419  11.890  67.257  1.00  0.00    -0.317 C  
HETATM    5  C   UNL     1     -10.261   9.887  67.841  1.00  0.00    -0.193 C  
HETATM    6  N   UNL     1     -10.326  11.276  67.806  1.00  0.00    -0.178 N  
HETATM    7  C   UNL     1     -11.915  12.411  68.615  1.00  0.00    -0.272 C  
HETATM    8  C   UNL     1     -10.090   9.104  66.572  1.00  0.00    -0.287 C  
HETATM    9  O   UNL     1     -10.026   9.866  65.457  1.00  0.00    -0.304 OA 
HETATM   10  O   UNL     1      -9.942   7.895  66.512  1.00  0.00    -0.243 OA 
HETATM   11  O   UNL     1     -11.791  11.862  66.109  1.00  0.00    -0.528 OA 
ENDROOT
BRANCH   3  12
HETATM   12  S   UNL     1     -10.589   7.799  69.669  1.00  0.00    -0.225 SA 
BRANCH  12  13
HETATM   13  C   UNL     1     -10.417   7.910  71.475  1.00  0.00    -0.210 C  
BRANCH  13  14
HETATM   14  C   UNL     1     -11.690   7.648  72.278  1.00  0.00    -0.324 C  
BRANCH  14  15
HETATM   15  N   UNL     1     -12.866   7.873  71.418  1.00  0.00    -0.434 NA 
HETATM   16  H   UNL     1     -12.990   7.417  70.514  1.00  0.00     0.000 HD 
BRANCH  15  17
HETATM   17  C   UNL     1     -13.720   8.696  71.909  1.00  0.00    -0.421 C  
HETATM   18  H1  UNL     1     -14.977   9.177  73.509  1.00  0.00     0.000 HD 
HETATM   19  N   UNL     1     -14.298   8.524  73.119  1.00  0.00    -0.909 NA 
HETATM   20  H2  UNL     1     -14.044   7.703  73.666  1.00  0.00     0.000 HD 
ENDBRANCH  15  17
ENDBRANCH  14  15
ENDBRANCH  13  14
ENDBRANCH  12  13
ENDBRANCH   3  12
BRANCH   7  21
HETATM   21  C   UNL     1     -12.038  13.918  68.744  1.00  0.00    -0.309 C  
HETATM   22  O   UNL     1     -12.581  14.411  67.522  1.00  0.00    -0.529 OA 
HETATM   23  C   UNL     1     -10.679  14.560  68.992  1.00  0.00    -0.258 C  
HETATM   24  H   UNL     1     -12.658  15.354  67.603  1.00  0.00     0.000 HD 
ENDBRANCH   7  21
TORSDOF 6
ENDMDL
MODEL       77
REMARK 921   NORMALIZED FREE ENERGY PREDICTED BY IDOCK:   -4.45 KCAL/MOL
REMARK 922        TOTAL FREE ENERGY PREDICTED BY IDOCK:   -7.22 KCAL/MOL
REMARK 923 INTER-LIGAND FREE ENERGY PREDICTED BY IDOCK:   -6.50 KCAL/MOL
REMARK 924 INTRA-LIGAND FREE ENERGY PREDICTED BY IDOCK:   -0.72 KCAL/MOL
REMARK 927      BINDING AFFINITY PREDICTED BY RF-SCORE:    0.00 PKD
ROOT
HETATM    1  C   UNL     1     -11.802  12.688  66.505  1.00  0.00    -0.396 C  
HETATM    2  C   UNL     1     -11.694  11.499  67.451  1.00  0.00    -0.231 C  
HETATM    3  C   UNL     1     -11.826  12.134  68.812  1.00  0.00    -0.303 C  
HETATM    4  C   UNL     1     -10.958  14.572  66.859  1.00  0.00    -0.316 C  
HETATM    5  C   UNL     1     -11.987  13.467  68.706  1.00  0.00    -0.324 C  
HETATM    6  N   UNL     1     -12.019  13.881  67.379  1.00  0.00    -0.403 N  
HETATM    7  C   UNL     1     -10.535  13.405  65.951  1.00  0.00    -0.287 C  
HETATM    8  C   UNL     1     -12.070  14.474  69.817  1.00  0.00    -0.331 C  
HETATM    9  O   UNL     1     -12.159  15.755  69.395  1.00  0.00    -0.354 OA 
HETATM   10  O   UNL     1     -12.131  14.200  71.004  1.00  0.00    -0.337 OA 
HETATM   11  O   UNL     1     -10.556  15.666  67.171  1.00  0.00    -0.299 OA 
ENDROOT
BRANCH   3  12
HETATM   12  S   UNL     1     -11.560  11.135  70.185  1.00  0.00    -0.302 SA 
BRANCH  12  13
HETATM   13  C   UNL     1     -10.326   9.907  69.662  1.00  0.00    -0.241 C  
BRANCH  13  14
HETATM   14  C   UNL     1      -9.618   9.158  70.791  1.00  0.00    -0.275 C  
BRANCH  14  15
HETATM   15  N   UNL     1      -8.280   9.741  71.001  1.00  0.00    -0.314 NA 
HETATM   16  H   UNL     1      -7.865   9.862  71.925  1.00  0.00     0.000 HD 
BRANCH  15  17
HETATM   17  C   UNL     1      -7.685  10.083  69.917  1.00  0.00    -0.175 C  
HETATM   18  H1  UNL     1      -5.939  10.001  68.770  1.00  0.00     0.000 HD 
HETATM   19  N   UNL     1      -6.412   9.730  69.631  1.00  0.00    -0.045 NA 
HETATM   20  H2  UNL     1      -5.901   9.166  70.309  1.00  0.00     0.000 HD 
ENDBRANCH  15  17
ENDBRANCH  14  15
ENDBRANCH  13  14
ENDBRANCH  12  13
ENDBRANCH   3  12
BRANCH   7  21
HETATM   21  C   UNL     1     -10.521  13.694  64.461  1.00  0.00    -0.390 C  
HETATM   22  O   UNL     1     -11.065  14.998  64.272  1.00  0.00    -0.635 OA 
HETATM   23  C   UNL     1     -11.359  12.678  63.698  1.00  0.00    -0.544 C  
HETATM   24  H   UNL     1     -11.057  15.178  63.339  1.00  0.00     0.000 HD 
ENDBRANCH   7  21
TORSDOF 6
ENDMDL
MODEL       78
REMARK 921   NORMALIZED FREE ENERGY PREDICTED BY IDOCK:   -4.43 KCAL/MOL
REMARK 922        TOTAL FREE ENERGY PREDICTED BY IDOCK:   -7.20 KCAL/MOL
REMARK 923 INTER-LIGAND FREE ENERGY PREDICTED BY IDOCK:   -5.94 KCAL/MOL
REMARK 924 INTRA-LIGAND FREE ENERGY PREDICTED BY IDOCK:   -1.27 KCAL/MOL
REMARK 927      BINDING AFFINITY PREDICTED BY RF-SCORE:    0.00 PKD
ROOT
HETATM    1  C   UNL     1     -11.835  11.444  69.522  1.00  0.00    -0.357 C  
HETATM    2  C   UNL     1     -11.723  12.895  69.973  1.00  0.00    -0.284 C  
HETATM    3  C   UNL     1     -11.875  13.664  68.684  1.00  0.00    -0.374 C  
HETATM    4  C   UNL     1     -11.013  10.680  67.754  1.00  0.00    -0.306 C  
HETATM    5  C   UNL     1     -12.047  12.827  67.644  1.00  0.00    -0.140 C  
HETATM    6  N   UNL     1     -12.072  11.496  68.048  1.00  0.00    -0.081 N  
HETATM    7  C   UNL     1     -10.569  10.585  69.223  1.00  0.00    -0.265 C  
HETATM    8  C   UNL     1     -12.152  13.179  66.188  1.00  0.00    -0.417 C  
HETATM    9  O   UNL     1     -12.249  12.110  65.366  1.00  0.00    -0.515 OA 
HETATM   10  O   UNL     1     -12.221  14.315  65.748  1.00  0.00    -0.408 OA 
HETATM   11  O   UNL     1     -10.624  10.324  66.668  1.00  0.00    -0.223 OA 
ENDROOT
BRANCH   3  12
HETATM   12  S   UNL     1     -11.611  15.362  68.735  1.00  0.00    -0.368 SA 
BRANCH  12  13
HETATM   13  C   UNL     1      -9.900  15.606  68.170  1.00  0.00    -0.212 C  
BRANCH  13  14
HETATM   14  C   UNL     1      -8.950  14.433  68.412  1.00  0.00    -0.188 C  
BRANCH  14  15
HETATM   15  N   UNL     1      -8.628  13.792  67.123  1.00  0.00    -0.265 NA 
HETATM   16  H   UNL     1      -8.894  14.189  66.223  1.00  0.00     0.000 HD 
BRANCH  15  17
HETATM   17  C   UNL     1      -7.982  12.689  67.238  1.00  0.00    -0.166 C  
HETATM   18  H1  UNL     1      -7.396  10.894  66.340  1.00  0.00     0.000 HD 
HETATM   19  N   UNL     1      -7.909  11.771  66.249  1.00  0.00    -0.378 NA 
HETATM   20  H2  UNL     1      -8.388  11.964  65.370  1.00  0.00     0.000 HD 
ENDBRANCH  15  17
ENDBRANCH  14  15
ENDBRANCH  13  14
ENDBRANCH  12  13
ENDBRANCH   3  12
BRANCH   7  21
HETATM   21  C   UNL     1     -10.545   9.190  69.821  1.00  0.00    -0.229 C  
HETATM   22  O   UNL     1     -10.838   8.269  68.774  1.00  0.00    -0.415 OA 
HETATM   23  C   UNL     1     -11.582   9.050  70.926  1.00  0.00    -0.344 C  
HETATM   24  H   UNL     1     -10.822   7.397  69.148  1.00  0.00     0.000 HD 
ENDBRANCH   7  21
TORSDOF 6
ENDMDL
MODEL       79
REMARK 921   NORMALIZED FREE ENERGY PREDICTED BY IDOCK:   -4.43 KCAL/MOL
REMARK 922        TOTAL FREE ENERGY PREDICTED BY IDOCK:   -7.20 KCAL/MOL
REMARK 923 INTER-LIGAND FREE ENERGY PREDICTED BY IDOCK:   -6.81 KCAL/MOL
REMARK 924 INTRA-LIGAND FREE ENERGY PREDICTED BY IDOCK:   -0.39 KCAL/MOL
REMARK 927      BINDING AFFINITY PREDICTED BY RF-SCORE:    0.00 PKD
ROOT
HETATM    1  C   UNL     1     -12.223  13.454  70.153  1.00  0.00    -0.315 C  
HETATM    2  C   UNL     1     -11.162  14.505  70.451  1.00  0.00    -0.118 C  
HETATM    3  C   UNL     1     -10.519  14.730  69.105  1.00  0.00    -0.239 C  
HETATM    4  C   UNL     1     -11.967  11.841  68.842  1.00  0.00    -0.271 C  
HETATM    5  C   UNL     1     -11.091  13.954  68.165  1.00  0.00    -0.256 C  
HETATM    6  N   UNL     1     -12.130  13.191  68.685  1.00  0.00    -0.268 N  
HETATM    7  C   UNL     1     -11.950  11.936  70.376  1.00  0.00    -0.400 C  
HETATM    8  C   UNL     1     -10.693  13.813  66.724  1.00  0.00    -0.276 C  
HETATM    9  O   UNL     1     -11.414  12.897  66.039  1.00  0.00    -0.310 OA 
HETATM   10  O   UNL     1      -9.853  14.495  66.162  1.00  0.00    -0.289 OA 
HETATM   11  O   UNL     1     -11.805  11.005  67.987  1.00  0.00    -0.593 OA 
ENDROOT
BRANCH   3  12
HETATM   12  S   UNL     1      -9.118  15.724  69.050  1.00  0.00    -0.260 SA 
BRANCH  12  13
HETATM   13  C   UNL     1      -9.620  17.223  68.152  1.00  0.00    -0.283 C  
BRANCH  13  14
HETATM   14  C   UNL     1      -8.478  18.113  67.661  1.00  0.00    -0.244 C  
BRANCH  14  15
HETATM   15  N   UNL     1      -8.733  18.508  66.262  1.00  0.00    -0.447 NA 
HETATM   16  H   UNL     1      -8.450  17.941  65.464  1.00  0.00     0.000 HD 
BRANCH  15  17
HETATM   17  C   UNL     1      -9.343  19.631  66.141  1.00  0.00    -0.351 C  
HETATM   18  H1  UNL     1     -11.122  20.623  65.670  1.00  0.00     0.000 HD 
HETATM   19  N   UNL     1     -10.637  19.731  65.766  1.00  0.00    -0.498 NA 
HETATM   20  H2  UNL     1     -11.153  18.874  65.570  1.00  0.00     0.000 HD 
ENDBRANCH  15  17
ENDBRANCH  14  15
ENDBRANCH  13  14
ENDBRANCH  12  13
ENDBRANCH   3  12
BRANCH   7  21
HETATM   21  C   UNL     1     -13.032  11.156  71.102  1.00  0.00    -0.296 C  
HETATM   22  O   UNL     1     -13.417  11.918  72.243  1.00  0.00    -0.602 OA 
HETATM   23  C   UNL     1     -12.521   9.794  71.548  1.00  0.00    -0.495 C  
HETATM   24  H   UNL     1     -14.094  11.430  72.697  1.00  0.00     0.000 HD 
ENDBRANCH   7  21
TORSDOF 6
ENDMDL
MODEL       80
REMARK 921   NORMALIZED FREE ENERGY PREDICTED BY IDOCK:   -4.43 KCAL/MOL
REMARK 922        TOTAL FREE ENERGY PREDICTED BY IDOCK:   -7.20 KCAL/MOL
REMARK 923 INTER-LIGAND FREE ENERGY PREDICTED BY IDOCK:   -6.47 KCAL/MOL
REMARK 924 INTRA-LIGAND FREE ENERGY PREDICTED BY IDOCK:   -0.73 KCAL/MOL
REMARK 927      BINDING AFFINITY PREDICTED BY RF-SCORE:    0.00 PKD
ROOT
HETATM    1  C   UNL     1     -11.382  10.164  68.813  1.00  0.00    -0.115 C  
HETATM    2  C   UNL     1     -11.185  11.313  67.833  1.00  0.00    -0.353 C  
HETATM    3  C   UNL     1     -10.379  10.680  66.726  1.00  0.00    -0.245 C  
HETATM    4  C   UNL     1      -9.927   8.731  69.277  1.00  0.00    -0.194 C  
HETATM    5  C   UNL     1     -10.135   9.383  66.992  1.00  0.00    -0.240 C  
HETATM    6  N   UNL     1     -10.718   8.981  68.188  1.00  0.00    -0.160 N  
HETATM    7  C   UNL     1     -10.437   9.967  70.037  1.00  0.00    -0.337 C  
HETATM    8  C   UNL     1      -9.302   8.423  66.194  1.00  0.00    -0.201 C  
HETATM    9  O   UNL     1      -9.181   7.198  66.754  1.00  0.00    -0.145 OA 
HETATM   10  O   UNL     1      -8.820   8.660  65.098  1.00  0.00    -0.177 OA 
HETATM   11  O   UNL     1      -9.096   7.867  69.413  1.00  0.00    -0.145 OA 
ENDROOT
BRANCH   3  12
HETATM   12  S   UNL     1      -9.773  11.714  65.493  1.00  0.00    -0.223 SA 
BRANCH  12  13
HETATM   13  C   UNL     1     -11.029  11.692  64.179  1.00  0.00    -0.376 C  
BRANCH  13  14
HETATM   14  C   UNL     1     -11.616  13.052  63.802  1.00  0.00    -0.457 C  
BRANCH  14  15
HETATM   15  N   UNL     1     -11.713  13.893  65.010  1.00  0.00    -0.343 NA 
HETATM   16  H   UNL     1     -12.052  13.543  65.906  1.00  0.00     0.000 HD 
BRANCH  15  17
HETATM   17  C   UNL     1     -11.334  15.106  64.831  1.00  0.00    -0.399 C  
HETATM   18  H1  UNL     1     -11.546  16.869  63.728  1.00  0.00     0.000 HD 
HETATM   19  N   UNL     1     -11.848  15.906  63.871  1.00  0.00    -1.258 NA 
HETATM   20  H2  UNL     1     -12.571  15.528  63.260  1.00  0.00     0.000 HD 
ENDBRANCH  15  17
ENDBRANCH  14  15
ENDBRANCH  13  14
ENDBRANCH  12  13
ENDBRANCH   3  12
BRANCH   7  21
HETATM   21  C   UNL     1     -11.108   9.697  71.371  1.00  0.00    -0.326 C  
HETATM   22  O   UNL     1     -11.217   8.284  71.518  1.00  0.00    -0.244 OA 
HETATM   23  C   UNL     1     -12.496  10.322  71.422  1.00  0.00    -0.528 C  
HETATM   24  H   UNL     1     -11.637   8.115  72.353  1.00  0.00     0.000 HD 
ENDBRANCH   7  21
TORSDOF 6
ENDMDL
MODEL       81
REMARK 921   NORMALIZED FREE ENERGY PREDICTED BY IDOCK:   -4.42 KCAL/MOL
REMARK 922        TOTAL FREE ENERGY PREDICTED BY IDOCK:   -7.19 KCAL/MOL
REMARK 923 INTER-LIGAND FREE ENERGY PREDICTED BY IDOCK:   -6.49 KCAL/MOL
REMARK 924 INTRA-LIGAND FREE ENERGY PREDICTED BY IDOCK:   -0.70 KCAL/MOL
REMARK 927      BINDING AFFINITY PREDICTED BY RF-SCORE:    0.00 PKD
ROOT
HETATM    1  C   UNL     1      -9.641  14.992  65.992  1.00  0.00    -0.325 C  
HETATM    2  C   UNL     1      -9.479  13.773  66.892  1.00  0.00    -0.265 C  
HETATM    3  C   UNL     1     -10.210  12.693  66.135  1.00  0.00    -0.258 C  
HETATM    4  C   UNL     1     -11.380  15.465  64.927  1.00  0.00    -0.363 C  
HETATM    5  C   UNL     1     -10.718  13.173  64.984  1.00  0.00    -0.323 C  
HETATM    6  N   UNL     1     -10.403  14.515  64.799  1.00  0.00    -0.375 N  
HETATM    7  C   UNL     1     -10.779  16.030  66.224  1.00  0.00    -0.234 C  
HETATM    8  C   UNL     1     -11.579  12.452  63.988  1.00  0.00    -0.413 C  
HETATM    9  O   UNL     1     -11.999  13.223  62.960  1.00  0.00    -0.373 OA 
HETATM   10  O   UNL     1     -11.840  11.261  64.024  1.00  0.00    -0.031 OA 
HETATM   11  O   UNL     1     -12.363  15.620  64.244  1.00  0.00    -0.467 OA 
ENDROOT
BRANCH   3  12
HETATM   12  S   UNL     1     -10.429  11.180  66.921  1.00  0.00    -0.257 SA 
BRANCH  12  13
HETATM   13  C   UNL     1     -10.335  11.537  68.701  1.00  0.00    -0.210 C  
BRANCH  13  14
HETATM   14  C   UNL     1     -11.666  11.516  69.451  1.00  0.00    -0.346 C  
BRANCH  14  15
HETATM   15  N   UNL     1     -11.501  10.784  70.721  1.00  0.00    -0.387 NA 
HETATM   16  H   UNL     1     -12.063  10.974  71.549  1.00  0.00     0.000 HD 
BRANCH  15  17
HETATM   17  C   UNL     1     -10.584   9.887  70.688  1.00  0.00    -0.271 C  
HETATM   18  H1  UNL     1      -9.688   8.254  71.639  1.00  0.00     0.000 HD 
HETATM   19  N   UNL     1     -10.416   8.968  71.665  1.00  0.00    -0.337 NA 
HETATM   20  H2  UNL     1     -11.048   8.989  72.465  1.00  0.00     0.000 HD 
ENDBRANCH  15  17
ENDBRANCH  14  15
ENDBRANCH  13  14
ENDBRANCH  12  13
ENDBRANCH   3  12
BRANCH   7  21
HETATM   21  C   UNL     1     -10.375  17.493  66.186  1.00  0.00    -0.329 C  
HETATM   22  O   UNL     1     -10.812  18.027  64.939  1.00  0.00    -0.715 OA 
HETATM   23  C   UNL     1      -8.865  17.647  66.304  1.00  0.00    -0.209 C  
HETATM   24  H   UNL     1     -10.559  18.942  64.916  1.00  0.00     0.000 HD 
ENDBRANCH   7  21
TORSDOF 6
ENDMDL
MODEL       82
REMARK 921   NORMALIZED FREE ENERGY PREDICTED BY IDOCK:   -4.39 KCAL/MOL
REMARK 922        TOTAL FREE ENERGY PREDICTED BY IDOCK:   -7.14 KCAL/MOL
REMARK 923 INTER-LIGAND FREE ENERGY PREDICTED BY IDOCK:   -6.70 KCAL/MOL
REMARK 924 INTRA-LIGAND FREE ENERGY PREDICTED BY IDOCK:   -0.44 KCAL/MOL
REMARK 927      BINDING AFFINITY PREDICTED BY RF-SCORE:    0.00 PKD
ROOT
HETATM    1  C   UNL     1      -9.799   8.540  72.261  1.00  0.00    -0.313 C  
HETATM    2  C   UNL     1      -8.914   8.645  71.025  1.00  0.00    -0.242 C  
HETATM    3  C   UNL     1      -9.763   9.444  70.067  1.00  0.00    -0.224 C  
HETATM    4  C   UNL     1     -11.873   8.250  72.220  1.00  0.00    -0.388 C  
HETATM    5  C   UNL     1     -10.946   9.763  70.626  1.00  0.00    -0.331 C  
HETATM    6  N   UNL     1     -11.043   9.300  71.934  1.00  0.00    -0.331 N  
HETATM    7  C   UNL     1     -10.703   7.295  72.511  1.00  0.00    -0.301 C  
HETATM    8  C   UNL     1     -12.103  10.474  69.986  1.00  0.00    -0.274 C  
HETATM    9  O   UNL     1     -13.190  10.587  70.780  1.00  0.00    -0.335 OA 
HETATM   10  O   UNL     1     -12.082  10.984  68.878  1.00  0.00    -0.479 OA 
HETATM   11  O   UNL     1     -13.075   8.204  72.134  1.00  0.00    -0.304 OA 
ENDROOT
BRANCH   3  12
HETATM   12  S   UNL     1      -9.191   9.621  68.456  1.00  0.00    -0.139 SA 
BRANCH  12  13
HETATM   13  C   UNL     1      -9.257   7.955  67.730  1.00  0.00    -0.137 C  
BRANCH  13  14
HETATM   14  C   UNL     1     -10.275   7.762  66.607  1.00  0.00    -0.218 C  
BRANCH  14  15
HETATM   15  N   UNL     1     -11.319   6.818  67.050  1.00  0.00    -0.778 NA 
HETATM   16  H   UNL     1     -12.199   6.689  66.552  1.00  0.00     0.000 HD 
BRANCH  15  17
HETATM   17  C   UNL     1     -11.018   6.174  68.119  1.00  0.00    -0.307 C  
HETATM   18  H1  UNL     1     -11.367   5.899  70.162  1.00  0.00     0.000 HD 
HETATM   19  N   UNL     1     -11.606   6.411  69.313  1.00  0.00    -0.607 NA 
HETATM   20  H2  UNL     1     -12.321   7.134  69.366  1.00  0.00     0.000 HD 
ENDBRANCH  15  17
ENDBRANCH  14  15
ENDBRANCH  13  14
ENDBRANCH  12  13
ENDBRANCH   3  12
BRANCH   7  21
HETATM   21  C   UNL     1     -10.661   6.701  73.907  1.00  0.00    -0.242 C  
HETATM   22  O   UNL     1      -9.435   7.108  74.510  1.00  0.00    -0.412 OA 
HETATM   23  C   UNL     1     -10.724   5.181  73.859  1.00  0.00    -0.342 C  
HETATM   24  H   UNL     1      -9.409   6.737  75.383  1.00  0.00     0.000 HD 
ENDBRANCH   7  21
TORSDOF 6
ENDMDL
MODEL       83
REMARK 921   NORMALIZED FREE ENERGY PREDICTED BY IDOCK:   -4.36 KCAL/MOL
REMARK 922        TOTAL FREE ENERGY PREDICTED BY IDOCK:   -7.11 KCAL/MOL
REMARK 923 INTER-LIGAND FREE ENERGY PREDICTED BY IDOCK:   -5.84 KCAL/MOL
REMARK 924 INTRA-LIGAND FREE ENERGY PREDICTED BY IDOCK:   -1.27 KCAL/MOL
REMARK 927      BINDING AFFINITY PREDICTED BY RF-SCORE:    0.00 PKD
ROOT
HETATM    1  C   UNL     1     -10.571  14.715  66.230  1.00  0.00    -0.306 C  
HETATM    2  C   UNL     1     -11.108  15.953  66.937  1.00  0.00    -0.082 C  
HETATM    3  C   UNL     1      -9.858  16.610  67.468  1.00  0.00    -0.253 C  
HETATM    4  C   UNL     1      -8.994  13.531  66.934  1.00  0.00    -0.209 C  
HETATM    5  C   UNL     1      -8.765  15.897  67.138  1.00  0.00    -0.200 C  
HETATM    6  N   UNL     1      -9.086  14.778  66.377  1.00  0.00    -0.262 N  
HETATM    7  C   UNL     1     -10.519  13.330  66.942  1.00  0.00    -0.261 C  
HETATM    8  C   UNL     1      -7.342  16.157  67.541  1.00  0.00    -0.159 C  
HETATM    9  O   UNL     1      -6.466  15.220  67.114  1.00  0.00    -0.299 OA 
HETATM   10  O   UNL     1      -6.955  17.150  68.135  1.00  0.00    -0.169 OA 
HETATM   11  O   UNL     1      -8.006  12.959  67.325  1.00  0.00    -0.174 OA 
ENDROOT
BRANCH   3  12
HETATM   12  S   UNL     1     -10.051  17.962  68.512  1.00  0.00    -0.397 SA 
BRANCH  12  13
HETATM   13  C   UNL     1     -10.570  19.335  67.439  1.00  0.00    -0.487 C  
BRANCH  13  14
HETATM   14  C   UNL     1      -9.525  20.427  67.211  1.00  0.00    -0.431 C  
BRANCH  14  15
HETATM   15  N   UNL     1      -8.178  19.826  67.227  1.00  0.00    -0.294 NA 
HETATM   16  H   UNL     1      -7.798  19.335  68.036  1.00  0.00     0.000 HD 
BRANCH  15  17
HETATM   17  C   UNL     1      -7.528  19.977  66.131  1.00  0.00    -0.302 C  
HETATM   18  H1  UNL     1      -6.618  19.060  64.487  1.00  0.00     0.000 HD 
HETATM   19  N   UNL     1      -7.135  18.940  65.358  1.00  0.00    -0.503 NA 
HETATM   20  H2  UNL     1      -7.366  17.995  65.660  1.00  0.00     0.000 HD 
ENDBRANCH  15  17
ENDBRANCH  14  15
ENDBRANCH  13  14
ENDBRANCH  12  13
ENDBRANCH   3  12
BRANCH   7  21
HETATM   21  C   UNL     1     -11.036  12.145  66.148  1.00  0.00    -0.312 C  
HETATM   22  O   UNL     1      -9.935  11.594  65.431  1.00  0.00    -0.234 OA 
HETATM   23  C   UNL     1     -12.119  12.573  65.168  1.00  0.00    -0.503 C  
HETATM   24  H   UNL     1     -10.259  10.852  64.934  1.00  0.00     0.000 HD 
ENDBRANCH   7  21
TORSDOF 6
ENDMDL
MODEL       84
REMARK 921   NORMALIZED FREE ENERGY PREDICTED BY IDOCK:   -4.35 KCAL/MOL
REMARK 922        TOTAL FREE ENERGY PREDICTED BY IDOCK:   -7.09 KCAL/MOL
REMARK 923 INTER-LIGAND FREE ENERGY PREDICTED BY IDOCK:   -6.26 KCAL/MOL
REMARK 924 INTRA-LIGAND FREE ENERGY PREDICTED BY IDOCK:   -0.84 KCAL/MOL
REMARK 927      BINDING AFFINITY PREDICTED BY RF-SCORE:    0.00 PKD
ROOT
HETATM    1  C   UNL     1     -10.993  12.852  65.754  1.00  0.00    -0.278 C  
HETATM    2  C   UNL     1      -9.888  12.160  66.543  1.00  0.00    -0.232 C  
HETATM    3  C   UNL     1      -9.321  13.277  67.383  1.00  0.00    -0.217 C  
HETATM    4  C   UNL     1     -10.860  14.784  64.960  1.00  0.00    -0.425 C  
HETATM    5  C   UNL     1      -9.969  14.433  67.145  1.00  0.00    -0.253 C  
HETATM    6  N   UNL     1     -10.996  14.271  66.221  1.00  0.00    -0.312 N  
HETATM    7  C   UNL     1     -10.748  13.394  64.314  1.00  0.00    -0.374 C  
HETATM    8  C   UNL     1      -9.663  15.791  67.708  1.00  0.00    -0.216 C  
HETATM    9  O   UNL     1     -10.448  16.779  67.224  1.00  0.00    -0.317 OA 
HETATM   10  O   UNL     1      -8.840  16.016  68.579  1.00  0.00    -0.183 OA 
HETATM   11  O   UNL     1     -10.772  15.943  64.632  1.00  0.00    -0.553 OA 
ENDROOT
BRANCH   3  12
HETATM   12  S   UNL     1      -7.900  12.946  68.292  1.00  0.00    -0.143 SA 
BRANCH  12  13
HETATM   13  C   UNL     1      -7.985  11.177  68.703  1.00  0.00    -0.145 C  
BRANCH  13  14
HETATM   14  C   UNL     1      -6.985  10.280  67.974  1.00  0.00    -0.082 C  
BRANCH  14  15
HETATM   15  N   UNL     1      -6.527  10.955  66.745  1.00  0.00    -0.104 NA 
HETATM   16  H   UNL     1      -6.190  11.918  66.732  1.00  0.00     0.000 HD 
BRANCH  15  17
HETATM   17  C   UNL     1      -6.593  10.223  65.693  1.00  0.00    -0.122 C  
HETATM   18  H1  UNL     1      -6.133  10.015  63.665  1.00  0.00     0.000 HD 
HETATM   19  N   UNL     1      -6.080  10.597  64.500  1.00  0.00    -0.367 NA 
HETATM   20  H2  UNL     1      -5.620  11.503  64.433  1.00  0.00     0.000 HD 
ENDBRANCH  15  17
ENDBRANCH  14  15
ENDBRANCH  13  14
ENDBRANCH  12  13
ENDBRANCH   3  12
BRANCH   7  21
HETATM   21  C   UNL     1     -11.805  13.056  63.278  1.00  0.00    -0.364 C  
HETATM   22  O   UNL     1     -12.633  14.205  63.120  1.00  0.00    -1.058 OA 
HETATM   23  C   UNL     1     -12.654  11.875  63.727  1.00  0.00    -0.509 C  
HETATM   24  H   UNL     1     -13.294  13.993  62.471  1.00  0.00     0.000 HD 
ENDBRANCH   7  21
TORSDOF 6
ENDMDL
MODEL       85
REMARK 921   NORMALIZED FREE ENERGY PREDICTED BY IDOCK:   -4.34 KCAL/MOL
REMARK 922        TOTAL FREE ENERGY PREDICTED BY IDOCK:   -7.07 KCAL/MOL
REMARK 923 INTER-LIGAND FREE ENERGY PREDICTED BY IDOCK:   -6.10 KCAL/MOL
REMARK 924 INTRA-LIGAND FREE ENERGY PREDICTED BY IDOCK:   -0.97 KCAL/MOL
REMARK 927      BINDING AFFINITY PREDICTED BY RF-SCORE:    0.00 PKD
ROOT
HETATM    1  C   UNL     1     -11.095  13.011  66.368  1.00  0.00    -0.287 C  
HETATM    2  C   UNL     1     -11.415  12.334  67.695  1.00  0.00    -0.401 C  
HETATM    3  C   UNL     1     -10.877  10.938  67.501  1.00  0.00    -0.272 C  
HETATM    4  C   UNL     1     -11.248  12.091  64.493  1.00  0.00    -0.332 C  
HETATM    5  C   UNL     1     -10.331  10.800  66.278  1.00  0.00    -0.244 C  
HETATM    6  N   UNL     1     -10.384  11.984  65.550  1.00  0.00    -0.254 N  
HETATM    7  C   UNL     1     -12.150  13.099  65.224  1.00  0.00    -0.471 C  
HETATM    8  C   UNL     1      -9.765   9.554  65.660  1.00  0.00    -0.290 C  
HETATM    9  O   UNL     1      -9.352   9.710  64.382  1.00  0.00    -0.254 OA 
HETATM   10  O   UNL     1      -9.603   8.496  66.244  1.00  0.00    -0.225 OA 
HETATM   11  O   UNL     1     -11.237  11.475  63.456  1.00  0.00    -0.413 OA 
ENDROOT
BRANCH   3  12
HETATM   12  S   UNL     1     -11.218   9.777  68.723  1.00  0.00     0.064 SA 
BRANCH  12  13
HETATM   13  C   UNL     1      -9.855   9.915  69.918  1.00  0.00    -0.245 C  
BRANCH  13  14
HETATM   14  C   UNL     1      -9.524   8.639  70.692  1.00  0.00    -0.184 C  
BRANCH  14  15
HETATM   15  N   UNL     1      -8.173   8.178  70.320  1.00  0.00    -0.119 NA 
HETATM   16  H   UNL     1      -7.334   8.443  70.834  1.00  0.00     0.000 HD 
BRANCH  15  17
HETATM   17  C   UNL     1      -8.150   7.414  69.289  1.00  0.00    -0.123 C  
HETATM   18  H1  UNL     1      -7.411   7.085  67.361  1.00  0.00     0.000 HD 
HETATM   19  N   UNL     1      -7.430   7.692  68.180  1.00  0.00    -0.105 NA 
HETATM   20  H2  UNL     1      -6.879   8.550  68.162  1.00  0.00     0.000 HD 
ENDBRANCH  15  17
ENDBRANCH  14  15
ENDBRANCH  13  14
ENDBRANCH  12  13
ENDBRANCH   3  12
BRANCH   7  21
HETATM   21  C   UNL     1     -12.310  14.453  64.558  1.00  0.00    -0.418 C  
HETATM   22  O   UNL     1     -12.346  14.236  63.150  1.00  0.00    -1.096 OA 
HETATM   23  C   UNL     1     -11.148  15.374  64.901  1.00  0.00    -0.435 C  
HETATM   24  H   UNL     1     -12.447  15.084  62.733  1.00  0.00     0.000 HD 
ENDBRANCH   7  21
TORSDOF 6
ENDMDL
MODEL       86
REMARK 921   NORMALIZED FREE ENERGY PREDICTED BY IDOCK:   -4.33 KCAL/MOL
REMARK 922        TOTAL FREE ENERGY PREDICTED BY IDOCK:   -7.06 KCAL/MOL
REMARK 923 INTER-LIGAND FREE ENERGY PREDICTED BY IDOCK:   -6.97 KCAL/MOL
REMARK 924 INTRA-LIGAND FREE ENERGY PREDICTED BY IDOCK:   -0.08 KCAL/MOL
REMARK 927      BINDING AFFINITY PREDICTED BY RF-SCORE:    0.00 PKD
ROOT
HETATM    1  C   UNL     1     -10.266  17.722  66.217  1.00  0.00    -0.364 C  
HETATM    2  C   UNL     1     -10.163  16.322  65.625  1.00  0.00    -0.368 C  
HETATM    3  C   UNL     1     -10.527  15.434  66.789  1.00  0.00    -0.299 C  
HETATM    4  C   UNL     1      -9.661  18.246  68.152  1.00  0.00    -0.327 C  
HETATM    5  C   UNL     1     -10.802  16.167  67.884  1.00  0.00    -0.332 C  
HETATM    6  N   UNL     1     -10.707  17.532  67.632  1.00  0.00    -0.345 N  
HETATM    7  C   UNL     1      -9.015  18.465  66.775  1.00  0.00    -0.291 C  
HETATM    8  C   UNL     1     -11.123  15.672  69.265  1.00  0.00    -0.293 C  
HETATM    9  O   UNL     1     -11.281  16.654  70.181  1.00  0.00    -0.258 OA 
HETATM   10  O   UNL     1     -11.306  14.504  69.562  1.00  0.00    -0.254 OA 
HETATM   11  O   UNL     1      -9.409  18.461  69.313  1.00  0.00    -0.056 OA 
ENDROOT
BRANCH   3  12
HETATM   12  S   UNL     1     -10.340  13.738  66.584  1.00  0.00    -0.283 SA 
BRANCH  12  13
HETATM   13  C   UNL     1     -12.013  13.097  66.273  1.00  0.00    -0.415 C  
BRANCH  13  14
HETATM   14  C   UNL     1     -12.760  13.739  65.104  1.00  0.00    -0.397 C  
BRANCH  14  15
HETATM   15  N   UNL     1     -12.560  12.925  63.890  1.00  0.00    -0.695 NA 
HETATM   16  H   UNL     1     -12.874  13.219  62.966  1.00  0.00     0.000 HD 
BRANCH  15  17
HETATM   17  C   UNL     1     -11.954  11.814  64.103  1.00  0.00    -0.235 C  
HETATM   18  H1  UNL     1     -10.528  10.436  63.441  1.00  0.00     0.000 HD 
HETATM   19  N   UNL     1     -11.009  11.319  63.273  1.00  0.00    -0.814 NA 
HETATM   20  H2  UNL     1     -10.766  11.853  62.440  1.00  0.00     0.000 HD 
ENDBRANCH  15  17
ENDBRANCH  14  15
ENDBRANCH  13  14
ENDBRANCH  12  13
ENDBRANCH   3  12
BRANCH   7  21
HETATM   21  C   UNL     1      -8.842  19.910  66.345  1.00  0.00    -0.358 C  
HETATM   22  O   UNL     1      -7.609  20.003  65.637  1.00  0.00    -0.379 OA 
HETATM   23  C   UNL     1      -8.808  20.840  67.549  1.00  0.00    -0.212 C  
HETATM   24  H   UNL     1      -7.501  20.907  65.367  1.00  0.00     0.000 HD 
ENDBRANCH   7  21
TORSDOF 6
ENDMDL
MODEL       87
REMARK 921   NORMALIZED FREE ENERGY PREDICTED BY IDOCK:   -4.31 KCAL/MOL
REMARK 922        TOTAL FREE ENERGY PREDICTED BY IDOCK:   -7.04 KCAL/MOL
REMARK 923 INTER-LIGAND FREE ENERGY PREDICTED BY IDOCK:   -6.48 KCAL/MOL
REMARK 924 INTRA-LIGAND FREE ENERGY PREDICTED BY IDOCK:   -0.56 KCAL/MOL
REMARK 927      BINDING AFFINITY PREDICTED BY RF-SCORE:    0.00 PKD
ROOT
HETATM    1  C   UNL     1     -10.137  16.740  68.491  1.00  0.00    -0.281 C  
HETATM    2  C   UNL     1     -10.682  15.589  67.655  1.00  0.00    -0.302 C  
HETATM    3  C   UNL     1      -9.626  14.524  67.813  1.00  0.00    -0.215 C  
HETATM    4  C   UNL     1      -8.118  17.287  68.592  1.00  0.00    -0.261 C  
HETATM    5  C   UNL     1      -8.625  14.955  68.603  1.00  0.00    -0.168 C  
HETATM    6  N   UNL     1      -8.856  16.242  69.078  1.00  0.00    -0.248 N  
HETATM    7  C   UNL     1      -9.316  17.897  67.845  1.00  0.00    -0.271 C  
HETATM    8  C   UNL     1      -7.349  14.241  68.943  1.00  0.00    -0.126 C  
HETATM    9  O   UNL     1      -6.498  14.962  69.706  1.00  0.00    -0.139 OA 
HETATM   10  O   UNL     1      -7.094  13.086  68.642  1.00  0.00    -0.095 OA 
HETATM   11  O   UNL     1      -6.932  17.478  68.705  1.00  0.00    -0.217 OA 
ENDROOT
BRANCH   3  12
HETATM   12  S   UNL     1      -9.774  13.107  66.851  1.00  0.00    -0.249 SA 
BRANCH  12  13
HETATM   13  C   UNL     1     -11.537  12.665  66.903  1.00  0.00    -0.373 C  
BRANCH  13  14
HETATM   14  C   UNL     1     -12.235  12.571  65.547  1.00  0.00    -0.377 C  
BRANCH  14  15
HETATM   15  N   UNL     1     -12.830  13.878  65.211  1.00  0.00    -0.749 NA 
HETATM   16  H   UNL     1     -13.622  14.275  65.715  1.00  0.00     0.000 HD 
BRANCH  15  17
HETATM   17  C   UNL     1     -12.259  14.472  64.227  1.00  0.00    -0.415 C  
HETATM   18  H1  UNL     1     -11.749  14.420  62.200  1.00  0.00     0.000 HD 
HETATM   19  N   UNL     1     -12.203  13.949  62.982  1.00  0.00    -0.919 NA 
HETATM   20  H2  UNL     1     -12.634  13.040  62.818  1.00  0.00     0.000 HD 
ENDBRANCH  15  17
ENDBRANCH  14  15
ENDBRANCH  13  14
ENDBRANCH  12  13
ENDBRANCH   3  12
BRANCH   7  21
HETATM   21  C   UNL     1      -9.704  19.306  68.252  1.00  0.00    -0.385 C  
HETATM   22  O   UNL     1     -11.077  19.487  67.916  1.00  0.00    -0.279 OA 
HETATM   23  C   UNL     1      -8.861  20.340  67.519  1.00  0.00    -0.415 C  
HETATM   24  H   UNL     1     -11.320  20.370  68.171  1.00  0.00     0.000 HD 
ENDBRANCH   7  21
TORSDOF 6
ENDMDL
MODEL       88
REMARK 921   NORMALIZED FREE ENERGY PREDICTED BY IDOCK:   -4.31 KCAL/MOL
REMARK 922        TOTAL FREE ENERGY PREDICTED BY IDOCK:   -7.04 KCAL/MOL
REMARK 923 INTER-LIGAND FREE ENERGY PREDICTED BY IDOCK:   -6.63 KCAL/MOL
REMARK 924 INTRA-LIGAND FREE ENERGY PREDICTED BY IDOCK:   -0.41 KCAL/MOL
REMARK 927      BINDING AFFINITY PREDICTED BY RF-SCORE:    0.00 PKD
ROOT
HETATM    1  C   UNL     1     -11.928  12.348  65.482  1.00  0.00    -0.391 C  
HETATM    2  C   UNL     1     -11.016  11.135  65.354  1.00  0.00    -0.151 C  
HETATM    3  C   UNL     1     -10.691  10.802  66.789  1.00  0.00    -0.231 C  
HETATM    4  C   UNL     1     -11.669  13.892  66.873  1.00  0.00    -0.399 C  
HETATM    5  C   UNL     1     -11.299  11.660  67.630  1.00  0.00    -0.295 C  
HETATM    6  N   UNL     1     -12.079  12.588  66.949  1.00  0.00    -0.226 N  
HETATM    7  C   UNL     1     -11.372  13.800  65.367  1.00  0.00    -0.314 C  
HETATM    8  C   UNL     1     -11.170  11.729  69.124  1.00  0.00    -0.264 C  
HETATM    9  O   UNL     1     -11.850  12.750  69.691  1.00  0.00    -0.311 OA 
HETATM   10  O   UNL     1     -10.577  10.914  69.812  1.00  0.00    -0.194 OA 
HETATM   11  O   UNL     1     -11.541  14.686  67.772  1.00  0.00    -0.330 OA 
ENDROOT
BRANCH   3  12
HETATM   12  S   UNL     1      -9.509   9.587  67.076  1.00  0.00    -0.162 SA 
BRANCH  12  13
HETATM   13  C   UNL     1     -10.423   8.016  67.108  1.00  0.00    -0.338 C  
BRANCH  13  14
HETATM   14  C   UNL     1      -9.804   6.908  67.960  1.00  0.00    -0.139 C  
BRANCH  14  15
HETATM   15  N   UNL     1     -10.878   6.140  68.618  1.00  0.00    -0.309 NA 
HETATM   16  H   UNL     1     -11.369   5.370  68.164  1.00  0.00     0.000 HD 
BRANCH  15  17
HETATM   17  C   UNL     1     -11.139   6.528  69.813  1.00  0.00    -0.370 C  
HETATM   18  H1  UNL     1     -11.671   8.112  71.069  1.00  0.00     0.000 HD 
HETATM   19  N   UNL     1     -11.464   7.803  70.120  1.00  0.00    -0.473 NA 
HETATM   20  H2  UNL     1     -11.505   8.489  69.366  1.00  0.00     0.000 HD 
ENDBRANCH  15  17
ENDBRANCH  14  15
ENDBRANCH  13  14
ENDBRANCH  12  13
ENDBRANCH   3  12
BRANCH   7  21
HETATM   21  C   UNL     1     -12.151  14.751  64.477  1.00  0.00    -0.446 C  
HETATM   22  O   UNL     1     -12.350  14.101  63.225  1.00  0.00    -1.140 OA 
HETATM   23  C   UNL     1     -11.386  16.049  64.261  1.00  0.00    -0.146 C  
HETATM   24  H   UNL     1     -12.837  14.696  62.668  1.00  0.00     0.000 HD 
ENDBRANCH   7  21
TORSDOF 6
ENDMDL
MODEL       89
REMARK 921   NORMALIZED FREE ENERGY PREDICTED BY IDOCK:   -4.31 KCAL/MOL
REMARK 922        TOTAL FREE ENERGY PREDICTED BY IDOCK:   -7.03 KCAL/MOL
REMARK 923 INTER-LIGAND FREE ENERGY PREDICTED BY IDOCK:   -6.04 KCAL/MOL
REMARK 924 INTRA-LIGAND FREE ENERGY PREDICTED BY IDOCK:   -0.99 KCAL/MOL
REMARK 927      BINDING AFFINITY PREDICTED BY RF-SCORE:    0.00 PKD
ROOT
HETATM    1  C   UNL     1     -10.474  16.811  66.638  1.00  0.00    -0.258 C  
HETATM    2  C   UNL     1     -10.138  15.621  65.747  1.00  0.00    -0.394 C  
HETATM    3  C   UNL     1     -10.746  14.458  66.491  1.00  0.00    -0.306 C  
HETATM    4  C   UNL     1     -10.434  16.781  68.731  1.00  0.00    -0.338 C  
HETATM    5  C   UNL     1     -11.342  14.872  67.625  1.00  0.00    -0.337 C  
HETATM    6  N   UNL     1     -11.262  16.252  67.778  1.00  0.00    -0.229 N  
HETATM    7  C   UNL     1      -9.460  17.354  67.689  1.00  0.00    -0.251 C  
HETATM    8  C   UNL     1     -11.988  14.028  68.685  1.00  0.00    -0.354 C  
HETATM    9  O   UNL     1     -12.439  14.728  69.750  1.00  0.00    -0.277 OA 
HETATM   10  O   UNL     1     -12.176  12.826  68.602  1.00  0.00    -0.189 OA 
HETATM   11  O   UNL     1     -10.511  16.671  69.930  1.00  0.00    -0.230 OA 
ENDROOT
BRANCH   3  12
HETATM   12  S   UNL     1     -10.414  12.877  65.903  1.00  0.00    -0.283 SA 
BRANCH  12  13
HETATM   13  C   UNL     1      -8.964  12.303  66.838  1.00  0.00    -0.207 C  
BRANCH  13  14
HETATM   14  C   UNL     1      -9.255  11.322  67.973  1.00  0.00    -0.160 C  
BRANCH  14  15
HETATM   15  N   UNL     1      -9.377   9.959  67.421  1.00  0.00    -0.137 NA 
HETATM   16  H   UNL     1      -8.571   9.391  67.160  1.00  0.00     0.000 HD 
BRANCH  15  17
HETATM   17  C   UNL     1     -10.588   9.553  67.299  1.00  0.00    -0.248 C  
HETATM   18  H1  UNL     1     -12.553   9.650  68.005  1.00  0.00     0.000 HD 
HETATM   19  N   UNL     1     -11.591   9.973  68.102  1.00  0.00    -0.636 NA 
HETATM   20  H2  UNL     1     -11.375  10.643  68.839  1.00  0.00     0.000 HD 
ENDBRANCH  15  17
ENDBRANCH  14  15
ENDBRANCH  13  14
ENDBRANCH  12  13
ENDBRANCH   3  12
BRANCH   7  21
HETATM   21  C   UNL     1      -9.262  18.858  67.720  1.00  0.00    -0.293 C  
HETATM   22  O   UNL     1     -10.081  19.377  68.764  1.00  0.00    -0.432 OA 
HETATM   23  C   UNL     1      -9.665  19.491  66.395  1.00  0.00    -0.485 C  
HETATM   24  H   UNL     1      -9.957  20.318  68.783  1.00  0.00     0.000 HD 
ENDBRANCH   7  21
TORSDOF 6
ENDMDL
MODEL       90
REMARK 921   NORMALIZED FREE ENERGY PREDICTED BY IDOCK:   -4.31 KCAL/MOL
REMARK 922        TOTAL FREE ENERGY PREDICTED BY IDOCK:   -7.03 KCAL/MOL
REMARK 923 INTER-LIGAND FREE ENERGY PREDICTED BY IDOCK:   -6.27 KCAL/MOL
REMARK 924 INTRA-LIGAND FREE ENERGY PREDICTED BY IDOCK:   -0.77 KCAL/MOL
REMARK 927      BINDING AFFINITY PREDICTED BY RF-SCORE:    0.00 PKD
ROOT
HETATM    1  C   UNL     1     -11.899  11.928  69.372  1.00  0.00    -0.327 C  
HETATM    2  C   UNL     1     -11.834  13.386  69.809  1.00  0.00    -0.393 C  
HETATM    3  C   UNL     1     -11.751  14.129  68.498  1.00  0.00    -0.345 C  
HETATM    4  C   UNL     1     -10.809  11.110  67.782  1.00  0.00    -0.239 C  
HETATM    5  C   UNL     1     -11.765  13.273  67.460  1.00  0.00    -0.366 C  
HETATM    6  N   UNL     1     -11.884  11.952  67.879  1.00  0.00    -0.294 N  
HETATM    7  C   UNL     1     -10.620  11.040  69.306  1.00  0.00    -0.236 C  
HETATM    8  C   UNL     1     -11.616  13.595  66.001  1.00  0.00    -0.337 C  
HETATM    9  O   UNL     1     -11.597  12.510  65.195  1.00  0.00    -0.325 OA 
HETATM   10  O   UNL     1     -11.587  14.721  65.534  1.00  0.00    -0.342 OA 
HETATM   11  O   UNL     1     -10.252  10.724  66.784  1.00  0.00    -0.213 OA 
ENDROOT
BRANCH   3  12
HETATM   12  S   UNL     1     -11.463  15.823  68.561  1.00  0.00    -0.362 SA 
BRANCH  12  13
HETATM   13  C   UNL     1      -9.713  16.037  68.117  1.00  0.00    -0.217 C  
BRANCH  13  14
HETATM   14  C   UNL     1      -8.843  14.786  68.238  1.00  0.00    -0.179 C  
BRANCH  14  15
HETATM   15  N   UNL     1      -8.265  14.722  69.594  1.00  0.00    -0.416 NA 
HETATM   16  H   UNL     1      -8.830  14.772  70.442  1.00  0.00     0.000 HD 
BRANCH  15  17
HETATM   17  C   UNL     1      -6.988  14.598  69.611  1.00  0.00    -0.149 C  
HETATM   18  H1  UNL     1      -5.319  13.725  70.518  1.00  0.00     0.000 HD 
HETATM   19  N   UNL     1      -6.334  13.823  70.505  1.00  0.00    -0.405 NA 
HETATM   20  H2  UNL     1      -6.881  13.314  71.197  1.00  0.00     0.000 HD 
ENDBRANCH  15  17
ENDBRANCH  14  15
ENDBRANCH  13  14
ENDBRANCH  12  13
ENDBRANCH   3  12
BRANCH   7  21
HETATM   21  C   UNL     1     -10.725   9.659  69.926  1.00  0.00    -0.252 C  
HETATM   22  O   UNL     1     -11.105   8.753  68.893  1.00  0.00    -0.437 OA 
HETATM   23  C   UNL     1     -11.769   9.634  71.034  1.00  0.00    -0.433 C  
HETATM   24  H   UNL     1     -11.171   7.889  69.281  1.00  0.00     0.000 HD 
ENDBRANCH   7  21
TORSDOF 6
ENDMDL
MODEL       91
REMARK 921   NORMALIZED FREE ENERGY PREDICTED BY IDOCK:   -4.30 KCAL/MOL
REMARK 922        TOTAL FREE ENERGY PREDICTED BY IDOCK:   -7.03 KCAL/MOL
REMARK 923 INTER-LIGAND FREE ENERGY PREDICTED BY IDOCK:   -6.12 KCAL/MOL
REMARK 924 INTRA-LIGAND FREE ENERGY PREDICTED BY IDOCK:   -0.91 KCAL/MOL
REMARK 927      BINDING AFFINITY PREDICTED BY RF-SCORE:    0.00 PKD
ROOT
HETATM    1  C   UNL     1     -10.120  17.432  67.661  1.00  0.00    -0.327 C  
HETATM    2  C   UNL     1     -10.604  16.096  67.111  1.00  0.00    -0.294 C  
HETATM    3  C   UNL     1      -9.592  15.118  67.654  1.00  0.00    -0.206 C  
HETATM    4  C   UNL     1      -8.110  17.997  67.817  1.00  0.00    -0.237 C  
HETATM    5  C   UNL     1      -8.666  15.751  68.398  1.00  0.00    -0.177 C  
HETATM    6  N   UNL     1      -8.916  17.116  68.486  1.00  0.00    -0.259 N  
HETATM    7  C   UNL     1      -9.214  18.379  66.818  1.00  0.00    -0.293 C  
HETATM    8  C   UNL     1      -7.446  15.160  69.044  1.00  0.00    -0.161 C  
HETATM    9  O   UNL     1      -6.660  16.063  69.670  1.00  0.00    -0.193 OA 
HETATM   10  O   UNL     1      -7.188  13.968  69.089  1.00  0.00    -0.110 OA 
HETATM   11  O   UNL     1      -6.937  18.218  67.996  1.00  0.00    -0.213 OA 
ENDROOT
BRANCH   3  12
HETATM   12  S   UNL     1      -9.675  13.495  67.094  1.00  0.00    -0.252 SA 
BRANCH  12  13
HETATM   13  C   UNL     1     -10.451  12.554  68.442  1.00  0.00    -0.240 C  
BRANCH  13  14
HETATM   14  C   UNL     1     -11.817  13.061  68.902  1.00  0.00    -0.316 C  
BRANCH  14  15
HETATM   15  N   UNL     1     -11.754  13.404  70.335  1.00  0.00    -0.541 NA 
HETATM   16  H   UNL     1     -11.587  12.712  71.065  1.00  0.00     0.000 HD 
BRANCH  15  17
HETATM   17  C   UNL     1     -11.929  14.652  70.579  1.00  0.00    -0.310 C  
HETATM   18  H1  UNL     1     -13.130  16.343  70.317  1.00  0.00     0.000 HD 
HETATM   19  N   UNL     1     -12.992  15.351  70.123  1.00  0.00    -0.659 NA 
HETATM   20  H2  UNL     1     -13.687  14.864  69.558  1.00  0.00     0.000 HD 
ENDBRANCH  15  17
ENDBRANCH  14  15
ENDBRANCH  13  14
ENDBRANCH  12  13
ENDBRANCH   3  12
BRANCH   7  21
HETATM   21  C   UNL     1      -9.609  19.844  66.793  1.00  0.00    -0.403 C  
HETATM   22  O   UNL     1      -8.410  20.613  66.826  1.00  0.00    -0.537 OA 
HETATM   23  C   UNL     1     -10.475  20.198  67.994  1.00  0.00    -0.389 C  
HETATM   24  H   UNL     1      -8.658  21.529  66.810  1.00  0.00     0.000 HD 
ENDBRANCH   7  21
TORSDOF 6
ENDMDL
MODEL       92
REMARK 921   NORMALIZED FREE ENERGY PREDICTED BY IDOCK:   -4.27 KCAL/MOL
REMARK 922        TOTAL FREE ENERGY PREDICTED BY IDOCK:   -6.98 KCAL/MOL
REMARK 923 INTER-LIGAND FREE ENERGY PREDICTED BY IDOCK:   -6.63 KCAL/MOL
REMARK 924 INTRA-LIGAND FREE ENERGY PREDICTED BY IDOCK:   -0.35 KCAL/MOL
REMARK 927      BINDING AFFINITY PREDICTED BY RF-SCORE:    0.00 PKD
ROOT
HETATM    1  C   UNL     1     -11.410   9.754  69.508  1.00  0.00    -0.083 C  
HETATM    2  C   UNL     1     -11.475  11.046  68.703  1.00  0.00    -0.375 C  
HETATM    3  C   UNL     1     -10.026  11.324  68.390  1.00  0.00    -0.197 C  
HETATM    4  C   UNL     1      -9.936   9.307  70.927  1.00  0.00    -0.297 C  
HETATM    5  C   UNL     1      -9.231  10.371  68.911  1.00  0.00    -0.177 C  
HETATM    6  N   UNL     1      -9.964   9.383  69.560  1.00  0.00    -0.181 N  
HETATM    7  C   UNL     1     -11.397   9.766  71.066  1.00  0.00    -0.460 C  
HETATM    8  C   UNL     1      -7.731  10.317  68.899  1.00  0.00    -0.098 C  
HETATM    9  O   UNL     1      -7.210   9.266  69.570  1.00  0.00    -0.057 OA 
HETATM   10  O   UNL     1      -7.010  11.090  68.290  1.00  0.00    -0.066 OA 
HETATM   11  O   UNL     1      -8.997   9.054  71.641  1.00  0.00    -0.317 OA 
ENDROOT
BRANCH   3  12
HETATM   12  S   UNL     1      -9.648  12.826  67.644  1.00  0.00    -0.198 SA 
BRANCH  12  13
HETATM   13  C   UNL     1     -10.999  13.141  66.469  1.00  0.00    -0.286 C  
BRANCH  13  14
HETATM   14  C   UNL     1     -10.605  13.141  64.993  1.00  0.00    -0.332 C  
BRANCH  14  15
HETATM   15  N   UNL     1     -10.265  14.515  64.577  1.00  0.00    -0.577 NA 
HETATM   16  H   UNL     1      -9.322  14.799  64.313  1.00  0.00     0.000 HD 
BRANCH  15  17
HETATM   17  C   UNL     1     -11.264  15.321  64.579  1.00  0.00    -0.280 C  
HETATM   18  H1  UNL     1     -12.120  17.061  63.796  1.00  0.00     0.000 HD 
HETATM   19  N   UNL     1     -11.326  16.420  63.795  1.00  0.00    -1.362 NA 
HETATM   20  H2  UNL     1     -10.543  16.618  63.173  1.00  0.00     0.000 HD 
ENDBRANCH  15  17
ENDBRANCH  14  15
ENDBRANCH  13  14
ENDBRANCH  12  13
ENDBRANCH   3  12
BRANCH   7  21
HETATM   21  C   UNL     1     -12.336   8.792  71.755  1.00  0.00    -0.351 C  
HETATM   22  O   UNL     1     -12.417   7.625  70.941  1.00  0.00    -0.501 OA 
HETATM   23  C   UNL     1     -13.724   9.394  71.921  1.00  0.00    -0.440 C  
HETATM   24  H   UNL     1     -13.004   7.016  71.372  1.00  0.00     0.000 HD 
ENDBRANCH   7  21
TORSDOF 6
ENDMDL
MODEL       93
REMARK 921   NORMALIZED FREE ENERGY PREDICTED BY IDOCK:   -4.27 KCAL/MOL
REMARK 922        TOTAL FREE ENERGY PREDICTED BY IDOCK:   -6.98 KCAL/MOL
REMARK 923 INTER-LIGAND FREE ENERGY PREDICTED BY IDOCK:   -6.31 KCAL/MOL
REMARK 924 INTRA-LIGAND FREE ENERGY PREDICTED BY IDOCK:   -0.67 KCAL/MOL
REMARK 927      BINDING AFFINITY PREDICTED BY RF-SCORE:    0.00 PKD
ROOT
HETATM    1  C   UNL     1     -12.161   6.724  70.922  1.00  0.00    -0.367 C  
HETATM    2  C   UNL     1     -11.439   6.241  69.670  1.00  0.00    -0.425 C  
HETATM    3  C   UNL     1     -10.271   5.467  70.228  1.00  0.00    -0.255 C  
HETATM    4  C   UNL     1     -11.209   7.393  72.663  1.00  0.00    -0.332 C  
HETATM    5  C   UNL     1     -10.287   5.480  71.574  1.00  0.00    -0.222 C  
HETATM    6  N   UNL     1     -11.387   6.171  72.073  1.00  0.00    -0.284 N  
HETATM    7  C   UNL     1     -11.904   8.142  71.514  1.00  0.00    -0.332 C  
HETATM    8  C   UNL     1      -9.265   4.904  72.511  1.00  0.00    -0.132 C  
HETATM    9  O   UNL     1      -9.519   5.138  73.818  1.00  0.00    -0.131 OA 
HETATM   10  O   UNL     1      -8.316   4.217  72.172  1.00  0.00    -0.098 OA 
HETATM   11  O   UNL     1     -10.609   7.651  73.677  1.00  0.00    -0.306 OA 
ENDROOT
BRANCH   3  12
HETATM   12  S   UNL     1      -9.082   4.911  69.119  1.00  0.00    -0.110 SA 
BRANCH  12  13
HETATM   13  C   UNL     1      -8.755   6.315  68.011  1.00  0.00    -0.114 C  
BRANCH  13  14
HETATM   14  C   UNL     1      -8.270   5.952  66.608  1.00  0.00    -0.106 C  
BRANCH  14  15
HETATM   15  N   UNL     1      -9.420   5.923  65.685  1.00  0.00    -0.369 NA 
HETATM   16  H   UNL     1      -9.801   6.761  65.245  1.00  0.00     0.000 HD 
BRANCH  15  17
HETATM   17  C   UNL     1      -9.899   4.749  65.486  1.00  0.00    -0.145 C  
HETATM   18  H1  UNL     1     -11.600   3.576  65.168  1.00  0.00     0.000 HD 
HETATM   19  N   UNL     1     -11.219   4.508  65.326  1.00  0.00    -1.016 NA 
HETATM   20  H2  UNL     1     -11.865   5.297  65.365  1.00  0.00     0.000 HD 
ENDBRANCH  15  17
ENDBRANCH  14  15
ENDBRANCH  13  14
ENDBRANCH  12  13
ENDBRANCH   3  12
BRANCH   7  21
HETATM   21  C   UNL     1     -13.133   8.947  71.894  1.00  0.00    -0.386 C  
HETATM   22  O   UNL     1     -13.063   9.203  73.294  1.00  0.00    -0.610 OA 
HETATM   23  C   UNL     1     -14.409   8.178  71.581  1.00  0.00    -0.570 C  
HETATM   24  H   UNL     1     -13.832   9.707  73.531  1.00  0.00     0.000 HD 
ENDBRANCH   7  21
TORSDOF 6
ENDMDL
MODEL       94
REMARK 921   NORMALIZED FREE ENERGY PREDICTED BY IDOCK:   -4.25 KCAL/MOL
REMARK 922        TOTAL FREE ENERGY PREDICTED BY IDOCK:   -6.96 KCAL/MOL
REMARK 923 INTER-LIGAND FREE ENERGY PREDICTED BY IDOCK:   -5.81 KCAL/MOL
REMARK 924 INTRA-LIGAND FREE ENERGY PREDICTED BY IDOCK:   -1.15 KCAL/MOL
REMARK 927      BINDING AFFINITY PREDICTED BY RF-SCORE:    0.00 PKD
ROOT
HETATM    1  C   UNL     1     -10.460  10.906  65.960  1.00  0.00    -0.225 C  
HETATM    2  C   UNL     1      -9.079  10.388  66.342  1.00  0.00    -0.177 C  
HETATM    3  C   UNL     1      -9.220  10.106  67.818  1.00  0.00    -0.137 C  
HETATM    4  C   UNL     1     -11.632  12.168  67.152  1.00  0.00    -0.335 C  
HETATM    5  C   UNL     1     -10.462  10.400  68.246  1.00  0.00    -0.191 C  
HETATM    6  N   UNL     1     -11.275  10.848  67.210  1.00  0.00    -0.290 N  
HETATM    7  C   UNL     1     -10.771  12.433  65.906  1.00  0.00    -0.299 C  
HETATM    8  C   UNL     1     -10.987  10.343  69.651  1.00  0.00    -0.277 C  
HETATM    9  O   UNL     1     -12.263  10.770  69.783  1.00  0.00    -0.323 OA 
HETATM   10  O   UNL     1     -10.377   9.890  70.606  1.00  0.00    -0.286 OA 
HETATM   11  O   UNL     1     -12.311  12.792  67.930  1.00  0.00    -0.181 OA 
ENDROOT
BRANCH   3  12
HETATM   12  S   UNL     1      -7.798   9.679  68.684  1.00  0.00    -0.082 SA 
BRANCH  12  13
HETATM   13  C   UNL     1      -7.799   7.863  68.757  1.00  0.00    -0.118 C  
BRANCH  13  14
HETATM   14  C   UNL     1      -9.141   7.190  68.470  1.00  0.00    -0.132 C  
BRANCH  14  15
HETATM   15  N   UNL     1      -9.871   6.995  69.737  1.00  0.00    -0.168 NA 
HETATM   16  H   UNL     1      -9.545   7.366  70.629  1.00  0.00     0.000 HD 
BRANCH  15  17
HETATM   17  C   UNL     1     -10.953   6.317  69.614  1.00  0.00    -0.374 C  
HETATM   18  H1  UNL     1     -13.010   6.208  69.976  1.00  0.00     0.000 HD 
HETATM   19  N   UNL     1     -12.150   6.748  70.072  1.00  0.00    -0.638 NA 
HETATM   20  H2  UNL     1     -12.194   7.654  70.537  1.00  0.00     0.000 HD 
ENDBRANCH  15  17
ENDBRANCH  14  15
ENDBRANCH  13  14
ENDBRANCH  12  13
ENDBRANCH   3  12
BRANCH   7  21
HETATM   21  C   UNL     1     -11.513  12.926  64.678  1.00  0.00    -0.327 C  
HETATM   22  O   UNL     1     -12.842  13.248  65.080  1.00  0.00    -0.686 OA 
HETATM   23  C   UNL     1     -11.555  11.856  63.596  1.00  0.00    -0.559 C  
HETATM   24  H   UNL     1     -13.306  13.557  64.311  1.00  0.00     0.000 HD 
ENDBRANCH   7  21
TORSDOF 6
ENDMDL
MODEL       95
REMARK 921   NORMALIZED FREE ENERGY PREDICTED BY IDOCK:   -4.25 KCAL/MOL
REMARK 922        TOTAL FREE ENERGY PREDICTED BY IDOCK:   -6.95 KCAL/MOL
REMARK 923 INTER-LIGAND FREE ENERGY PREDICTED BY IDOCK:   -6.64 KCAL/MOL
REMARK 924 INTRA-LIGAND FREE ENERGY PREDICTED BY IDOCK:   -0.31 KCAL/MOL
REMARK 927      BINDING AFFINITY PREDICTED BY RF-SCORE:    0.00 PKD
ROOT
HETATM    1  C   UNL     1      -9.234  16.904  67.238  1.00  0.00    -0.226 C  
HETATM    2  C   UNL     1      -9.812  15.794  68.106  1.00  0.00    -0.209 C  
HETATM    3  C   UNL     1     -10.811  15.132  67.190  1.00  0.00    -0.320 C  
HETATM    4  C   UNL     1     -10.343  18.068  65.897  1.00  0.00    -0.271 C  
HETATM    5  C   UNL     1     -10.830  15.734  65.986  1.00  0.00    -0.255 C  
HETATM    6  N   UNL     1      -9.906  16.771  65.911  1.00  0.00    -0.284 N  
HETATM    7  C   UNL     1      -9.788  18.359  67.301  1.00  0.00    -0.327 C  
HETATM    8  C   UNL     1     -11.736  15.440  64.826  1.00  0.00    -0.232 C  
HETATM    9  O   UNL     1     -11.566  16.265  63.769  1.00  0.00    -0.952 OA 
HETATM   10  O   UNL     1     -12.517  14.504  64.770  1.00  0.00    -0.508 OA 
HETATM   11  O   UNL     1     -11.007  18.622  65.055  1.00  0.00    -0.559 OA 
ENDROOT
BRANCH   3  12
HETATM   12  S   UNL     1     -11.835  13.929  67.868  1.00  0.00    -0.366 SA 
BRANCH  12  13
HETATM   13  C   UNL     1     -10.960  12.354  67.629  1.00  0.00    -0.236 C  
BRANCH  13  14
HETATM   14  C   UNL     1      -9.435  12.445  67.583  1.00  0.00    -0.190 C  
BRANCH  14  15
HETATM   15  N   UNL     1      -8.880  11.146  67.156  1.00  0.00    -0.141 NA 
HETATM   16  H   UNL     1      -9.070  10.733  66.244  1.00  0.00     0.000 HD 
BRANCH  15  17
HETATM   17  C   UNL     1      -8.137  10.583  68.038  1.00  0.00    -0.111 C  
HETATM   18  H1  UNL     1      -7.781  10.226  70.067  1.00  0.00     0.000 HD 
HETATM   19  N   UNL     1      -8.371  10.674  69.367  1.00  0.00    -0.341 NA 
HETATM   20  H2  UNL     1      -9.175  11.215  69.682  1.00  0.00     0.000 HD 
ENDBRANCH  15  17
ENDBRANCH  14  15
ENDBRANCH  13  14
ENDBRANCH  12  13
ENDBRANCH   3  12
BRANCH   7  21
HETATM   21  C   UNL     1      -8.758  19.470  67.390  1.00  0.00    -0.308 C  
HETATM   22  O   UNL     1      -8.060  19.310  68.623  1.00  0.00    -0.351 OA 
HETATM   23  C   UNL     1      -9.423  20.839  67.356  1.00  0.00    -0.451 C  
HETATM   24  H   UNL     1      -7.415  20.005  68.679  1.00  0.00     0.000 HD 
ENDBRANCH   7  21
TORSDOF 6
ENDMDL
MODEL       96
REMARK 921   NORMALIZED FREE ENERGY PREDICTED BY IDOCK:   -4.24 KCAL/MOL
REMARK 922        TOTAL FREE ENERGY PREDICTED BY IDOCK:   -6.94 KCAL/MOL
REMARK 923 INTER-LIGAND FREE ENERGY PREDICTED BY IDOCK:   -6.36 KCAL/MOL
REMARK 924 INTRA-LIGAND FREE ENERGY PREDICTED BY IDOCK:   -0.59 KCAL/MOL
REMARK 927      BINDING AFFINITY PREDICTED BY RF-SCORE:    0.00 PKD
ROOT
HETATM    1  C   UNL     1      -9.434   8.398  66.143  1.00  0.00    -0.194 C  
HETATM    2  C   UNL     1      -9.077   8.015  67.573  1.00  0.00    -0.146 C  
HETATM    3  C   UNL     1      -9.864   9.005  68.396  1.00  0.00    -0.166 C  
HETATM    4  C   UNL     1      -9.668  10.364  65.459  1.00  0.00    -0.249 C  
HETATM    5  C   UNL     1     -10.569   9.834  67.604  1.00  0.00    -0.276 C  
HETATM    6  N   UNL     1     -10.403   9.529  66.257  1.00  0.00    -0.209 N  
HETATM    7  C   UNL     1      -8.525   9.347  65.304  1.00  0.00    -0.161 C  
HETATM    8  C   UNL     1     -11.409  11.007  68.018  1.00  0.00    -0.306 C  
HETATM    9  O   UNL     1     -11.940  11.699  66.986  1.00  0.00    -0.593 OA 
HETATM   10  O   UNL     1     -11.677  11.301  69.172  1.00  0.00    -0.283 OA 
HETATM   11  O   UNL     1      -9.908  11.506  65.153  1.00  0.00    -0.244 OA 
ENDROOT
BRANCH   3  12
HETATM   12  S   UNL     1      -9.581   9.032  70.092  1.00  0.00    -0.208 SA 
BRANCH  12  13
HETATM   13  C   UNL     1     -10.460   7.586  70.756  1.00  0.00    -0.213 C  
BRANCH  13  14
HETATM   14  C   UNL     1     -11.089   7.771  72.136  1.00  0.00    -0.279 C  
BRANCH  14  15
HETATM   15  N   UNL     1     -12.558   7.696  72.019  1.00  0.00    -0.427 NA 
HETATM   16  H   UNL     1     -13.052   6.843  71.756  1.00  0.00     0.000 HD 
BRANCH  15  17
HETATM   17  C   UNL     1     -13.158   8.801  72.276  1.00  0.00    -0.409 C  
HETATM   18  H1  UNL     1     -14.538   9.813  73.478  1.00  0.00     0.000 HD 
HETATM   19  N   UNL     1     -14.061   8.935  73.273  1.00  0.00    -1.248 NA 
HETATM   20  H2  UNL     1     -14.275   8.120  73.847  1.00  0.00     0.000 HD 
ENDBRANCH  15  17
ENDBRANCH  14  15
ENDBRANCH  13  14
ENDBRANCH  12  13
ENDBRANCH   3  12
BRANCH   7  21
HETATM   21  C   UNL     1      -8.219   8.904  63.885  1.00  0.00    -0.171 C  
HETATM   22  O   UNL     1      -9.329   9.272  63.071  1.00  0.00    -0.500 OA 
HETATM   23  C   UNL     1      -8.012   7.398  63.813  1.00  0.00    -0.075 C  
HETATM   24  H   UNL     1      -9.137   8.995  62.183  1.00  0.00     0.000 HD 
ENDBRANCH   7  21
TORSDOF 6
ENDMDL
MODEL       97
REMARK 921   NORMALIZED FREE ENERGY PREDICTED BY IDOCK:   -4.23 KCAL/MOL
REMARK 922        TOTAL FREE ENERGY PREDICTED BY IDOCK:   -6.93 KCAL/MOL
REMARK 923 INTER-LIGAND FREE ENERGY PREDICTED BY IDOCK:   -6.47 KCAL/MOL
REMARK 924 INTRA-LIGAND FREE ENERGY PREDICTED BY IDOCK:   -0.46 KCAL/MOL
REMARK 927      BINDING AFFINITY PREDICTED BY RF-SCORE:    0.00 PKD
ROOT
HETATM    1  C   UNL     1      -9.582  13.001  66.718  1.00  0.00    -0.248 C  
HETATM    2  C   UNL     1      -9.684  14.520  66.782  1.00  0.00    -0.269 C  
HETATM    3  C   UNL     1     -10.492  14.753  68.034  1.00  0.00    -0.246 C  
HETATM    4  C   UNL     1     -11.130  11.681  67.217  1.00  0.00    -0.290 C  
HETATM    5  C   UNL     1     -10.818  13.586  68.620  1.00  0.00    -0.259 C  
HETATM    6  N   UNL     1     -10.294  12.497  67.931  1.00  0.00    -0.211 N  
HETATM    7  C   UNL     1     -10.573  12.154  65.864  1.00  0.00    -0.293 C  
HETATM    8  C   UNL     1     -11.681  13.374  69.830  1.00  0.00    -0.286 C  
HETATM    9  O   UNL     1     -11.888  12.074  70.140  1.00  0.00    -0.335 OA 
HETATM   10  O   UNL     1     -12.115  14.264  70.542  1.00  0.00    -0.299 OA 
HETATM   11  O   UNL     1     -12.013  10.971  67.632  1.00  0.00    -0.583 OA 
ENDROOT
BRANCH   3  12
HETATM   12  S   UNL     1     -11.001  16.362  68.363  1.00  0.00    -0.345 SA 
BRANCH  12  13
HETATM   13  C   UNL     1      -9.485  17.279  68.771  1.00  0.00    -0.256 C  
BRANCH  13  14
HETATM   14  C   UNL     1      -9.489  18.761  68.399  1.00  0.00    -0.349 C  
BRANCH  14  15
HETATM   15  N   UNL     1      -8.333  19.050  67.529  1.00  0.00    -0.275 NA 
HETATM   16  H   UNL     1      -7.576  19.678  67.800  1.00  0.00     0.000 HD 
BRANCH  15  17
HETATM   17  C   UNL     1      -8.366  18.439  66.401  1.00  0.00    -0.251 C  
HETATM   18  H1  UNL     1      -7.282  17.671  64.787  1.00  0.00     0.000 HD 
HETATM   19  N   UNL     1      -7.256  18.156  65.683  1.00  0.00    -0.544 NA 
HETATM   20  H2  UNL     1      -6.351  18.440  66.056  1.00  0.00     0.000 HD 
ENDBRANCH  15  17
ENDBRANCH  14  15
ENDBRANCH  13  14
ENDBRANCH  12  13
ENDBRANCH   3  12
BRANCH   7  21
HETATM   21  C   UNL     1      -9.957  11.079  64.987  1.00  0.00    -0.285 C  
HETATM   22  O   UNL     1      -8.542  11.224  65.060  1.00  0.00    -0.382 OA 
HETATM   23  C   UNL     1     -10.410  11.227  63.541  1.00  0.00    -0.463 C  
HETATM   24  H   UNL     1      -8.157  10.552  64.511  1.00  0.00     0.000 HD 
ENDBRANCH   7  21
TORSDOF 6
ENDMDL
MODEL       98
REMARK 921   NORMALIZED FREE ENERGY PREDICTED BY IDOCK:   -4.23 KCAL/MOL
REMARK 922        TOTAL FREE ENERGY PREDICTED BY IDOCK:   -6.92 KCAL/MOL
REMARK 923 INTER-LIGAND FREE ENERGY PREDICTED BY IDOCK:   -6.19 KCAL/MOL
REMARK 924 INTRA-LIGAND FREE ENERGY PREDICTED BY IDOCK:   -0.73 KCAL/MOL
REMARK 927      BINDING AFFINITY PREDICTED BY RF-SCORE:    0.00 PKD
ROOT
HETATM    1  C   UNL     1     -11.137  11.562  67.863  1.00  0.00    -0.256 C  
HETATM    2  C   UNL     1     -11.351  10.365  68.780  1.00  0.00    -0.275 C  
HETATM    3  C   UNL     1     -11.991  10.982  69.999  1.00  0.00    -0.351 C  
HETATM    4  C   UNL     1     -10.533  13.462  68.504  1.00  0.00    -0.252 C  
HETATM    5  C   UNL     1     -12.137  12.311  69.843  1.00  0.00    -0.249 C  
HETATM    6  N   UNL     1     -11.691  12.739  68.598  1.00  0.00    -0.307 N  
HETATM    7  C   UNL     1      -9.774  12.316  67.813  1.00  0.00    -0.199 C  
HETATM    8  C   UNL     1     -12.649  13.303  70.847  1.00  0.00    -0.306 C  
HETATM    9  O   UNL     1     -12.611  14.587  70.425  1.00  0.00    -0.339 OA 
HETATM   10  O   UNL     1     -13.134  13.015  71.929  1.00  0.00    -0.400 OA 
HETATM   11  O   UNL     1     -10.303  14.562  68.944  1.00  0.00    -0.233 OA 
ENDROOT
BRANCH   3  12
HETATM   12  S   UNL     1     -12.220   9.974  71.373  1.00  0.00    -0.425 SA 
BRANCH  12  13
HETATM   13  C   UNL     1     -11.187   8.507  71.079  1.00  0.00    -0.268 C  
BRANCH  13  14
HETATM   14  C   UNL     1     -11.946   7.203  70.833  1.00  0.00    -0.334 C  
BRANCH  14  15
HETATM   15  N   UNL     1     -11.719   6.760  69.444  1.00  0.00    -0.631 NA 
HETATM   16  H   UNL     1     -12.122   7.234  68.637  1.00  0.00     0.000 HD 
BRANCH  15  17
HETATM   17  C   UNL     1     -10.968   5.724  69.345  1.00  0.00    -0.282 C  
HETATM   18  H1  UNL     1      -9.860   4.255  70.337  1.00  0.00     0.000 HD 
HETATM   19  N   UNL     1     -10.456   5.078  70.416  1.00  0.00    -0.219 NA 
HETATM   20  H2  UNL     1     -10.677   5.431  71.347  1.00  0.00     0.000 HD 
ENDBRANCH  15  17
ENDBRANCH  14  15
ENDBRANCH  13  14
ENDBRANCH  12  13
ENDBRANCH   3  12
BRANCH   7  21
HETATM   21  C   UNL     1      -9.223  12.622  66.433  1.00  0.00    -0.160 C  
HETATM   22  O   UNL     1      -9.436  14.009  66.183  1.00  0.00    -0.417 OA 
HETATM   23  C   UNL     1      -9.932  11.799  65.365  1.00  0.00    -0.284 C  
HETATM   24  H   UNL     1      -9.090  14.200  65.319  1.00  0.00     0.000 HD 
ENDBRANCH   7  21
TORSDOF 6
ENDMDL
MODEL       99
REMARK 921   NORMALIZED FREE ENERGY PREDICTED BY IDOCK:   -4.17 KCAL/MOL
REMARK 922        TOTAL FREE ENERGY PREDICTED BY IDOCK:   -6.84 KCAL/MOL
REMARK 923 INTER-LIGAND FREE ENERGY PREDICTED BY IDOCK:   -5.90 KCAL/MOL
REMARK 924 INTRA-LIGAND FREE ENERGY PREDICTED BY IDOCK:   -0.94 KCAL/MOL
REMARK 927      BINDING AFFINITY PREDICTED BY RF-SCORE:    0.00 PKD
ROOT
HETATM    1  C   UNL     1      -9.298  11.419  65.009  1.00  0.00    -0.138 C  
HETATM    2  C   UNL     1     -10.291  12.561  64.835  1.00  0.00    -0.323 C  
HETATM    3  C   UNL     1     -11.179  12.425  66.046  1.00  0.00    -0.335 C  
HETATM    4  C   UNL     1      -9.786   9.514  65.730  1.00  0.00    -0.293 C  
HETATM    5  C   UNL     1     -10.791  11.388  66.812  1.00  0.00    -0.286 C  
HETATM    6  N   UNL     1      -9.666  10.755  66.295  1.00  0.00    -0.197 N  
HETATM    7  C   UNL     1      -9.512  10.041  64.312  1.00  0.00    -0.336 C  
HETATM    8  C   UNL     1     -11.454  10.863  68.053  1.00  0.00    -0.281 C  
HETATM    9  O   UNL     1     -10.870   9.757  68.566  1.00  0.00    -0.222 OA 
HETATM   10  O   UNL     1     -12.392  11.397  68.622  1.00  0.00    -0.491 OA 
HETATM   11  O   UNL     1     -10.102   8.479  66.263  1.00  0.00    -0.258 OA 
ENDROOT
BRANCH   3  12
HETATM   12  S   UNL     1     -12.573  13.428  66.126  1.00  0.00    -0.087 SA 
BRANCH  12  13
HETATM   13  C   UNL     1     -12.034  14.944  66.973  1.00  0.00    -0.107 C  
BRANCH  13  14
HETATM   14  C   UNL     1     -11.540  14.760  68.408  1.00  0.00    -0.324 C  
BRANCH  14  15
HETATM   15  N   UNL     1     -12.655  14.291  69.252  1.00  0.00    -0.483 NA 
HETATM   16  H   UNL     1     -13.233  13.486  69.013  1.00  0.00     0.000 HD 
BRANCH  15  17
HETATM   17  C   UNL     1     -12.831  14.988  70.315  1.00  0.00    -0.229 C  
HETATM   18  H1  UNL     1     -14.191  15.780  71.692  1.00  0.00     0.000 HD 
HETATM   19  N   UNL     1     -14.051  15.226  70.847  1.00  0.00    -0.813 NA 
HETATM   20  H2  UNL     1     -14.868  14.834  70.381  1.00  0.00     0.000 HD 
ENDBRANCH  15  17
ENDBRANCH  14  15
ENDBRANCH  13  14
ENDBRANCH  12  13
ENDBRANCH   3  12
BRANCH   7  21
HETATM   21  C   UNL     1      -8.306   9.449  63.605  1.00  0.00    -0.184 C  
HETATM   22  O   UNL     1      -8.431   8.031  63.658  1.00  0.00    -0.390 OA 
HETATM   23  C   UNL     1      -7.011   9.871  64.285  1.00  0.00    -0.128 C  
HETATM   24  H   UNL     1      -7.676   7.661  63.216  1.00  0.00     0.000 HD 
ENDBRANCH   7  21
TORSDOF 6
ENDMDL
MODEL      100
REMARK 921   NORMALIZED FREE ENERGY PREDICTED BY IDOCK:   -4.15 KCAL/MOL
REMARK 922        TOTAL FREE ENERGY PREDICTED BY IDOCK:   -6.82 KCAL/MOL
REMARK 923 INTER-LIGAND FREE ENERGY PREDICTED BY IDOCK:   -6.11 KCAL/MOL
REMARK 924 INTRA-LIGAND FREE ENERGY PREDICTED BY IDOCK:   -0.71 KCAL/MOL
REMARK 927      BINDING AFFINITY PREDICTED BY RF-SCORE:    0.00 PKD
ROOT
HETATM    1  C   UNL     1      -9.510   8.836  71.633  1.00  0.00    -0.288 C  
HETATM    2  C   UNL     1      -8.783   9.307  70.379  1.00  0.00    -0.263 C  
HETATM    3  C   UNL     1      -9.848  10.077  69.639  1.00  0.00    -0.235 C  
HETATM    4  C   UNL     1     -11.495   8.172  71.682  1.00  0.00    -0.274 C  
HETATM    5  C   UNL     1     -11.007  10.073  70.325  1.00  0.00    -0.316 C  
HETATM    6  N   UNL     1     -10.893   9.392  71.532  1.00  0.00    -0.359 N  
HETATM    7  C   UNL     1     -10.154   7.420  71.717  1.00  0.00    -0.197 C  
HETATM    8  C   UNL     1     -12.328  10.648  69.901  1.00  0.00    -0.235 C  
HETATM    9  O   UNL     1     -13.334  10.423  70.775  1.00  0.00    -0.322 OA 
HETATM   10  O   UNL     1     -12.505  11.327  68.904  1.00  0.00    -0.433 OA 
HETATM   11  O   UNL     1     -12.674   7.916  71.670  1.00  0.00    -0.315 OA 
ENDROOT
BRANCH   3  12
HETATM   12  S   UNL     1      -9.478  10.619  68.050  1.00  0.00    -0.161 SA 
BRANCH  12  13
HETATM   13  C   UNL     1      -9.128  12.396  68.211  1.00  0.00    -0.183 C  
BRANCH  13  14
HETATM   14  C   UNL     1      -9.767  13.295  67.153  1.00  0.00    -0.236 C  
BRANCH  14  15
HETATM   15  N   UNL     1      -9.440  12.778  65.811  1.00  0.00    -0.460 NA 
HETATM   16  H   UNL     1      -8.540  12.358  65.580  1.00  0.00     0.000 HD 
BRANCH  15  17
HETATM   17  C   UNL     1     -10.392  12.904  64.959  1.00  0.00    -0.315 C  
HETATM   18  H1  UNL     1     -11.489  14.189  63.727  1.00  0.00     0.000 HD 
HETATM   19  N   UNL     1     -10.733  14.089  64.404  1.00  0.00    -0.602 NA 
HETATM   20  H2  UNL     1     -10.210  14.920  64.676  1.00  0.00     0.000 HD 
ENDBRANCH  15  17
ENDBRANCH  14  15
ENDBRANCH  13  14
ENDBRANCH  12  13
ENDBRANCH   3  12
BRANCH   7  21
HETATM   21  C   UNL     1      -9.872   6.625  72.979  1.00  0.00    -0.168 C  
HETATM   22  O   UNL     1     -11.127   6.292  73.566  1.00  0.00    -0.454 OA 
HETATM   23  C   UNL     1      -9.048   7.439  73.967  1.00  0.00    -0.289 C  
HETATM   24  H   UNL     1     -10.950   5.794  74.356  1.00  0.00     0.000 HD 
ENDBRANCH   7  21
TORSDOF 6
ENDMDL
MODEL      101
REMARK 921   NORMALIZED FREE ENERGY PREDICTED BY IDOCK:   -4.15 KCAL/MOL
REMARK 922        TOTAL FREE ENERGY PREDICTED BY IDOCK:   -6.81 KCAL/MOL
REMARK 923 INTER-LIGAND FREE ENERGY PREDICTED BY IDOCK:   -6.40 KCAL/MOL
REMARK 924 INTRA-LIGAND FREE ENERGY PREDICTED BY IDOCK:   -0.42 KCAL/MOL
REMARK 927      BINDING AFFINITY PREDICTED BY RF-SCORE:    0.00 PKD
ROOT
HETATM    1  C   UNL     1     -11.361   9.012  70.501  1.00  0.00    -0.243 C  
HETATM    2  C   UNL     1     -11.390  10.500  70.177  1.00  0.00    -0.400 C  
HETATM    3  C   UNL     1     -10.776  10.559  68.800  1.00  0.00    -0.216 C  
HETATM    4  C   UNL     1      -9.793   7.715  70.007  1.00  0.00    -0.180 C  
HETATM    5  C   UNL     1     -10.438   9.328  68.373  1.00  0.00    -0.206 C  
HETATM    6  N   UNL     1     -10.778   8.347  69.297  1.00  0.00    -0.176 N  
HETATM    7  C   UNL     1     -10.202   8.382  71.331  1.00  0.00    -0.284 C  
HETATM    8  C   UNL     1      -9.729   8.960  67.102  1.00  0.00    -0.184 C  
HETATM    9  O   UNL     1      -9.462   7.640  66.981  1.00  0.00    -0.146 OA 
HETATM   10  O   UNL     1      -9.464   9.737  66.199  1.00  0.00    -0.175 OA 
HETATM   11  O   UNL     1      -8.919   6.995  69.591  1.00  0.00    -0.141 OA 
ENDROOT
BRANCH   3  12
HETATM   12  S   UNL     1     -10.445  12.113  68.144  1.00  0.00    -0.218 SA 
BRANCH  12  13
HETATM   13  C   UNL     1     -11.669  12.354  66.822  1.00  0.00    -0.362 C  
BRANCH  13  14
HETATM   14  C   UNL     1     -12.114  13.798  66.588  1.00  0.00    -0.429 C  
BRANCH  14  15
HETATM   15  N   UNL     1     -12.893  13.872  65.337  1.00  0.00    -0.722 NA 
HETATM   16  H   UNL     1     -13.626  14.564  65.179  1.00  0.00     0.000 HD 
BRANCH  15  17
HETATM   17  C   UNL     1     -12.567  12.988  64.467  1.00  0.00    -0.320 C  
HETATM   18  H1  UNL     1     -12.030  12.585  62.487  1.00  0.00     0.000 HD 
HETATM   19  N   UNL     1     -12.289  13.288  63.178  1.00  0.00    -0.859 NA 
HETATM   20  H2  UNL     1     -12.343  14.262  62.885  1.00  0.00     0.000 HD 
ENDBRANCH  15  17
ENDBRANCH  14  15
ENDBRANCH  13  14
ENDBRANCH  12  13
ENDBRANCH   3  12
BRANCH   7  21
HETATM   21  C   UNL     1     -10.609   7.442  72.451  1.00  0.00    -0.244 C  
HETATM   22  O   UNL     1     -11.968   7.724  72.776  1.00  0.00    -0.579 OA 
HETATM   23  C   UNL     1      -9.739   7.648  73.683  1.00  0.00    -0.314 C  
HETATM   24  H   UNL     1     -12.222   7.135  73.476  1.00  0.00     0.000 HD 
ENDBRANCH   7  21
TORSDOF 6
ENDMDL
MODEL      102
REMARK 921   NORMALIZED FREE ENERGY PREDICTED BY IDOCK:   -4.12 KCAL/MOL
REMARK 922        TOTAL FREE ENERGY PREDICTED BY IDOCK:   -6.78 KCAL/MOL
REMARK 923 INTER-LIGAND FREE ENERGY PREDICTED BY IDOCK:   -6.01 KCAL/MOL
REMARK 924 INTRA-LIGAND FREE ENERGY PREDICTED BY IDOCK:   -0.77 KCAL/MOL
REMARK 927      BINDING AFFINITY PREDICTED BY RF-SCORE:    0.00 PKD
ROOT
HETATM    1  C   UNL     1      -9.850  11.676  67.237  1.00  0.00    -0.187 C  
HETATM    2  C   UNL     1      -9.767  12.821  66.236  1.00  0.00    -0.262 C  
HETATM    3  C   UNL     1     -10.510  13.935  66.931  1.00  0.00    -0.276 C  
HETATM    4  C   UNL     1     -11.532  11.233  68.404  1.00  0.00    -0.307 C  
HETATM    5  C   UNL     1     -10.958  13.533  68.135  1.00  0.00    -0.254 C  
HETATM    6  N   UNL     1     -10.587  12.223  68.416  1.00  0.00    -0.229 N  
HETATM    7  C   UNL     1     -10.956  10.583  67.134  1.00  0.00    -0.294 C  
HETATM    8  C   UNL     1     -11.810  14.304  69.103  1.00  0.00    -0.330 C  
HETATM    9  O   UNL     1     -12.164  13.606  70.205  1.00  0.00    -0.330 OA 
HETATM   10  O   UNL     1     -12.117  15.478  68.981  1.00  0.00    -0.319 OA 
HETATM   11  O   UNL     1     -12.483  11.100  69.134  1.00  0.00    -0.418 OA 
ENDROOT
BRANCH   3  12
HETATM   12  S   UNL     1     -10.814  15.370  66.034  1.00  0.00    -0.290 SA 
BRANCH  12  13
HETATM   13  C   UNL     1      -9.312  16.379  66.207  1.00  0.00    -0.315 C  
BRANCH  13  14
HETATM   14  C   UNL     1      -9.045  16.934  67.606  1.00  0.00    -0.223 C  
BRANCH  14  15
HETATM   15  N   UNL     1      -8.957  18.405  67.540  1.00  0.00    -0.263 NA 
HETATM   16  H   UNL     1      -9.167  19.011  68.333  1.00  0.00     0.000 HD 
BRANCH  15  17
HETATM   17  C   UNL     1      -8.591  18.853  66.395  1.00  0.00    -0.294 C  
HETATM   18  H1  UNL     1      -8.522  20.483  65.086  1.00  0.00     0.000 HD 
HETATM   19  N   UNL     1      -8.812  20.126  65.996  1.00  0.00    -0.568 NA 
HETATM   20  H2  UNL     1      -9.290  20.759  66.636  1.00  0.00     0.000 HD 
ENDBRANCH  15  17
ENDBRANCH  14  15
ENDBRANCH  13  14
ENDBRANCH  12  13
ENDBRANCH   3  12
BRANCH   7  21
HETATM   21  C   UNL     1     -10.496   9.144  67.275  1.00  0.00    -0.265 C  
HETATM   22  O   UNL     1     -10.969   8.663  68.530  1.00  0.00    -0.443 OA 
HETATM   23  C   UNL     1      -8.978   9.047  67.233  1.00  0.00    -0.139 C  
HETATM   24  H   UNL     1     -10.682   7.762  68.618  1.00  0.00     0.000 HD 
ENDBRANCH   7  21
TORSDOF 6
ENDMDL
MODEL      103
REMARK 921   NORMALIZED FREE ENERGY PREDICTED BY IDOCK:   -4.10 KCAL/MOL
REMARK 922        TOTAL FREE ENERGY PREDICTED BY IDOCK:   -6.75 KCAL/MOL
REMARK 923 INTER-LIGAND FREE ENERGY PREDICTED BY IDOCK:   -6.54 KCAL/MOL
REMARK 924 INTRA-LIGAND FREE ENERGY PREDICTED BY IDOCK:   -0.20 KCAL/MOL
REMARK 927      BINDING AFFINITY PREDICTED BY RF-SCORE:    0.00 PKD
ROOT
HETATM    1  C   UNL     1      -8.776  13.968  67.583  1.00  0.00    -0.189 C  
HETATM    2  C   UNL     1      -9.412  12.865  68.419  1.00  0.00    -0.162 C  
HETATM    3  C   UNL     1     -10.623  12.478  67.606  1.00  0.00    -0.217 C  
HETATM    4  C   UNL     1      -9.842  15.440  66.543  1.00  0.00    -0.272 C  
HETATM    5  C   UNL     1     -10.700  13.215  66.482  1.00  0.00    -0.279 C  
HETATM    6  N   UNL     1      -9.633  14.099  66.367  1.00  0.00    -0.293 N  
HETATM    7  C   UNL     1      -9.063  15.473  67.868  1.00  0.00    -0.175 C  
HETATM    8  C   UNL     1     -11.790  13.203  65.449  1.00  0.00    -0.372 C  
HETATM    9  O   UNL     1     -11.626  14.112  64.462  1.00  0.00    -0.380 OA 
HETATM   10  O   UNL     1     -12.719  12.412  65.423  1.00  0.00    -0.582 OA 
HETATM   11  O   UNL     1     -10.509  16.186  65.868  1.00  0.00    -0.330 OA 
ENDROOT
BRANCH   3  12
HETATM   12  S   UNL     1     -11.736  11.375  68.313  1.00  0.00    -0.251 SA 
BRANCH  12  13
HETATM   13  C   UNL     1     -10.820  10.545  69.646  1.00  0.00    -0.274 C  
BRANCH  13  14
HETATM   14  C   UNL     1     -11.565  10.406  70.973  1.00  0.00    -0.295 C  
BRANCH  14  15
HETATM   15  N   UNL     1     -12.711   9.493  70.797  1.00  0.00    -0.519 NA 
HETATM   16  H   UNL     1     -13.220   9.403  69.918  1.00  0.00     0.000 HD 
BRANCH  15  17
HETATM   17  C   UNL     1     -13.008   8.823  71.850  1.00  0.00    -0.376 C  
HETATM   18  H1  UNL     1     -14.208   8.672  73.556  1.00  0.00     0.000 HD 
HETATM   19  N   UNL     1     -13.971   9.204  72.719  1.00  0.00    -0.969 NA 
HETATM   20  H2  UNL     1     -14.483  10.065  72.529  1.00  0.00     0.000 HD 
ENDBRANCH  15  17
ENDBRANCH  14  15
ENDBRANCH  13  14
ENDBRANCH  12  13
ENDBRANCH   3  12
BRANCH   7  21
HETATM   21  C   UNL     1      -7.856  16.393  67.906  1.00  0.00    -0.152 C  
HETATM   22  O   UNL     1      -7.371  16.410  69.246  1.00  0.00    -0.228 OA 
HETATM   23  C   UNL     1      -8.232  17.807  67.483  1.00  0.00    -0.228 C  
HETATM   24  H   UNL     1      -6.616  16.986  69.269  1.00  0.00     0.000 HD 
ENDBRANCH   7  21
TORSDOF 6
ENDMDL
MODEL      104
REMARK 921   NORMALIZED FREE ENERGY PREDICTED BY IDOCK:   -4.09 KCAL/MOL
REMARK 922        TOTAL FREE ENERGY PREDICTED BY IDOCK:   -6.73 KCAL/MOL
REMARK 923 INTER-LIGAND FREE ENERGY PREDICTED BY IDOCK:   -6.01 KCAL/MOL
REMARK 924 INTRA-LIGAND FREE ENERGY PREDICTED BY IDOCK:   -0.73 KCAL/MOL
REMARK 927      BINDING AFFINITY PREDICTED BY RF-SCORE:    0.00 PKD
ROOT
HETATM    1  C   UNL     1     -11.714  11.758  68.121  1.00  0.00    -0.307 C  
HETATM    2  C   UNL     1     -10.847  10.507  68.057  1.00  0.00    -0.312 C  
HETATM    3  C   UNL     1     -11.149   9.818  69.364  1.00  0.00    -0.170 C  
HETATM    4  C   UNL     1     -12.032  12.900  69.847  1.00  0.00    -0.307 C  
HETATM    5  C   UNL     1     -12.038  10.526  70.086  1.00  0.00    -0.300 C  
HETATM    6  N   UNL     1     -12.454  11.672  69.416  1.00  0.00    -0.037 N  
HETATM    7  C   UNL     1     -11.141  13.121  68.614  1.00  0.00    -0.304 C  
HETATM    8  C   UNL     1     -12.537  10.235  71.472  1.00  0.00    -0.440 C  
HETATM    9  O   UNL     1     -13.376  11.173  71.965  1.00  0.00    -0.454 OA 
HETATM   10  O   UNL     1     -12.292   9.220  72.103  1.00  0.00    -0.363 OA 
HETATM   11  O   UNL     1     -12.276  13.447  70.895  1.00  0.00    -0.354 OA 
ENDROOT
BRANCH   3  12
HETATM   12  S   UNL     1     -10.208   8.438  69.772  1.00  0.00    -0.211 SA 
BRANCH  12  13
HETATM   13  C   UNL     1      -8.903   9.049  70.880  1.00  0.00    -0.240 C  
BRANCH  13  14
HETATM   14  C   UNL     1      -8.817   8.361  72.243  1.00  0.00    -0.220 C  
BRANCH  14  15
HETATM   15  N   UNL     1      -7.569   8.766  72.917  1.00  0.00    -0.366 NA 
HETATM   16  H   UNL     1      -6.978   9.526  72.582  1.00  0.00     0.000 HD 
BRANCH  15  17
HETATM   17  C   UNL     1      -7.295   8.074  73.963  1.00  0.00    -0.162 C  
HETATM   18  H1  UNL     1      -5.848   7.023  75.045  1.00  0.00     0.000 HD 
HETATM   19  N   UNL     1      -6.065   7.573  74.214  1.00  0.00    -0.076 NA 
HETATM   20  H2  UNL     1      -5.321   7.752  73.541  1.00  0.00     0.000 HD 
ENDBRANCH  15  17
ENDBRANCH  14  15
ENDBRANCH  13  14
ENDBRANCH  12  13
ENDBRANCH   3  12
BRANCH   7  21
HETATM   21  C   UNL     1     -11.469  14.336  67.766  1.00  0.00    -0.329 C  
HETATM   22  O   UNL     1     -12.297  15.194  68.548  1.00  0.00    -0.572 OA 
HETATM   23  C   UNL     1     -12.207  13.936  66.497  1.00  0.00    -0.482 C  
HETATM   24  H   UNL     1     -12.502  15.954  68.017  1.00  0.00     0.000 HD 
ENDBRANCH   7  21
TORSDOF 6
ENDMDL
MODEL      105
REMARK 921   NORMALIZED FREE ENERGY PREDICTED BY IDOCK:   -4.09 KCAL/MOL
REMARK 922        TOTAL FREE ENERGY PREDICTED BY IDOCK:   -6.73 KCAL/MOL
REMARK 923 INTER-LIGAND FREE ENERGY PREDICTED BY IDOCK:   -6.13 KCAL/MOL
REMARK 924 INTRA-LIGAND FREE ENERGY PREDICTED BY IDOCK:   -0.60 KCAL/MOL
REMARK 927      BINDING AFFINITY PREDICTED BY RF-SCORE:    0.00 PKD
ROOT
HETATM    1  C   UNL     1     -10.472  12.426  66.172  1.00  0.00    -0.248 C  
HETATM    2  C   UNL     1     -10.165  11.169  66.976  1.00  0.00    -0.251 C  
HETATM    3  C   UNL     1      -9.584  10.238  65.940  1.00  0.00    -0.209 C  
HETATM    4  C   UNL     1     -11.234  12.437  64.221  1.00  0.00    -0.353 C  
HETATM    5  C   UNL     1      -9.547  10.829  64.731  1.00  0.00    -0.262 C  
HETATM    6  N   UNL     1     -10.020  12.136  64.778  1.00  0.00    -0.235 N  
HETATM    7  C   UNL     1     -11.892  12.692  65.588  1.00  0.00    -0.488 C  
HETATM    8  C   UNL     1      -9.123  10.222  63.425  1.00  0.00    -0.262 C  
HETATM    9  O   UNL     1      -9.264  11.045  62.362  1.00  0.00    -0.302 OA 
HETATM   10  O   UNL     1      -8.622   9.117  63.298  1.00  0.00    -0.202 OA 
HETATM   11  O   UNL     1     -11.556  12.382  63.060  1.00  0.00    -0.288 OA 
ENDROOT
BRANCH   3  12
HETATM   12  S   UNL     1      -9.280   8.613  66.413  1.00  0.00    -0.208 SA 
BRANCH  12  13
HETATM   13  C   UNL     1     -10.825   8.030  67.175  1.00  0.00    -0.080 C  
BRANCH  13  14
HETATM   14  C   UNL     1     -10.840   6.562  67.599  1.00  0.00    -0.337 C  
BRANCH  14  15
HETATM   15  N   UNL     1     -11.336   6.459  68.985  1.00  0.00    -0.581 NA 
HETATM   16  H   UNL     1     -12.164   6.953  69.317  1.00  0.00     0.000 HD 
BRANCH  15  17
HETATM   17  C   UNL     1     -10.631   5.693  69.734  1.00  0.00    -0.329 C  
HETATM   18  H1  UNL     1      -9.277   5.548  71.321  1.00  0.00     0.000 HD 
HETATM   19  N   UNL     1      -9.838   6.156  70.726  1.00  0.00    -0.183 NA 
HETATM   20  H2  UNL     1      -9.798   7.162  70.885  1.00  0.00     0.000 HD 
ENDBRANCH  15  17
ENDBRANCH  14  15
ENDBRANCH  13  14
ENDBRANCH  12  13
ENDBRANCH   3  12
BRANCH   7  21
HETATM   21  C   UNL     1     -12.459  14.083  65.802  1.00  0.00    -0.494 C  
HETATM   22  O   UNL     1     -12.788  14.615  64.522  1.00  0.00    -0.579 OA 
HETATM   23  C   UNL     1     -11.444  14.990  66.484  1.00  0.00    -0.239 C  
HETATM   24  H   UNL     1     -13.143  15.486  64.656  1.00  0.00     0.000 HD 
ENDBRANCH   7  21
TORSDOF 6
ENDMDL
MODEL      106
REMARK 921   NORMALIZED FREE ENERGY PREDICTED BY IDOCK:   -4.04 KCAL/MOL
REMARK 922        TOTAL FREE ENERGY PREDICTED BY IDOCK:   -6.66 KCAL/MOL
REMARK 923 INTER-LIGAND FREE ENERGY PREDICTED BY IDOCK:   -6.03 KCAL/MOL
REMARK 924 INTRA-LIGAND FREE ENERGY PREDICTED BY IDOCK:   -0.63 KCAL/MOL
REMARK 927      BINDING AFFINITY PREDICTED BY RF-SCORE:    0.00 PKD
ROOT
HETATM    1  C   UNL     1      -9.325  11.364  65.034  1.00  0.00    -0.138 C  
HETATM    2  C   UNL     1     -10.317  12.517  64.938  1.00  0.00    -0.323 C  
HETATM    3  C   UNL     1     -11.028  12.463  66.267  1.00  0.00    -0.286 C  
HETATM    4  C   UNL     1      -9.733   9.511  65.920  1.00  0.00    -0.282 C  
HETATM    5  C   UNL     1     -10.550  11.460  67.027  1.00  0.00    -0.248 C  
HETATM    6  N   UNL     1      -9.517  10.777  66.394  1.00  0.00    -0.168 N  
HETATM    7  C   UNL     1      -9.653   9.957  64.451  1.00  0.00    -0.257 C  
HETATM    8  C   UNL     1     -11.039  11.015  68.376  1.00  0.00    -0.251 C  
HETATM    9  O   UNL     1     -10.403   9.926  68.862  1.00  0.00    -0.187 OA 
HETATM   10  O   UNL     1     -11.879  11.598  69.040  1.00  0.00    -0.297 OA 
HETATM   11  O   UNL     1      -9.984   8.512  66.549  1.00  0.00    -0.259 OA 
ENDROOT
BRANCH   3  12
HETATM   12  S   UNL     1     -12.383  13.499  66.486  1.00  0.00    -0.264 SA 
BRANCH  12  13
HETATM   13  C   UNL     1     -11.705  15.060  67.126  1.00  0.00    -0.215 C  
BRANCH  13  14
HETATM   14  C   UNL     1     -10.193  15.231  66.985  1.00  0.00    -0.260 C  
BRANCH  14  15
HETATM   15  N   UNL     1      -9.902  16.035  65.783  1.00  0.00    -0.357 NA 
HETATM   16  H   UNL     1      -9.005  16.006  65.299  1.00  0.00     0.000 HD 
BRANCH  15  17
HETATM   17  C   UNL     1     -10.879  16.775  65.403  1.00  0.00    -0.141 C  
HETATM   18  H1  UNL     1     -12.157  17.336  63.846  1.00  0.00     0.000 HD 
HETATM   19  N   UNL     1     -11.380  16.748  64.148  1.00  0.00    -1.400 NA 
HETATM   20  H2  UNL     1     -10.962  16.110  63.473  1.00  0.00     0.000 HD 
ENDBRANCH  15  17
ENDBRANCH  14  15
ENDBRANCH  13  14
ENDBRANCH  12  13
ENDBRANCH   3  12
BRANCH   7  21
HETATM   21  C   UNL     1      -8.567   9.303  63.616  1.00  0.00    -0.196 C  
HETATM   22  O   UNL     1      -8.544   7.919  63.951  1.00  0.00    -0.381 OA 
HETATM   23  C   UNL     1      -7.206   9.920  63.908  1.00  0.00    -0.126 C  
HETATM   24  H   UNL     1      -7.864   7.510  63.429  1.00  0.00     0.000 HD 
ENDBRANCH   7  21
TORSDOF 6
ENDMDL
MODEL      107
REMARK 921   NORMALIZED FREE ENERGY PREDICTED BY IDOCK:   -4.00 KCAL/MOL
REMARK 922        TOTAL FREE ENERGY PREDICTED BY IDOCK:   -6.62 KCAL/MOL
REMARK 923 INTER-LIGAND FREE ENERGY PREDICTED BY IDOCK:   -6.19 KCAL/MOL
REMARK 924 INTRA-LIGAND FREE ENERGY PREDICTED BY IDOCK:   -0.43 KCAL/MOL
REMARK 927      BINDING AFFINITY PREDICTED BY RF-SCORE:    0.00 PKD
ROOT
HETATM    1  C   UNL     1      -9.374   9.242  66.632  1.00  0.00    -0.170 C  
HETATM    2  C   UNL     1     -10.173  10.206  65.765  1.00  0.00    -0.283 C  
HETATM    3  C   UNL     1      -9.402  10.213  64.468  1.00  0.00    -0.289 C  
HETATM    4  C   UNL     1      -7.283   9.121  66.665  1.00  0.00    -0.085 C  
HETATM    5  C   UNL     1      -8.333   9.399  64.540  1.00  0.00    -0.164 C  
HETATM    6  N   UNL     1      -8.254   8.756  65.771  1.00  0.00    -0.115 N  
HETATM    7  C   UNL     1      -8.296   9.752  67.635  1.00  0.00    -0.114 C  
HETATM    8  C   UNL     1      -7.267   9.187  63.504  1.00  0.00    -0.092 C  
HETATM    9  O   UNL     1      -6.274   8.358  63.895  1.00  0.00    -0.070 OA 
HETATM   10  O   UNL     1      -7.294   9.642  62.373  1.00  0.00    -0.108 OA 
HETATM   11  O   UNL     1      -6.087   9.013  66.552  1.00  0.00    -0.061 OA 
ENDROOT
BRANCH   3  12
HETATM   12  S   UNL     1      -9.878  11.348  63.267  1.00  0.00    -0.409 SA 
BRANCH  12  13
HETATM   13  C   UNL     1     -10.645  12.724  64.173  1.00  0.00    -0.415 C  
BRANCH  13  14
HETATM   14  C   UNL     1     -12.130  12.955  63.893  1.00  0.00    -0.480 C  
BRANCH  14  15
HETATM   15  N   UNL     1     -12.367  14.392  63.664  1.00  0.00    -1.106 NA 
HETATM   16  H   UNL     1     -13.120  14.745  63.073  1.00  0.00     0.000 HD 
BRANCH  15  17
HETATM   17  C   UNL     1     -11.540  15.160  64.275  1.00  0.00    -0.184 C  
HETATM   18  H1  UNL     1     -10.699  17.068  64.431  1.00  0.00     0.000 HD 
HETATM   19  N   UNL     1     -11.356  16.458  63.946  1.00  0.00    -1.535 NA 
HETATM   20  H2  UNL     1     -11.900  16.845  63.175  1.00  0.00     0.000 HD 
ENDBRANCH  15  17
ENDBRANCH  14  15
ENDBRANCH  13  14
ENDBRANCH  12  13
ENDBRANCH   3  12
BRANCH   7  21
HETATM   21  C   UNL     1      -8.338   9.156  69.031  1.00  0.00    -0.127 C  
HETATM   22  O   UNL     1      -8.708   7.786  68.901  1.00  0.00    -0.134 OA 
HETATM   23  C   UNL     1      -9.356   9.877  69.903  1.00  0.00    -0.250 C  
HETATM   24  H   UNL     1      -8.735   7.413  69.774  1.00  0.00     0.000 HD 
ENDBRANCH   7  21
TORSDOF 6
ENDMDL
MODEL      108
REMARK 921   NORMALIZED FREE ENERGY PREDICTED BY IDOCK:   -4.00 KCAL/MOL
REMARK 922        TOTAL FREE ENERGY PREDICTED BY IDOCK:   -6.62 KCAL/MOL
REMARK 923 INTER-LIGAND FREE ENERGY PREDICTED BY IDOCK:   -5.98 KCAL/MOL
REMARK 924 INTRA-LIGAND FREE ENERGY PREDICTED BY IDOCK:   -0.64 KCAL/MOL
REMARK 927      BINDING AFFINITY PREDICTED BY RF-SCORE:    0.00 PKD
ROOT
HETATM    1  C   UNL     1     -11.367  11.806  65.743  1.00  0.00    -0.250 C  
HETATM    2  C   UNL     1     -10.142  10.913  65.594  1.00  0.00    -0.318 C  
HETATM    3  C   UNL     1      -9.875  10.465  67.010  1.00  0.00    -0.191 C  
HETATM    4  C   UNL     1     -11.689  13.133  67.330  1.00  0.00    -0.370 C  
HETATM    5  C   UNL     1     -10.777  10.993  67.858  1.00  0.00    -0.219 C  
HETATM    6  N   UNL     1     -11.719  11.772  67.194  1.00  0.00    -0.255 N  
HETATM    7  C   UNL     1     -11.235  13.353  65.877  1.00  0.00    -0.314 C  
HETATM    8  C   UNL     1     -10.817  10.866  69.354  1.00  0.00    -0.240 C  
HETATM    9  O   UNL     1     -11.808  11.572  69.942  1.00  0.00    -0.302 OA 
HETATM   10  O   UNL     1     -10.086  10.145  70.012  1.00  0.00    -0.247 OA 
HETATM   11  O   UNL     1     -11.877  13.788  68.327  1.00  0.00    -0.344 OA 
ENDROOT
BRANCH   3  12
HETATM   12  S   UNL     1      -8.431   9.580  67.305  1.00  0.00    -0.128 SA 
BRANCH  12  13
HETATM   13  C   UNL     1      -7.192  10.278  66.173  1.00  0.00    -0.121 C  
BRANCH  13  14
HETATM   14  C   UNL     1      -7.004   9.527  64.854  1.00  0.00    -0.106 C  
BRANCH  14  15
HETATM   15  N   UNL     1      -6.835  10.500  63.758  1.00  0.00    -0.348 NA 
HETATM   16  H   UNL     1      -6.087  11.192  63.739  1.00  0.00     0.000 HD 
BRANCH  15  17
HETATM   17  C   UNL     1      -7.716  10.396  62.831  1.00  0.00    -0.131 C  
HETATM   18  H1  UNL     1      -9.293  11.299  61.796  1.00  0.00     0.000 HD 
HETATM   19  N   UNL     1      -8.593  11.381  62.533  1.00  0.00    -0.587 NA 
HETATM   20  H2  UNL     1      -8.552  12.246  63.070  1.00  0.00     0.000 HD 
ENDBRANCH  15  17
ENDBRANCH  14  15
ENDBRANCH  13  14
ENDBRANCH  12  13
ENDBRANCH   3  12
BRANCH   7  21
HETATM   21  C   UNL     1     -12.162  14.186  65.011  1.00  0.00    -0.441 C  
HETATM   22  O   UNL     1     -13.424  14.250  65.671  1.00  0.00    -0.688 OA 
HETATM   23  C   UNL     1     -12.339  13.558  63.636  1.00  0.00    -0.377 C  
HETATM   24  H   UNL     1     -14.003  14.772  65.128  1.00  0.00     0.000 HD 
ENDBRANCH   7  21
TORSDOF 6
ENDMDL
MODEL      109
REMARK 921   NORMALIZED FREE ENERGY PREDICTED BY IDOCK:   -3.96 KCAL/MOL
REMARK 922        TOTAL FREE ENERGY PREDICTED BY IDOCK:   -6.57 KCAL/MOL
REMARK 923 INTER-LIGAND FREE ENERGY PREDICTED BY IDOCK:   -5.95 KCAL/MOL
REMARK 924 INTRA-LIGAND FREE ENERGY PREDICTED BY IDOCK:   -0.61 KCAL/MOL
REMARK 927      BINDING AFFINITY PREDICTED BY RF-SCORE:    0.00 PKD
ROOT
HETATM    1  C   UNL     1      -9.926  10.752  68.551  1.00  0.00    -0.178 C  
HETATM    2  C   UNL     1      -9.182   9.436  68.361  1.00  0.00    -0.127 C  
HETATM    3  C   UNL     1      -8.948   9.389  66.872  1.00  0.00    -0.131 C  
HETATM    4  C   UNL     1     -11.387  11.492  67.246  1.00  0.00    -0.290 C  
HETATM    5  C   UNL     1      -9.458  10.481  66.272  1.00  0.00    -0.177 C  
HETATM    6  N   UNL     1     -10.026  11.359  67.189  1.00  0.00    -0.190 N  
HETATM    7  C   UNL     1     -11.482  10.804  68.618  1.00  0.00    -0.365 C  
HETATM    8  C   UNL     1      -9.512  10.782  64.802  1.00  0.00    -0.247 C  
HETATM    9  O   UNL     1     -10.155  11.930  64.496  1.00  0.00    -0.263 OA 
HETATM   10  O   UNL     1      -8.974  10.115  63.934  1.00  0.00    -0.201 OA 
HETATM   11  O   UNL     1     -12.130  11.925  66.400  1.00  0.00    -0.552 OA 
ENDROOT
BRANCH   3  12
HETATM   12  S   UNL     1      -8.293   7.942  66.215  1.00  0.00    -0.133 SA 
BRANCH  12  13
HETATM   13  C   UNL     1      -8.987   6.594  67.217  1.00  0.00    -0.115 C  
BRANCH  13  14
HETATM   14  C   UNL     1     -10.431   6.208  66.897  1.00  0.00    -0.276 C  
BRANCH  14  15
HETATM   15  N   UNL     1     -11.332   6.818  67.894  1.00  0.00    -0.568 NA 
HETATM   16  H   UNL     1     -12.041   7.510  67.652  1.00  0.00     0.000 HD 
BRANCH  15  17
HETATM   17  C   UNL     1     -11.142   6.400  69.092  1.00  0.00    -0.365 C  
HETATM   18  H1  UNL     1     -11.428   6.735  71.136  1.00  0.00     0.000 HD 
HETATM   19  N   UNL     1     -11.579   7.066  70.184  1.00  0.00    -0.511 NA 
HETATM   20  H2  UNL     1     -12.083   7.942  70.048  1.00  0.00     0.000 HD 
ENDBRANCH  15  17
ENDBRANCH  14  15
ENDBRANCH  13  14
ENDBRANCH  12  13
ENDBRANCH   3  12
BRANCH   7  21
HETATM   21  C   UNL     1     -12.080  11.635  69.738  1.00  0.00    -0.289 C  
HETATM   22  O   UNL     1     -11.225  12.757  69.944  1.00  0.00    -0.490 OA 
HETATM   23  C   UNL     1     -12.180  10.829  71.026  1.00  0.00    -0.485 C  
HETATM   24  H   UNL     1     -11.600  13.277  70.645  1.00  0.00     0.000 HD 
ENDBRANCH   7  21
TORSDOF 6
ENDMDL
MODEL      110
REMARK 921   NORMALIZED FREE ENERGY PREDICTED BY IDOCK:   -3.96 KCAL/MOL
REMARK 922        TOTAL FREE ENERGY PREDICTED BY IDOCK:   -6.56 KCAL/MOL
REMARK 923 INTER-LIGAND FREE ENERGY PREDICTED BY IDOCK:   -5.51 KCAL/MOL
REMARK 924 INTRA-LIGAND FREE ENERGY PREDICTED BY IDOCK:   -1.05 KCAL/MOL
REMARK 927      BINDING AFFINITY PREDICTED BY RF-SCORE:    0.00 PKD
ROOT
HETATM    1  C   UNL     1      -9.099   9.905  65.465  1.00  0.00    -0.189 C  
HETATM    2  C   UNL     1      -8.778  10.732  66.704  1.00  0.00    -0.149 C  
HETATM    3  C   UNL     1      -9.473  12.042  66.426  1.00  0.00    -0.231 C  
HETATM    4  C   UNL     1      -9.156  10.658  63.512  1.00  0.00    -0.238 C  
HETATM    5  C   UNL     1     -10.100  12.010  65.236  1.00  0.00    -0.260 C  
HETATM    6  N   UNL     1      -9.963  10.775  64.611  1.00  0.00    -0.298 N  
HETATM    7  C   UNL     1      -8.110   9.820  64.264  1.00  0.00    -0.152 C  
HETATM    8  C   UNL     1     -10.833  13.128  64.552  1.00  0.00    -0.383 C  
HETATM    9  O   UNL     1     -11.299  12.813  63.324  1.00  0.00    -0.446 OA 
HETATM   10  O   UNL     1     -11.072  14.214  65.053  1.00  0.00    -0.334 OA 
HETATM   11  O   UNL     1      -9.293  11.171  62.428  1.00  0.00    -0.282 OA 
ENDROOT
BRANCH   3  12
HETATM   12  S   UNL     1      -9.188  13.339  67.518  1.00  0.00    -0.225 SA 
BRANCH  12  13
HETATM   13  C   UNL     1     -10.461  13.180  68.807  1.00  0.00    -0.167 C  
BRANCH  13  14
HETATM   14  C   UNL     1     -11.908  13.221  68.316  1.00  0.00    -0.354 C  
BRANCH  14  15
HETATM   15  N   UNL     1     -12.176  14.532  67.695  1.00  0.00    -0.614 NA 
HETATM   16  H   UNL     1     -12.494  14.636  66.732  1.00  0.00     0.000 HD 
BRANCH  15  17
HETATM   17  C   UNL     1     -11.973  15.529  68.476  1.00  0.00    -0.158 C  
HETATM   18  H1  UNL     1     -10.938  17.314  68.815  1.00  0.00     0.000 HD 
HETATM   19  N   UNL     1     -11.100  16.521  68.194  1.00  0.00    -0.340 NA 
HETATM   20  H2  UNL     1     -10.579  16.475  67.319  1.00  0.00     0.000 HD 
ENDBRANCH  15  17
ENDBRANCH  14  15
ENDBRANCH  13  14
ENDBRANCH  12  13
ENDBRANCH   3  12
BRANCH   7  21
HETATM   21  C   UNL     1      -7.844   8.433  63.707  1.00  0.00    -0.151 C  
HETATM   22  O   UNL     1      -8.819   8.181  62.699  1.00  0.00    -0.417 OA 
HETATM   23  C   UNL     1      -7.953   7.375  64.796  1.00  0.00    -0.127 C  
HETATM   24  H   UNL     1      -8.653   7.313  62.351  1.00  0.00     0.000 HD 
ENDBRANCH   7  21
TORSDOF 6
ENDMDL
MODEL      111
REMARK 921   NORMALIZED FREE ENERGY PREDICTED BY IDOCK:   -3.96 KCAL/MOL
REMARK 922        TOTAL FREE ENERGY PREDICTED BY IDOCK:   -6.56 KCAL/MOL
REMARK 923 INTER-LIGAND FREE ENERGY PREDICTED BY IDOCK:   -5.98 KCAL/MOL
REMARK 924 INTRA-LIGAND FREE ENERGY PREDICTED BY IDOCK:   -0.58 KCAL/MOL
REMARK 927      BINDING AFFINITY PREDICTED BY RF-SCORE:    0.00 PKD
ROOT
HETATM    1  C   UNL     1     -11.220   9.766  69.714  1.00  0.00    -0.202 C  
HETATM    2  C   UNL     1     -11.488  11.089  69.007  1.00  0.00    -0.368 C  
HETATM    3  C   UNL     1     -10.974  10.837  67.611  1.00  0.00    -0.306 C  
HETATM    4  C   UNL     1      -9.511   8.590  69.433  1.00  0.00    -0.161 C  
HETATM    5  C   UNL     1     -10.486   9.588  67.498  1.00  0.00    -0.275 C  
HETATM    6  N   UNL     1     -10.620   8.870  68.681  1.00  0.00    -0.186 N  
HETATM    7  C   UNL     1      -9.932   9.544  70.563  1.00  0.00    -0.335 C  
HETATM    8  C   UNL     1      -9.808   8.970  66.309  1.00  0.00    -0.291 C  
HETATM    9  O   UNL     1      -9.357   7.713  66.521  1.00  0.00    -0.175 OA 
HETATM   10  O   UNL     1      -9.717   9.490  65.209  1.00  0.00    -0.293 OA 
HETATM   11  O   UNL     1      -8.567   7.897  69.141  1.00  0.00    -0.135 OA 
ENDROOT
BRANCH   3  12
HETATM   12  S   UNL     1     -10.916  12.174  66.532  1.00  0.00    -0.298 SA 
BRANCH  12  13
HETATM   13  C   UNL     1     -12.152  13.354  67.152  1.00  0.00    -0.318 C  
BRANCH  13  14
HETATM   14  C   UNL     1     -11.594  14.554  67.918  1.00  0.00    -0.344 C  
BRANCH  14  15
HETATM   15  N   UNL     1     -12.359  14.735  69.166  1.00  0.00    -0.577 NA 
HETATM   16  H   UNL     1     -13.254  14.277  69.342  1.00  0.00     0.000 HD 
BRANCH  15  17
HETATM   17  C   UNL     1     -11.798  15.520  70.011  1.00  0.00    -0.359 C  
HETATM   18  H1  UNL     1     -11.986  16.630  71.774  1.00  0.00     0.000 HD 
HETATM   19  N   UNL     1     -12.432  16.005  71.102  1.00  0.00    -0.561 NA 
HETATM   20  H2  UNL     1     -13.402  15.734  71.261  1.00  0.00     0.000 HD 
ENDBRANCH  15  17
ENDBRANCH  14  15
ENDBRANCH  13  14
ENDBRANCH  12  13
ENDBRANCH   3  12
BRANCH   7  21
HETATM   21  C   UNL     1     -10.127   8.911  71.929  1.00  0.00    -0.322 C  
HETATM   22  O   UNL     1      -8.931   8.204  72.249  1.00  0.00    -0.149 OA 
HETATM   23  C   UNL     1     -11.302   7.944  71.923  1.00  0.00    -0.324 C  
HETATM   24  H   UNL     1      -9.053   7.809  73.104  1.00  0.00     0.000 HD 
ENDBRANCH   7  21
TORSDOF 6
ENDMDL
MODEL      112
REMARK 921   NORMALIZED FREE ENERGY PREDICTED BY IDOCK:   -3.93 KCAL/MOL
REMARK 922        TOTAL FREE ENERGY PREDICTED BY IDOCK:   -6.52 KCAL/MOL
REMARK 923 INTER-LIGAND FREE ENERGY PREDICTED BY IDOCK:   -5.95 KCAL/MOL
REMARK 924 INTRA-LIGAND FREE ENERGY PREDICTED BY IDOCK:   -0.57 KCAL/MOL
REMARK 927      BINDING AFFINITY PREDICTED BY RF-SCORE:    0.00 PKD
ROOT
HETATM    1  C   UNL     1     -11.357  12.732  68.547  1.00  0.00    -0.291 C  
HETATM    2  C   UNL     1     -11.451  14.143  69.113  1.00  0.00    -0.338 C  
HETATM    3  C   UNL     1     -11.219  15.010  67.900  1.00  0.00    -0.323 C  
HETATM    4  C   UNL     1      -9.991  12.123  67.081  1.00  0.00    -0.200 C  
HETATM    5  C   UNL     1     -11.023  14.257  66.802  1.00  0.00    -0.304 C  
HETATM    6  N   UNL     1     -11.120  12.898  67.082  1.00  0.00    -0.266 N  
HETATM    7  C   UNL     1     -10.029  11.918  68.605  1.00  0.00    -0.163 C  
HETATM    8  C   UNL     1     -10.677  14.723  65.417  1.00  0.00    -0.371 C  
HETATM    9  O   UNL     1     -10.468  13.721  64.533  1.00  0.00    -0.434 OA 
HETATM   10  O   UNL     1     -10.649  15.889  65.060  1.00  0.00    -0.497 OA 
HETATM   11  O   UNL     1      -9.267  11.862  66.152  1.00  0.00    -0.224 OA 
ENDROOT
BRANCH   3  12
HETATM   12  S   UNL     1     -11.052  16.703  68.153  1.00  0.00    -0.198 SA 
BRANCH  12  13
HETATM   13  C   UNL     1      -9.275  17.047  67.985  1.00  0.00    -0.241 C  
BRANCH  13  14
HETATM   14  C   UNL     1      -8.917  18.308  67.199  1.00  0.00    -0.264 C  
BRANCH  14  15
HETATM   15  N   UNL     1      -8.012  17.953  66.089  1.00  0.00    -0.474 NA 
HETATM   16  H   UNL     1      -8.051  18.402  65.175  1.00  0.00     0.000 HD 
BRANCH  15  17
HETATM   17  C   UNL     1      -7.172  17.028  66.380  1.00  0.00    -0.276 C  
HETATM   18  H1  UNL     1      -5.164  16.462  66.533  1.00  0.00     0.000 HD 
HETATM   19  N   UNL     1      -5.833  17.197  66.303  1.00  0.00    -0.303 NA 
HETATM   20  H2  UNL     1      -5.475  18.102  65.999  1.00  0.00     0.000 HD 
ENDBRANCH  15  17
ENDBRANCH  14  15
ENDBRANCH  13  14
ENDBRANCH  12  13
ENDBRANCH   3  12
BRANCH   7  21
HETATM   21  C   UNL     1     -10.140  10.481  69.079  1.00  0.00    -0.217 C  
HETATM   22  O   UNL     1     -10.825  10.493  70.329  1.00  0.00    -0.396 OA 
HETATM   23  C   UNL     1      -8.763   9.856  69.260  1.00  0.00    -0.172 C  
HETATM   24  H   UNL     1     -10.894   9.593  70.625  1.00  0.00     0.000 HD 
ENDBRANCH   7  21
TORSDOF 6
ENDMDL
MODEL      113
REMARK 921   NORMALIZED FREE ENERGY PREDICTED BY IDOCK:   -3.92 KCAL/MOL
REMARK 922        TOTAL FREE ENERGY PREDICTED BY IDOCK:   -6.51 KCAL/MOL
REMARK 923 INTER-LIGAND FREE ENERGY PREDICTED BY IDOCK:   -6.04 KCAL/MOL
REMARK 924 INTRA-LIGAND FREE ENERGY PREDICTED BY IDOCK:   -0.47 KCAL/MOL
REMARK 927      BINDING AFFINITY PREDICTED BY RF-SCORE:    0.00 PKD
ROOT
HETATM    1  C   UNL     1      -8.109  12.219  67.383  1.00  0.00    -0.175 C  
HETATM    2  C   UNL     1      -8.830  13.551  67.222  1.00  0.00    -0.225 C  
HETATM    3  C   UNL     1     -10.149  13.309  67.914  1.00  0.00    -0.235 C  
HETATM    4  C   UNL     1      -9.027  10.343  67.242  1.00  0.00    -0.135 C  
HETATM    5  C   UNL     1     -10.210  12.058  68.404  1.00  0.00    -0.209 C  
HETATM    6  N   UNL     1      -9.036  11.350  68.168  1.00  0.00    -0.167 N  
HETATM    7  C   UNL     1      -8.143  11.135  66.265  1.00  0.00    -0.142 C  
HETATM    8  C   UNL     1     -11.372  11.393  69.084  1.00  0.00    -0.288 C  
HETATM    9  O   UNL     1     -11.158  10.097  69.403  1.00  0.00    -0.232 OA 
HETATM   10  O   UNL     1     -12.407  11.953  69.404  1.00  0.00    -0.164 OA 
HETATM   11  O   UNL     1      -9.630   9.297  67.270  1.00  0.00    -0.145 OA 
ENDROOT
BRANCH   3  12
HETATM   12  S   UNL     1     -11.351  14.532  67.784  1.00  0.00    -0.332 SA 
BRANCH  12  13
HETATM   13  C   UNL     1     -12.441  14.001  66.429  1.00  0.00    -0.355 C  
BRANCH  13  14
HETATM   14  C   UNL     1     -11.805  13.075  65.393  1.00  0.00    -0.388 C  
BRANCH  14  15
HETATM   15  N   UNL     1     -12.867  12.402  64.622  1.00  0.00    -0.774 NA 
HETATM   16  H   UNL     1     -13.802  12.233  64.993  1.00  0.00     0.000 HD 
BRANCH  15  17
HETATM   17  C   UNL     1     -12.508  12.047  63.442  1.00  0.00    -0.509 C  
HETATM   18  H1  UNL     1     -11.165  10.959  62.266  1.00  0.00     0.000 HD 
HETATM   19  N   UNL     1     -11.450  11.240  63.204  1.00  0.00    -0.831 NA 
HETATM   20  H2  UNL     1     -10.913  10.897  63.999  1.00  0.00     0.000 HD 
ENDBRANCH  15  17
ENDBRANCH  14  15
ENDBRANCH  13  14
ENDBRANCH  12  13
ENDBRANCH   3  12
BRANCH   7  21
HETATM   21  C   UNL     1      -6.814  10.496  65.905  1.00  0.00    -0.132 C  
HETATM   22  O   UNL     1      -5.834  11.531  65.880  1.00  0.00    -0.485 OA 
HETATM   23  C   UNL     1      -6.880   9.825  64.540  1.00  0.00    -0.118 C  
HETATM   24  H   UNL     1      -5.002  11.131  65.655  1.00  0.00     0.000 HD 
ENDBRANCH   7  21
TORSDOF 6
ENDMDL
MODEL      114
REMARK 921   NORMALIZED FREE ENERGY PREDICTED BY IDOCK:   -3.91 KCAL/MOL
REMARK 922        TOTAL FREE ENERGY PREDICTED BY IDOCK:   -6.50 KCAL/MOL
REMARK 923 INTER-LIGAND FREE ENERGY PREDICTED BY IDOCK:   -6.09 KCAL/MOL
REMARK 924 INTRA-LIGAND FREE ENERGY PREDICTED BY IDOCK:   -0.42 KCAL/MOL
REMARK 927      BINDING AFFINITY PREDICTED BY RF-SCORE:    0.00 PKD
ROOT
HETATM    1  C   UNL     1     -12.026  11.586  68.881  1.00  0.00    -0.299 C  
HETATM    2  C   UNL     1     -11.462  12.953  68.517  1.00  0.00    -0.345 C  
HETATM    3  C   UNL     1     -10.621  12.660  67.300  1.00  0.00    -0.228 C  
HETATM    4  C   UNL     1     -10.961   9.787  68.764  1.00  0.00    -0.148 C  
HETATM    5  C   UNL     1     -10.671  11.351  66.986  1.00  0.00    -0.261 C  
HETATM    6  N   UNL     1     -11.505  10.644  67.846  1.00  0.00    -0.274 N  
HETATM    7  C   UNL     1     -11.345  10.683  69.953  1.00  0.00    -0.386 C  
HETATM    8  C   UNL     1      -9.916  10.636  65.904  1.00  0.00    -0.255 C  
HETATM    9  O   UNL     1     -10.119   9.300  65.878  1.00  0.00    -0.293 OA 
HETATM   10  O   UNL     1      -9.228  11.180  65.056  1.00  0.00    -0.212 OA 
HETATM   11  O   UNL     1     -10.340   8.773  68.561  1.00  0.00    -0.199 OA 
ENDROOT
BRANCH   3  12
HETATM   12  S   UNL     1      -9.642  13.931  66.684  1.00  0.00    -0.291 SA 
BRANCH  12  13
HETATM   13  C   UNL     1     -10.642  14.739  65.399  1.00  0.00    -0.378 C  
BRANCH  13  14
HETATM   14  C   UNL     1     -10.671  16.266  65.445  1.00  0.00    -0.327 C  
BRANCH  14  15
HETATM   15  N   UNL     1      -9.833  16.737  66.564  1.00  0.00    -0.275 NA 
HETATM   16  H   UNL     1      -8.899  16.372  66.751  1.00  0.00     0.000 HD 
BRANCH  15  17
HETATM   17  C   UNL     1     -10.384  17.648  67.280  1.00  0.00    -0.354 C  
HETATM   18  H1  UNL     1     -10.280  18.837  68.997  1.00  0.00     0.000 HD 
HETATM   19  N   UNL     1      -9.842  18.113  68.427  1.00  0.00    -0.350 NA 
HETATM   20  H2  UNL     1      -8.953  17.721  68.738  1.00  0.00     0.000 HD 
ENDBRANCH  15  17
ENDBRANCH  14  15
ENDBRANCH  13  14
ENDBRANCH  12  13
ENDBRANCH   3  12
BRANCH   7  21
HETATM   21  C   UNL     1     -12.261  10.057  70.988  1.00  0.00    -0.365 C  
HETATM   22  O   UNL     1     -12.848  11.117  71.739  1.00  0.00    -0.422 OA 
HETATM   23  C   UNL     1     -11.486   9.140  71.924  1.00  0.00    -0.423 C  
HETATM   24  H   UNL     1     -13.422  10.724  72.386  1.00  0.00     0.000 HD 
ENDBRANCH   7  21
TORSDOF 6
ENDMDL
MODEL      115
REMARK 921   NORMALIZED FREE ENERGY PREDICTED BY IDOCK:   -3.91 KCAL/MOL
REMARK 922        TOTAL FREE ENERGY PREDICTED BY IDOCK:   -6.49 KCAL/MOL
REMARK 923 INTER-LIGAND FREE ENERGY PREDICTED BY IDOCK:   -5.80 KCAL/MOL
REMARK 924 INTRA-LIGAND FREE ENERGY PREDICTED BY IDOCK:   -0.70 KCAL/MOL
REMARK 927      BINDING AFFINITY PREDICTED BY RF-SCORE:    0.00 PKD
ROOT
HETATM    1  C   UNL     1      -9.469   9.697  65.900  1.00  0.00    -0.236 C  
HETATM    2  C   UNL     1     -10.181  10.547  64.855  1.00  0.00    -0.371 C  
HETATM    3  C   UNL     1      -9.896  11.956  65.313  1.00  0.00    -0.230 C  
HETATM    4  C   UNL     1      -9.406  10.132  67.948  1.00  0.00    -0.141 C  
HETATM    5  C   UNL     1      -9.146  11.955  66.431  1.00  0.00    -0.208 C  
HETATM    6  N   UNL     1      -8.817  10.665  66.833  1.00  0.00    -0.137 N  
HETATM    7  C   UNL     1     -10.227   9.119  67.133  1.00  0.00    -0.329 C  
HETATM    8  C   UNL     1      -8.716  13.137  67.250  1.00  0.00    -0.210 C  
HETATM    9  O   UNL     1      -8.026  12.814  68.366  1.00  0.00    -0.146 OA 
HETATM   10  O   UNL     1      -8.887  14.303  66.936  1.00  0.00    -0.228 OA 
HETATM   11  O   UNL     1      -9.300  10.496  69.093  1.00  0.00    -0.194 OA 
ENDROOT
BRANCH   3  12
HETATM   12  S   UNL     1     -10.700  13.236  64.493  1.00  0.00    -0.422 SA 
BRANCH  12  13
HETATM   13  C   UNL     1     -12.348  13.341  65.253  1.00  0.00    -0.476 C  
BRANCH  13  14
HETATM   14  C   UNL     1     -12.367  13.503  66.773  1.00  0.00    -0.274 C  
BRANCH  14  15
HETATM   15  N   UNL     1     -12.004  14.889  67.121  1.00  0.00    -0.372 NA 
HETATM   16  H   UNL     1     -11.966  15.643  66.435  1.00  0.00     0.000 HD 
BRANCH  15  17
HETATM   17  C   UNL     1     -11.739  15.061  68.365  1.00  0.00    -0.317 C  
HETATM   18  H1  UNL     1     -12.446  15.032  70.332  1.00  0.00     0.000 HD 
HETATM   19  N   UNL     1     -12.656  14.896  69.344  1.00  0.00    -0.583 NA 
HETATM   20  H2  UNL     1     -13.602  14.622  69.081  1.00  0.00     0.000 HD 
ENDBRANCH  15  17
ENDBRANCH  14  15
ENDBRANCH  13  14
ENDBRANCH  12  13
ENDBRANCH   3  12
BRANCH   7  21
HETATM   21  C   UNL     1      -9.981   7.656  67.450  1.00  0.00    -0.192 C  
HETATM   22  O   UNL     1     -10.683   6.882  66.481  1.00  0.00    -0.516 OA 
HETATM   23  C   UNL     1     -10.485   7.304  68.843  1.00  0.00    -0.216 C  
HETATM   24  H   UNL     1     -10.529   5.966  66.680  1.00  0.00     0.000 HD 
ENDBRANCH   7  21
TORSDOF 6
ENDMDL
MODEL      116
REMARK 921   NORMALIZED FREE ENERGY PREDICTED BY IDOCK:   -3.90 KCAL/MOL
REMARK 922        TOTAL FREE ENERGY PREDICTED BY IDOCK:   -6.48 KCAL/MOL
REMARK 923 INTER-LIGAND FREE ENERGY PREDICTED BY IDOCK:   -5.61 KCAL/MOL
REMARK 924 INTRA-LIGAND FREE ENERGY PREDICTED BY IDOCK:   -0.87 KCAL/MOL
REMARK 927      BINDING AFFINITY PREDICTED BY RF-SCORE:    0.00 PKD
ROOT
HETATM    1  C   UNL     1     -10.641  16.713  67.748  1.00  0.00    -0.342 C  
HETATM    2  C   UNL     1     -11.532  15.477  67.740  1.00  0.00    -0.247 C  
HETATM    3  C   UNL     1     -10.546  14.349  67.560  1.00  0.00    -0.265 C  
HETATM    4  C   UNL     1      -8.967  16.983  66.519  1.00  0.00    -0.269 C  
HETATM    5  C   UNL     1      -9.288  14.821  67.475  1.00  0.00    -0.194 C  
HETATM    6  N   UNL     1      -9.243  16.204  67.611  1.00  0.00    -0.204 N  
HETATM    7  C   UNL     1     -10.396  17.548  66.456  1.00  0.00    -0.325 C  
HETATM    8  C   UNL     1      -8.031  14.044  67.211  1.00  0.00    -0.137 C  
HETATM    9  O   UNL     1      -6.920  14.807  67.110  1.00  0.00    -0.219 OA 
HETATM   10  O   UNL     1      -7.960  12.827  67.159  1.00  0.00    -0.167 OA 
HETATM   11  O   UNL     1      -7.947  17.031  65.876  1.00  0.00    -0.465 OA 
ENDROOT
BRANCH   3  12
HETATM   12  S   UNL     1     -11.180  12.772  67.302  1.00  0.00    -0.313 SA 
BRANCH  12  13
HETATM   13  C   UNL     1     -10.904  11.876  68.859  1.00  0.00    -0.221 C  
BRANCH  13  14
HETATM   14  C   UNL     1      -9.976  10.665  68.769  1.00  0.00    -0.193 C  
BRANCH  14  15
HETATM   15  N   UNL     1      -8.719  10.958  69.484  1.00  0.00    -0.371 NA 
HETATM   16  H   UNL     1      -8.320  11.894  69.545  1.00  0.00     0.000 HD 
BRANCH  15  17
HETATM   17  C   UNL     1      -8.173   9.928  70.020  1.00  0.00    -0.168 C  
HETATM   18  H1  UNL     1      -6.416   9.030  70.713  1.00  0.00     0.000 HD 
HETATM   19  N   UNL     1      -6.850   9.849  70.287  1.00  0.00    -0.123 NA 
HETATM   20  H2  UNL     1      -6.259  10.645  70.051  1.00  0.00     0.000 HD 
ENDBRANCH  15  17
ENDBRANCH  14  15
ENDBRANCH  13  14
ENDBRANCH  12  13
ENDBRANCH   3  12
BRANCH   7  21
HETATM   21  C   UNL     1     -10.521  19.054  66.593  1.00  0.00    -0.437 C  
HETATM   22  O   UNL     1      -9.504  19.645  65.789  1.00  0.00    -0.384 OA 
HETATM   23  C   UNL     1     -10.342  19.489  68.041  1.00  0.00    -0.564 C  
HETATM   24  H   UNL     1      -9.582  20.587  65.875  1.00  0.00     0.000 HD 
ENDBRANCH   7  21
TORSDOF 6
ENDMDL
MODEL      117
REMARK 921   NORMALIZED FREE ENERGY PREDICTED BY IDOCK:   -3.88 KCAL/MOL
REMARK 922        TOTAL FREE ENERGY PREDICTED BY IDOCK:   -6.45 KCAL/MOL
REMARK 923 INTER-LIGAND FREE ENERGY PREDICTED BY IDOCK:   -6.03 KCAL/MOL
REMARK 924 INTRA-LIGAND FREE ENERGY PREDICTED BY IDOCK:   -0.43 KCAL/MOL
REMARK 927      BINDING AFFINITY PREDICTED BY RF-SCORE:    0.00 PKD
ROOT
HETATM    1  C   UNL     1     -11.639  14.874  66.969  1.00  0.00    -0.304 C  
HETATM    2  C   UNL     1     -11.456  13.376  66.757  1.00  0.00    -0.376 C  
HETATM    3  C   UNL     1     -11.730  12.804  68.126  1.00  0.00    -0.345 C  
HETATM    4  C   UNL     1     -11.022  15.920  68.675  1.00  0.00    -0.320 C  
HETATM    5  C   UNL     1     -12.026  13.781  69.003  1.00  0.00    -0.360 C  
HETATM    6  N   UNL     1     -12.030  15.035  68.402  1.00  0.00    -0.255 N  
HETATM    7  C   UNL     1     -10.427  15.808  67.261  1.00  0.00    -0.308 C  
HETATM    8  C   UNL     1     -12.278  13.647  70.477  1.00  0.00    -0.368 C  
HETATM    9  O   UNL     1     -12.480  14.823  71.113  1.00  0.00    -0.288 OA 
HETATM   10  O   UNL     1     -12.375  12.588  71.075  1.00  0.00    -0.351 OA 
HETATM   11  O   UNL     1     -10.757  16.446  69.728  1.00  0.00    -0.322 OA 
ENDROOT
BRANCH   3  12
HETATM   12  S   UNL     1     -11.434  11.127  68.360  1.00  0.00    -0.310 SA 
BRANCH  12  13
HETATM   13  C   UNL     1      -9.750  11.020  69.038  1.00  0.00    -0.134 C  
BRANCH  13  14
HETATM   14  C   UNL     1      -9.360   9.665  69.628  1.00  0.00    -0.211 C  
BRANCH  14  15
HETATM   15  N   UNL     1      -8.461   9.874  70.779  1.00  0.00    -0.344 NA 
HETATM   16  H   UNL     1      -8.711  10.449  71.582  1.00  0.00     0.000 HD 
BRANCH  15  17
HETATM   17  C   UNL     1      -7.336   9.265  70.677  1.00  0.00    -0.123 C  
HETATM   18  H1  UNL     1      -6.302   7.588  69.977  1.00  0.00     0.000 HD 
HETATM   19  N   UNL     1      -7.196   8.072  70.058  1.00  0.00    -0.060 NA 
HETATM   20  H2  UNL     1      -8.023   7.634  69.654  1.00  0.00     0.000 HD 
ENDBRANCH  15  17
ENDBRANCH  14  15
ENDBRANCH  13  14
ENDBRANCH  12  13
ENDBRANCH   3  12
BRANCH   7  21
HETATM   21  C   UNL     1     -10.362  17.098  66.464  1.00  0.00    -0.306 C  
HETATM   22  O   UNL     1     -10.535  16.762  65.090  1.00  0.00    -0.658 OA 
HETATM   23  C   UNL     1      -9.021  17.793  66.653  1.00  0.00    -0.283 C  
HETATM   24  H   UNL     1     -10.495  17.570  64.591  1.00  0.00     0.000 HD 
ENDBRANCH   7  21
TORSDOF 6
ENDMDL
MODEL      118
REMARK 921   NORMALIZED FREE ENERGY PREDICTED BY IDOCK:   -3.87 KCAL/MOL
REMARK 922        TOTAL FREE ENERGY PREDICTED BY IDOCK:   -6.44 KCAL/MOL
REMARK 923 INTER-LIGAND FREE ENERGY PREDICTED BY IDOCK:   -5.59 KCAL/MOL
REMARK 924 INTRA-LIGAND FREE ENERGY PREDICTED BY IDOCK:   -0.85 KCAL/MOL
REMARK 927      BINDING AFFINITY PREDICTED BY RF-SCORE:    0.00 PKD
ROOT
HETATM    1  C   UNL     1     -11.903   6.518  70.720  1.00  0.00    -0.332 C  
HETATM    2  C   UNL     1     -11.139   6.206  69.439  1.00  0.00    -0.479 C  
HETATM    3  C   UNL     1      -9.805   5.722  69.949  1.00  0.00    -0.179 C  
HETATM    4  C   UNL     1     -11.062   7.397  72.425  1.00  0.00    -0.287 C  
HETATM    5  C   UNL     1      -9.772   5.738  71.295  1.00  0.00    -0.171 C  
HETATM    6  N   UNL     1     -10.979   6.163  71.838  1.00  0.00    -0.251 N  
HETATM    7  C   UNL     1     -11.953   7.961  71.306  1.00  0.00    -0.321 C  
HETATM    8  C   UNL     1      -8.610   5.415  72.189  1.00  0.00    -0.126 C  
HETATM    9  O   UNL     1      -8.860   5.593  73.506  1.00  0.00    -0.123 OA 
HETATM   10  O   UNL     1      -7.543   4.961  71.811  1.00  0.00    -0.090 OA 
HETATM   11  O   UNL     1     -10.498   7.791  73.416  1.00  0.00    -0.338 OA 
ENDROOT
BRANCH   3  12
HETATM   12  S   UNL     1      -8.564   5.445  68.792  1.00  0.00    -0.098 SA 
BRANCH  12  13
HETATM   13  C   UNL     1      -8.679   6.826  67.615  1.00  0.00    -0.119 C  
BRANCH  13  14
HETATM   14  C   UNL     1      -8.081   8.150  68.090  1.00  0.00    -0.128 C  
BRANCH  14  15
HETATM   15  N   UNL     1      -9.164   9.035  68.559  1.00  0.00    -0.136 NA 
HETATM   16  H   UNL     1      -9.355   9.204  69.547  1.00  0.00     0.000 HD 
BRANCH  15  17
HETATM   17  C   UNL     1      -9.844   9.572  67.613  1.00  0.00    -0.165 C  
HETATM   18  H1  UNL     1     -11.581  10.597  67.060  1.00  0.00     0.000 HD 
HETATM   19  N   UNL     1     -11.040  10.171  67.812  1.00  0.00    -0.423 NA 
HETATM   20  H2  UNL     1     -11.419  10.196  68.758  1.00  0.00     0.000 HD 
ENDBRANCH  15  17
ENDBRANCH  14  15
ENDBRANCH  13  14
ENDBRANCH  12  13
ENDBRANCH   3  12
BRANCH   7  21
HETATM   21  C   UNL     1     -13.318   8.467  71.736  1.00  0.00    -0.357 C  
HETATM   22  O   UNL     1     -13.254   8.740  73.133  1.00  0.00    -0.866 OA 
HETATM   23  C   UNL     1     -14.397   7.426  71.470  1.00  0.00    -0.594 C  
HETATM   24  H   UNL     1     -14.108   9.056  73.402  1.00  0.00     0.000 HD 
ENDBRANCH   7  21
TORSDOF 6
ENDMDL
MODEL      119
REMARK 921   NORMALIZED FREE ENERGY PREDICTED BY IDOCK:   -3.85 KCAL/MOL
REMARK 922        TOTAL FREE ENERGY PREDICTED BY IDOCK:   -6.41 KCAL/MOL
REMARK 923 INTER-LIGAND FREE ENERGY PREDICTED BY IDOCK:   -5.38 KCAL/MOL
REMARK 924 INTRA-LIGAND FREE ENERGY PREDICTED BY IDOCK:   -1.03 KCAL/MOL
REMARK 927      BINDING AFFINITY PREDICTED BY RF-SCORE:    0.00 PKD
ROOT
HETATM    1  C   UNL     1     -12.218   6.764  70.834  1.00  0.00    -0.331 C  
HETATM    2  C   UNL     1     -11.403   6.406  69.598  1.00  0.00    -0.479 C  
HETATM    3  C   UNL     1     -10.254   5.611  70.168  1.00  0.00    -0.250 C  
HETATM    4  C   UNL     1     -11.401   7.301  72.686  1.00  0.00    -0.291 C  
HETATM    5  C   UNL     1     -10.359   5.509  71.506  1.00  0.00    -0.222 C  
HETATM    6  N   UNL     1     -11.507   6.130  71.985  1.00  0.00    -0.305 N  
HETATM    7  C   UNL     1     -12.038   8.131  71.559  1.00  0.00    -0.332 C  
HETATM    8  C   UNL     1      -9.385   4.876  72.458  1.00  0.00    -0.135 C  
HETATM    9  O   UNL     1      -9.731   4.992  73.760  1.00  0.00    -0.135 OA 
HETATM   10  O   UNL     1      -8.398   4.241  72.127  1.00  0.00    -0.099 OA 
HETATM   11  O   UNL     1     -10.877   7.485  73.757  1.00  0.00    -0.316 OA 
ENDROOT
BRANCH   3  12
HETATM   12  S   UNL     1      -8.979   5.178  69.098  1.00  0.00    -0.102 SA 
BRANCH  12  13
HETATM   13  C   UNL     1      -8.004   6.694  68.863  1.00  0.00    -0.112 C  
BRANCH  13  14
HETATM   14  C   UNL     1      -7.034   7.039  69.993  1.00  0.00    -0.062 C  
BRANCH  14  15
HETATM   15  N   UNL     1      -7.232   8.444  70.395  1.00  0.00    -0.037 NA 
HETATM   16  H   UNL     1      -6.595   9.194  70.127  1.00  0.00     0.000 HD 
BRANCH  15  17
HETATM   17  C   UNL     1      -8.278   8.638  71.112  1.00  0.00    -0.153 C  
HETATM   18  H1  UNL     1      -9.088   8.785  73.034  1.00  0.00     0.000 HD 
HETATM   19  N   UNL     1      -8.257   8.631  72.464  1.00  0.00    -0.392 NA 
HETATM   20  H2  UNL     1      -7.369   8.464  72.935  1.00  0.00     0.000 HD 
ENDBRANCH  15  17
ENDBRANCH  14  15
ENDBRANCH  13  14
ENDBRANCH  12  13
ENDBRANCH   3  12
BRANCH   7  21
HETATM   21  C   UNL     1     -13.312   8.874  71.921  1.00  0.00    -0.405 C  
HETATM   22  O   UNL     1     -14.346   8.394  71.067  1.00  0.00    -0.655 OA 
HETATM   23  C   UNL     1     -13.145  10.375  71.724  1.00  0.00    -0.567 C  
HETATM   24  H   UNL     1     -15.143   8.859  71.293  1.00  0.00     0.000 HD 
ENDBRANCH   7  21
TORSDOF 6
ENDMDL
MODEL      120
REMARK 921   NORMALIZED FREE ENERGY PREDICTED BY IDOCK:   -3.84 KCAL/MOL
REMARK 922        TOTAL FREE ENERGY PREDICTED BY IDOCK:   -6.40 KCAL/MOL
REMARK 923 INTER-LIGAND FREE ENERGY PREDICTED BY IDOCK:   -5.64 KCAL/MOL
REMARK 924 INTRA-LIGAND FREE ENERGY PREDICTED BY IDOCK:   -0.76 KCAL/MOL
REMARK 927      BINDING AFFINITY PREDICTED BY RF-SCORE:    0.00 PKD
ROOT
HETATM    1  C   UNL     1     -11.091  15.229  66.936  1.00  0.00    -0.288 C  
HETATM    2  C   UNL     1     -10.802  13.967  66.134  1.00  0.00    -0.290 C  
HETATM    3  C   UNL     1     -11.126  12.863  67.111  1.00  0.00    -0.275 C  
HETATM    4  C   UNL     1     -10.650  15.478  68.968  1.00  0.00    -0.246 C  
HETATM    5  C   UNL     1     -11.537  13.370  68.288  1.00  0.00    -0.344 C  
HETATM    6  N   UNL     1     -11.581  14.760  68.267  1.00  0.00    -0.311 N  
HETATM    7  C   UNL     1      -9.961  15.990  67.693  1.00  0.00    -0.239 C  
HETATM    8  C   UNL     1     -11.873  12.620  69.545  1.00  0.00    -0.312 C  
HETATM    9  O   UNL     1     -12.188  13.412  70.594  1.00  0.00    -0.356 OA 
HETATM   10  O   UNL     1     -11.941  11.406  69.636  1.00  0.00    -0.308 OA 
HETATM   11  O   UNL     1     -10.485  15.519  70.163  1.00  0.00    -0.302 OA 
ENDROOT
BRANCH   3  12
HETATM   12  S   UNL     1     -10.741  11.253  66.648  1.00  0.00    -0.266 SA 
BRANCH  12  13
HETATM   13  C   UNL     1      -9.133  11.360  65.806  1.00  0.00    -0.184 C  
BRANCH  13  14
HETATM   14  C   UNL     1      -7.912  11.449  66.722  1.00  0.00    -0.160 C  
BRANCH  14  15
HETATM   15  N   UNL     1      -7.586  12.867  66.965  1.00  0.00    -0.389 NA 
HETATM   16  H   UNL     1      -8.133  13.637  66.580  1.00  0.00     0.000 HD 
BRANCH  15  17
HETATM   17  C   UNL     1      -6.552  13.044  67.704  1.00  0.00    -0.159 C  
HETATM   18  H1  UNL     1      -4.796  14.128  68.038  1.00  0.00     0.000 HD 
HETATM   19  N   UNL     1      -5.617  13.987  67.451  1.00  0.00    -0.313 NA 
HETATM   20  H2  UNL     1      -5.740  14.586  66.635  1.00  0.00     0.000 HD 
ENDBRANCH  15  17
ENDBRANCH  14  15
ENDBRANCH  13  14
ENDBRANCH  12  13
ENDBRANCH   3  12
BRANCH   7  21
HETATM   21  C   UNL     1      -9.927  17.497  67.515  1.00  0.00    -0.315 C  
HETATM   22  O   UNL     1     -10.589  18.076  68.636  1.00  0.00    -0.340 OA 
HETATM   23  C   UNL     1     -10.637  17.914  66.235  1.00  0.00    -0.241 C  
HETATM   24  H   UNL     1     -10.568  19.019  68.525  1.00  0.00     0.000 HD 
ENDBRANCH   7  21
TORSDOF 6
ENDMDL
MODEL      121
REMARK 921   NORMALIZED FREE ENERGY PREDICTED BY IDOCK:   -3.82 KCAL/MOL
REMARK 922        TOTAL FREE ENERGY PREDICTED BY IDOCK:   -6.37 KCAL/MOL
REMARK 923 INTER-LIGAND FREE ENERGY PREDICTED BY IDOCK:   -5.54 KCAL/MOL
REMARK 924 INTRA-LIGAND FREE ENERGY PREDICTED BY IDOCK:   -0.84 KCAL/MOL
REMARK 927      BINDING AFFINITY PREDICTED BY RF-SCORE:    0.00 PKD
ROOT
HETATM    1  C   UNL     1     -11.572  13.498  69.577  1.00  0.00    -0.294 C  
HETATM    2  C   UNL     1     -11.487  12.770  68.242  1.00  0.00    -0.354 C  
HETATM    3  C   UNL     1     -10.311  13.431  67.568  1.00  0.00    -0.226 C  
HETATM    4  C   UNL     1     -11.245  15.550  69.838  1.00  0.00    -0.316 C  
HETATM    5  C   UNL     1      -9.781  14.385  68.357  1.00  0.00    -0.226 C  
HETATM    6  N   UNL     1     -10.441  14.473  69.578  1.00  0.00    -0.126 N  
HETATM    7  C   UNL     1     -12.531  14.709  69.784  1.00  0.00    -0.247 C  
HETATM    8  C   UNL     1      -8.660  15.330  68.030  1.00  0.00    -0.152 C  
HETATM    9  O   UNL     1      -8.397  16.231  69.002  1.00  0.00    -0.232 OA 
HETATM   10  O   UNL     1      -7.974  15.276  67.024  1.00  0.00    -0.204 OA 
HETATM   11  O   UNL     1     -10.927  16.709  69.946  1.00  0.00    -0.347 OA 
ENDROOT
BRANCH   3  12
HETATM   12  S   UNL     1      -9.997  13.019  65.929  1.00  0.00    -0.238 SA 
BRANCH  12  13
HETATM   13  C   UNL     1     -10.904  11.471  65.635  1.00  0.00    -0.252 C  
BRANCH  13  14
HETATM   14  C   UNL     1     -10.039  10.226  65.436  1.00  0.00    -0.284 C  
BRANCH  14  15
HETATM   15  N   UNL     1     -10.571   9.125  66.261  1.00  0.00    -0.064 NA 
HETATM   16  H   UNL     1     -11.138   8.368  65.880  1.00  0.00     0.000 HD 
BRANCH  15  17
HETATM   17  C   UNL     1     -10.255   9.205  67.502  1.00  0.00    -0.245 C  
HETATM   18  H1  UNL     1     -10.846   8.922  69.488  1.00  0.00     0.000 HD 
HETATM   19  N   UNL     1     -11.096   8.858  68.502  1.00  0.00    -0.442 NA 
HETATM   20  H2  UNL     1     -12.025   8.517  68.258  1.00  0.00     0.000 HD 
ENDBRANCH  15  17
ENDBRANCH  14  15
ENDBRANCH  13  14
ENDBRANCH  12  13
ENDBRANCH   3  12
BRANCH   7  21
HETATM   21  C   UNL     1     -13.369  14.696  71.049  1.00  0.00    -0.355 C  
HETATM   22  O   UNL     1     -13.027  15.856  71.803  1.00  0.00    -0.459 OA 
HETATM   23  C   UNL     1     -13.090  13.450  71.879  1.00  0.00    -0.476 C  
HETATM   24  H   UNL     1     -13.552  15.848  72.594  1.00  0.00     0.000 HD 
ENDBRANCH   7  21
TORSDOF 6
ENDMDL
MODEL      122
REMARK 921   NORMALIZED FREE ENERGY PREDICTED BY IDOCK:   -3.82 KCAL/MOL
REMARK 922        TOTAL FREE ENERGY PREDICTED BY IDOCK:   -6.37 KCAL/MOL
REMARK 923 INTER-LIGAND FREE ENERGY PREDICTED BY IDOCK:   -6.10 KCAL/MOL
REMARK 924 INTRA-LIGAND FREE ENERGY PREDICTED BY IDOCK:   -0.27 KCAL/MOL
REMARK 927      BINDING AFFINITY PREDICTED BY RF-SCORE:    0.00 PKD
ROOT
HETATM    1  C   UNL     1      -6.631  16.539  67.719  1.00  0.00    -0.141 C  
HETATM    2  C   UNL     1      -7.536  15.427  67.202  1.00  0.00    -0.224 C  
HETATM    3  C   UNL     1      -8.679  16.186  66.575  1.00  0.00    -0.302 C  
HETATM    4  C   UNL     1      -7.307  18.313  68.601  1.00  0.00    -0.290 C  
HETATM    5  C   UNL     1      -8.495  17.514  66.693  1.00  0.00    -0.259 C  
HETATM    6  N   UNL     1      -7.295  17.817  67.325  1.00  0.00    -0.185 N  
HETATM    7  C   UNL     1      -6.707  17.029  69.197  1.00  0.00    -0.241 C  
HETATM    8  C   UNL     1      -9.433  18.612  66.280  1.00  0.00    -0.260 C  
HETATM    9  O   UNL     1      -9.002  19.854  66.594  1.00  0.00    -0.340 OA 
HETATM   10  O   UNL     1     -10.465  18.448  65.650  1.00  0.00    -0.624 OA 
HETATM   11  O   UNL     1      -7.756  19.365  68.988  1.00  0.00    -0.362 OA 
ENDROOT
BRANCH   3  12
HETATM   12  S   UNL     1     -10.035  15.277  66.035  1.00  0.00    -0.345 SA 
BRANCH  12  13
HETATM   13  C   UNL     1     -11.294  15.462  67.333  1.00  0.00    -0.243 C  
BRANCH  13  14
HETATM   14  C   UNL     1     -12.034  14.183  67.724  1.00  0.00    -0.354 C  
BRANCH  14  15
HETATM   15  N   UNL     1     -12.407  14.251  69.150  1.00  0.00    -0.539 NA 
HETATM   16  H   UNL     1     -12.998  14.987  69.536  1.00  0.00     0.000 HD 
BRANCH  15  17
HETATM   17  C   UNL     1     -11.921  13.299  69.860  1.00  0.00    -0.330 C  
HETATM   18  H1  UNL     1     -10.448  11.828  70.056  1.00  0.00     0.000 HD 
HETATM   19  N   UNL     1     -10.834  12.585  69.492  1.00  0.00    -0.442 NA 
HETATM   20  H2  UNL     1     -10.380  12.813  68.608  1.00  0.00     0.000 HD 
ENDBRANCH  15  17
ENDBRANCH  14  15
ENDBRANCH  13  14
ENDBRANCH  12  13
ENDBRANCH   3  12
BRANCH   7  21
HETATM   21  C   UNL     1      -5.384  17.189  69.923  1.00  0.00    -0.200 C  
HETATM   22  O   UNL     1      -5.217  16.053  70.767  1.00  0.00    -0.171 OA 
HETATM   23  C   UNL     1      -5.371  18.456  70.766  1.00  0.00    -0.253 C  
HETATM   24  H   UNL     1      -4.389  16.154  71.221  1.00  0.00     0.000 HD 
ENDBRANCH   7  21
TORSDOF 6
ENDMDL
MODEL      123
REMARK 921   NORMALIZED FREE ENERGY PREDICTED BY IDOCK:   -3.82 KCAL/MOL
REMARK 922        TOTAL FREE ENERGY PREDICTED BY IDOCK:   -6.37 KCAL/MOL
REMARK 923 INTER-LIGAND FREE ENERGY PREDICTED BY IDOCK:   -5.97 KCAL/MOL
REMARK 924 INTRA-LIGAND FREE ENERGY PREDICTED BY IDOCK:   -0.40 KCAL/MOL
REMARK 927      BINDING AFFINITY PREDICTED BY RF-SCORE:    0.00 PKD
ROOT
HETATM    1  C   UNL     1     -11.608  14.961  67.550  1.00  0.00    -0.339 C  
HETATM    2  C   UNL     1     -11.296  13.593  66.955  1.00  0.00    -0.345 C  
HETATM    3  C   UNL     1     -11.598  12.651  68.093  1.00  0.00    -0.338 C  
HETATM    4  C   UNL     1     -11.170  15.533  69.516  1.00  0.00    -0.299 C  
HETATM    5  C   UNL     1     -12.018  13.329  69.178  1.00  0.00    -0.296 C  
HETATM    6  N   UNL     1     -12.088  14.697  68.939  1.00  0.00    -0.258 N  
HETATM    7  C   UNL     1     -10.491  15.851  68.173  1.00  0.00    -0.270 C  
HETATM    8  C   UNL     1     -12.338  12.779  70.538  1.00  0.00    -0.275 C  
HETATM    9  O   UNL     1     -12.667  13.719  71.451  1.00  0.00    -0.345 OA 
HETATM   10  O   UNL     1     -12.383  11.592  70.818  1.00  0.00    -0.376 OA 
HETATM   11  O   UNL     1     -11.004  15.764  70.689  1.00  0.00    -0.323 OA 
ENDROOT
BRANCH   3  12
HETATM   12  S   UNL     1     -11.183  10.995  67.886  1.00  0.00    -0.311 SA 
BRANCH  12  13
HETATM   13  C   UNL     1      -9.821  10.981  66.683  1.00  0.00    -0.200 C  
BRANCH  13  14
HETATM   14  C   UNL     1     -10.138  10.341  65.332  1.00  0.00    -0.284 C  
BRANCH  14  15
HETATM   15  N   UNL     1      -9.270   9.165  65.133  1.00  0.00    -0.395 NA 
HETATM   16  H   UNL     1      -8.760   8.991  64.267  1.00  0.00     0.000 HD 
BRANCH  15  17
HETATM   17  C   UNL     1      -9.214   8.381  66.147  1.00  0.00    -0.205 C  
HETATM   18  H1  UNL     1      -8.026   7.166  67.366  1.00  0.00     0.000 HD 
HETATM   19  N   UNL     1      -8.071   7.789  66.560  1.00  0.00    -0.108 NA 
HETATM   20  H2  UNL     1      -7.213   7.975  66.041  1.00  0.00     0.000 HD 
ENDBRANCH  15  17
ENDBRANCH  14  15
ENDBRANCH  13  14
ENDBRANCH  12  13
ENDBRANCH   3  12
BRANCH   7  21
HETATM   21  C   UNL     1     -10.486  17.312  67.761  1.00  0.00    -0.371 C  
HETATM   22  O   UNL     1     -10.433  17.356  66.338  1.00  0.00    -0.326 OA 
HETATM   23  C   UNL     1      -9.279  18.039  68.338  1.00  0.00    -0.301 C  
HETATM   24  H   UNL     1     -10.430  18.271  66.081  1.00  0.00     0.000 HD 
ENDBRANCH   7  21
TORSDOF 6
ENDMDL
MODEL      124
REMARK 921   NORMALIZED FREE ENERGY PREDICTED BY IDOCK:   -3.79 KCAL/MOL
REMARK 922        TOTAL FREE ENERGY PREDICTED BY IDOCK:   -6.34 KCAL/MOL
REMARK 923 INTER-LIGAND FREE ENERGY PREDICTED BY IDOCK:   -5.48 KCAL/MOL
REMARK 924 INTRA-LIGAND FREE ENERGY PREDICTED BY IDOCK:   -0.85 KCAL/MOL
REMARK 927      BINDING AFFINITY PREDICTED BY RF-SCORE:    0.00 PKD
ROOT
HETATM    1  C   UNL     1     -10.560   9.989  66.950  1.00  0.00    -0.192 C  
HETATM    2  C   UNL     1     -11.275  11.124  67.671  1.00  0.00    -0.364 C  
HETATM    3  C   UNL     1     -11.442  12.162  66.590  1.00  0.00    -0.365 C  
HETATM    4  C   UNL     1      -9.053  10.249  65.519  1.00  0.00    -0.176 C  
HETATM    5  C   UNL     1     -10.922  11.730  65.426  1.00  0.00    -0.297 C  
HETATM    6  N   UNL     1     -10.408  10.442  65.534  1.00  0.00    -0.238 N  
HETATM    7  C   UNL     1      -9.009   9.842  67.001  1.00  0.00    -0.152 C  
HETATM    8  C   UNL     1     -10.807  12.485  64.133  1.00  0.00    -0.382 C  
HETATM    9  O   UNL     1     -10.169  11.809  63.152  1.00  0.00    -0.403 OA 
HETATM   10  O   UNL     1     -11.297  13.582  63.920  1.00  0.00    -0.333 OA 
HETATM   11  O   UNL     1      -8.280  10.462  64.617  1.00  0.00    -0.166 OA 
ENDROOT
BRANCH   3  12
HETATM   12  S   UNL     1     -12.046  13.704  67.053  1.00  0.00    -0.340 SA 
BRANCH  12  13
HETATM   13  C   UNL     1     -10.577  14.738  67.332  1.00  0.00    -0.268 C  
BRANCH  13  14
HETATM   14  C   UNL     1      -9.954  14.641  68.724  1.00  0.00    -0.235 C  
BRANCH  14  15
HETATM   15  N   UNL     1     -11.005  14.321  69.708  1.00  0.00    -0.447 NA 
HETATM   16  H   UNL     1     -11.465  13.413  69.755  1.00  0.00     0.000 HD 
BRANCH  15  17
HETATM   17  C   UNL     1     -11.288  15.291  70.500  1.00  0.00    -0.309 C  
HETATM   18  H1  UNL     1     -12.766  16.309  71.573  1.00  0.00     0.000 HD 
HETATM   19  N   UNL     1     -12.541  15.539  70.944  1.00  0.00    -0.433 NA 
HETATM   20  H2  UNL     1     -13.295  14.927  70.634  1.00  0.00     0.000 HD 
ENDBRANCH  15  17
ENDBRANCH  14  15
ENDBRANCH  13  14
ENDBRANCH  12  13
ENDBRANCH   3  12
BRANCH   7  21
HETATM   21  C   UNL     1      -8.474   8.452  67.292  1.00  0.00    -0.124 C  
HETATM   22  O   UNL     1      -8.043   7.890  66.055  1.00  0.00    -0.101 OA 
HETATM   23  C   UNL     1      -9.550   7.567  67.904  1.00  0.00    -0.161 C  
HETATM   24  H   UNL     1      -7.708   7.021  66.237  1.00  0.00     0.000 HD 
ENDBRANCH   7  21
TORSDOF 6
ENDMDL
MODEL      125
REMARK 921   NORMALIZED FREE ENERGY PREDICTED BY IDOCK:   -3.79 KCAL/MOL
REMARK 922        TOTAL FREE ENERGY PREDICTED BY IDOCK:   -6.33 KCAL/MOL
REMARK 923 INTER-LIGAND FREE ENERGY PREDICTED BY IDOCK:   -5.44 KCAL/MOL
REMARK 924 INTRA-LIGAND FREE ENERGY PREDICTED BY IDOCK:   -0.90 KCAL/MOL
REMARK 927      BINDING AFFINITY PREDICTED BY RF-SCORE:    0.00 PKD
ROOT
HETATM    1  C   UNL     1     -11.365   8.524  72.298  1.00  0.00    -0.371 C  
HETATM    2  C   UNL     1     -11.563   7.045  72.603  1.00  0.00    -0.201 C  
HETATM    3  C   UNL     1     -10.151   6.517  72.654  1.00  0.00    -0.174 C  
HETATM    4  C   UNL     1      -9.922   9.288  70.987  1.00  0.00    -0.293 C  
HETATM    5  C   UNL     1      -9.262   7.501  72.424  1.00  0.00    -0.147 C  
HETATM    6  N   UNL     1      -9.886   8.730  72.236  1.00  0.00    -0.287 N  
HETATM    7  C   UNL     1     -11.437   9.072  70.842  1.00  0.00    -0.347 C  
HETATM    8  C   UNL     1      -7.770   7.383  72.305  1.00  0.00    -0.092 C  
HETATM    9  O   UNL     1      -7.147   8.542  71.996  1.00  0.00    -0.092 OA 
HETATM   10  O   UNL     1      -7.130   6.369  72.531  1.00  0.00    -0.077 OA 
HETATM   11  O   UNL     1      -8.996   9.677  70.318  1.00  0.00    -0.231 OA 
ENDROOT
BRANCH   3  12
HETATM   12  S   UNL     1      -9.943   4.815  72.786  1.00  0.00    -0.169 SA 
BRANCH  12  13
HETATM   13  C   UNL     1      -9.965   4.188  71.080  1.00  0.00    -0.136 C  
BRANCH  13  14
HETATM   14  C   UNL     1      -9.547   5.188  70.002  1.00  0.00    -0.181 C  
BRANCH  14  15
HETATM   15  N   UNL     1     -10.738   5.611  69.240  1.00  0.00    -0.296 NA 
HETATM   16  H   UNL     1     -11.678   5.276  69.447  1.00  0.00     0.000 HD 
BRANCH  15  17
HETATM   17  C   UNL     1     -10.483   6.439  68.294  1.00  0.00    -0.223 C  
HETATM   18  H1  UNL     1     -11.199   7.476  66.625  1.00  0.00     0.000 HD 
HETATM   19  N   UNL     1     -11.402   6.818  67.378  1.00  0.00    -0.739 NA 
HETATM   20  H2  UNL     1     -12.341   6.428  67.442  1.00  0.00     0.000 HD 
ENDBRANCH  15  17
ENDBRANCH  14  15
ENDBRANCH  13  14
ENDBRANCH  12  13
ENDBRANCH   3  12
BRANCH   7  21
HETATM   21  C   UNL     1     -12.269  10.325  70.633  1.00  0.00    -0.329 C  
HETATM   22  O   UNL     1     -11.374  11.387  70.318  1.00  0.00    -0.489 OA 
HETATM   23  C   UNL     1     -13.054  10.676  71.890  1.00  0.00    -0.563 C  
HETATM   24  H   UNL     1     -11.894  12.171  70.188  1.00  0.00     0.000 HD 
ENDBRANCH   7  21
TORSDOF 6
ENDMDL
MODEL      126
REMARK 921   NORMALIZED FREE ENERGY PREDICTED BY IDOCK:   -3.79 KCAL/MOL
REMARK 922        TOTAL FREE ENERGY PREDICTED BY IDOCK:   -6.33 KCAL/MOL
REMARK 923 INTER-LIGAND FREE ENERGY PREDICTED BY IDOCK:   -6.00 KCAL/MOL
REMARK 924 INTRA-LIGAND FREE ENERGY PREDICTED BY IDOCK:   -0.33 KCAL/MOL
REMARK 927      BINDING AFFINITY PREDICTED BY RF-SCORE:    0.00 PKD
ROOT
HETATM    1  C   UNL     1     -10.175   7.939  69.112  1.00  0.00    -0.216 C  
HETATM    2  C   UNL     1     -10.730   8.873  68.043  1.00  0.00    -0.168 C  
HETATM    3  C   UNL     1      -9.783  10.045  68.092  1.00  0.00    -0.140 C  
HETATM    4  C   UNL     1      -9.391   8.565  70.949  1.00  0.00    -0.174 C  
HETATM    5  C   UNL     1      -8.828   9.852  69.021  1.00  0.00    -0.156 C  
HETATM    6  N   UNL     1      -8.960   8.620  69.651  1.00  0.00    -0.143 N  
HETATM    7  C   UNL     1     -10.740   7.937  70.564  1.00  0.00    -0.233 C  
HETATM    8  C   UNL     1      -7.749  10.808  69.442  1.00  0.00    -0.102 C  
HETATM    9  O   UNL     1      -6.979  10.358  70.458  1.00  0.00    -0.305 OA 
HETATM   10  O   UNL     1      -7.507  11.872  68.897  1.00  0.00    -0.113 OA 
HETATM   11  O   UNL     1      -8.841   8.990  71.936  1.00  0.00    -0.360 OA 
ENDROOT
BRANCH   3  12
HETATM   12  S   UNL     1     -10.182  11.430  67.153  1.00  0.00    -0.208 SA 
BRANCH  12  13
HETATM   13  C   UNL     1     -10.270  10.844  65.435  1.00  0.00    -0.277 C  
BRANCH  13  14
HETATM   14  C   UNL     1     -10.517  11.923  64.380  1.00  0.00    -0.311 C  
BRANCH  14  15
HETATM   15  N   UNL     1     -11.512  11.436  63.406  1.00  0.00    -0.797 NA 
HETATM   16  H   UNL     1     -11.315  10.695  62.733  1.00  0.00     0.000 HD 
BRANCH  15  17
HETATM   17  C   UNL     1     -12.647  12.028  63.482  1.00  0.00    -0.507 C  
HETATM   18  H1  UNL     1     -13.981  13.127  64.659  1.00  0.00     0.000 HD 
HETATM   19  N   UNL     1     -13.079  12.656  64.598  1.00  0.00    -0.848 NA 
HETATM   20  H2  UNL     1     -12.474  12.658  65.418  1.00  0.00     0.000 HD 
ENDBRANCH  15  17
ENDBRANCH  14  15
ENDBRANCH  13  14
ENDBRANCH  12  13
ENDBRANCH   3  12
BRANCH   7  21
HETATM   21  C   UNL     1     -11.038   6.578  71.169  1.00  0.00    -0.282 C  
HETATM   22  O   UNL     1     -11.116   5.639  70.100  1.00  0.00    -0.296 OA 
HETATM   23  C   UNL     1     -12.356   6.593  71.930  1.00  0.00    -0.364 C  
HETATM   24  H   UNL     1     -11.302   4.789  70.479  1.00  0.00     0.000 HD 
ENDBRANCH   7  21
TORSDOF 6
ENDMDL
MODEL      127
REMARK 921   NORMALIZED FREE ENERGY PREDICTED BY IDOCK:   -3.78 KCAL/MOL
REMARK 922        TOTAL FREE ENERGY PREDICTED BY IDOCK:   -6.32 KCAL/MOL
REMARK 923 INTER-LIGAND FREE ENERGY PREDICTED BY IDOCK:   -5.54 KCAL/MOL
REMARK 924 INTRA-LIGAND FREE ENERGY PREDICTED BY IDOCK:   -0.78 KCAL/MOL
REMARK 927      BINDING AFFINITY PREDICTED BY RF-SCORE:    0.00 PKD
ROOT
HETATM    1  C   UNL     1      -9.405  11.897  66.276  1.00  0.00    -0.227 C  
HETATM    2  C   UNL     1     -10.004  13.297  66.236  1.00  0.00    -0.291 C  
HETATM    3  C   UNL     1     -10.781  13.371  67.527  1.00  0.00    -0.254 C  
HETATM    4  C   UNL     1     -10.397  10.196  66.990  1.00  0.00    -0.244 C  
HETATM    5  C   UNL     1     -10.668  12.222  68.220  1.00  0.00    -0.221 C  
HETATM    6  N   UNL     1      -9.847  11.305  67.574  1.00  0.00    -0.177 N  
HETATM    7  C   UNL     1     -10.098  10.695  65.566  1.00  0.00    -0.343 C  
HETATM    8  C   UNL     1     -11.350  11.855  69.507  1.00  0.00    -0.236 C  
HETATM    9  O   UNL     1     -11.096  10.596  69.927  1.00  0.00    -0.270 OA 
HETATM   10  O   UNL     1     -12.020  12.617  70.183  1.00  0.00    -0.346 OA 
HETATM   11  O   UNL     1     -10.970   9.279  67.524  1.00  0.00    -0.199 OA 
ENDROOT
BRANCH   3  12
HETATM   12  S   UNL     1     -11.780  14.747  67.776  1.00  0.00    -0.297 SA 
BRANCH  12  13
HETATM   13  C   UNL     1     -10.882  15.793  68.961  1.00  0.00    -0.248 C  
BRANCH  13  14
HETATM   14  C   UNL     1     -10.575  17.214  68.490  1.00  0.00    -0.361 C  
BRANCH  14  15
HETATM   15  N   UNL     1      -9.127  17.345  68.240  1.00  0.00    -0.264 NA 
HETATM   16  H   UNL     1      -8.455  17.575  68.972  1.00  0.00     0.000 HD 
BRANCH  15  17
HETATM   17  C   UNL     1      -8.789  17.144  67.019  1.00  0.00    -0.229 C  
HETATM   18  H1  UNL     1      -8.959  17.753  65.026  1.00  0.00     0.000 HD 
HETATM   19  N   UNL     1      -9.227  17.912  65.996  1.00  0.00    -0.525 NA 
HETATM   20  H2  UNL     1      -9.854  18.688  66.206  1.00  0.00     0.000 HD 
ENDBRANCH  15  17
ENDBRANCH  14  15
ENDBRANCH  13  14
ENDBRANCH  12  13
ENDBRANCH   3  12
BRANCH   7  21
HETATM   21  C   UNL     1      -9.203   9.803  64.725  1.00  0.00    -0.261 C  
HETATM   22  O   UNL     1      -9.331   8.474  65.223  1.00  0.00    -0.429 OA 
HETATM   23  C   UNL     1      -7.749  10.242  64.816  1.00  0.00    -0.119 C  
HETATM   24  H   UNL     1      -8.772   7.916  64.696  1.00  0.00     0.000 HD 
ENDBRANCH   7  21
TORSDOF 6
ENDMDL
MODEL      128
REMARK 921   NORMALIZED FREE ENERGY PREDICTED BY IDOCK:   -3.78 KCAL/MOL
REMARK 922        TOTAL FREE ENERGY PREDICTED BY IDOCK:   -6.32 KCAL/MOL
REMARK 923 INTER-LIGAND FREE ENERGY PREDICTED BY IDOCK:   -5.69 KCAL/MOL
REMARK 924 INTRA-LIGAND FREE ENERGY PREDICTED BY IDOCK:   -0.64 KCAL/MOL
REMARK 927      BINDING AFFINITY PREDICTED BY RF-SCORE:    0.00 PKD
ROOT
HETATM    1  C   UNL     1     -10.050  17.090  67.490  1.00  0.00    -0.294 C  
HETATM    2  C   UNL     1     -10.437  15.617  67.451  1.00  0.00    -0.291 C  
HETATM    3  C   UNL     1      -9.102  14.916  67.428  1.00  0.00    -0.189 C  
HETATM    4  C   UNL     1      -8.454  17.931  66.427  1.00  0.00    -0.234 C  
HETATM    5  C   UNL     1      -8.092  15.806  67.450  1.00  0.00    -0.169 C  
HETATM    6  N   UNL     1      -8.557  17.115  67.521  1.00  0.00    -0.202 N  
HETATM    7  C   UNL     1      -9.973  17.946  66.190  1.00  0.00    -0.288 C  
HETATM    8  C   UNL     1      -6.620  15.529  67.355  1.00  0.00    -0.139 C  
HETATM    9  O   UNL     1      -5.849  16.639  67.331  1.00  0.00    -0.131 OA 
HETATM   10  O   UNL     1      -6.117  14.418  67.370  1.00  0.00    -0.341 OA 
HETATM   11  O   UNL     1      -7.452  18.335  65.890  1.00  0.00    -0.435 OA 
ENDROOT
BRANCH   3  12
HETATM   12  S   UNL     1      -9.101  13.214  67.185  1.00  0.00    -0.236 SA 
BRANCH  12  13
HETATM   13  C   UNL     1     -10.425  12.894  65.981  1.00  0.00    -0.276 C  
BRANCH  13  14
HETATM   14  C   UNL     1     -10.131  11.805  64.949  1.00  0.00    -0.259 C  
BRANCH  14  15
HETATM   15  N   UNL     1      -8.895  11.094  65.327  1.00  0.00    -0.353 NA 
HETATM   16  H   UNL     1      -8.416  11.245  66.214  1.00  0.00     0.000 HD 
BRANCH  15  17
HETATM   17  C   UNL     1      -8.478  10.268  64.438  1.00  0.00    -0.179 C  
HETATM   18  H1  UNL     1      -6.952   9.740  63.109  1.00  0.00     0.000 HD 
HETATM   19  N   UNL     1      -7.284  10.396  63.816  1.00  0.00    -0.317 NA 
HETATM   20  H2  UNL     1      -6.689  11.185  64.065  1.00  0.00     0.000 HD 
ENDBRANCH  15  17
ENDBRANCH  14  15
ENDBRANCH  13  14
ENDBRANCH  12  13
ENDBRANCH   3  12
BRANCH   7  21
HETATM   21  C   UNL     1     -10.640  19.308  66.240  1.00  0.00    -0.454 C  
HETATM   22  O   UNL     1      -9.711  20.260  65.729  1.00  0.00    -0.608 OA 
HETATM   23  C   UNL     1     -11.018  19.682  67.666  1.00  0.00    -0.290 C  
HETATM   24  H   UNL     1     -10.128  21.112  65.760  1.00  0.00     0.000 HD 
ENDBRANCH   7  21
TORSDOF 6
ENDMDL
MODEL      129
REMARK 921   NORMALIZED FREE ENERGY PREDICTED BY IDOCK:   -3.77 KCAL/MOL
REMARK 922        TOTAL FREE ENERGY PREDICTED BY IDOCK:   -6.30 KCAL/MOL
REMARK 923 INTER-LIGAND FREE ENERGY PREDICTED BY IDOCK:   -5.78 KCAL/MOL
REMARK 924 INTRA-LIGAND FREE ENERGY PREDICTED BY IDOCK:   -0.53 KCAL/MOL
REMARK 927      BINDING AFFINITY PREDICTED BY RF-SCORE:    0.00 PKD
ROOT
HETATM    1  C   UNL     1      -9.960  17.647  67.781  1.00  0.00    -0.315 C  
HETATM    2  C   UNL     1     -10.390  16.283  67.258  1.00  0.00    -0.285 C  
HETATM    3  C   UNL     1      -9.356  15.354  67.844  1.00  0.00    -0.192 C  
HETATM    4  C   UNL     1      -7.972  18.284  67.957  1.00  0.00    -0.264 C  
HETATM    5  C   UNL     1      -8.465  16.036  68.587  1.00  0.00    -0.208 C  
HETATM    6  N   UNL     1      -8.761  17.394  68.635  1.00  0.00    -0.277 N  
HETATM    7  C   UNL     1      -9.070  18.602  66.929  1.00  0.00    -0.295 C  
HETATM    8  C   UNL     1      -7.238  15.503  69.270  1.00  0.00    -0.196 C  
HETATM    9  O   UNL     1      -6.493  16.448  69.885  1.00  0.00    -0.192 OA 
HETATM   10  O   UNL     1      -6.941  14.322  69.350  1.00  0.00    -0.128 OA 
HETATM   11  O   UNL     1      -6.811  18.549  68.150  1.00  0.00    -0.220 OA 
ENDROOT
BRANCH   3  12
HETATM   12  S   UNL     1      -9.375  13.715  67.326  1.00  0.00    -0.243 SA 
BRANCH  12  13
HETATM   13  C   UNL     1     -10.810  13.570  66.219  1.00  0.00    -0.289 C  
BRANCH  13  14
HETATM   14  C   UNL     1     -11.505  12.209  66.211  1.00  0.00    -0.374 C  
BRANCH  14  15
HETATM   15  N   UNL     1     -10.637  11.213  66.868  1.00  0.00    -0.246 NA 
HETATM   16  H   UNL     1      -9.676  11.034  66.576  1.00  0.00     0.000 HD 
BRANCH  15  17
HETATM   17  C   UNL     1     -11.200  10.592  67.839  1.00  0.00    -0.308 C  
HETATM   18  H1  UNL     1     -11.522   8.767  68.807  1.00  0.00     0.000 HD 
HETATM   19  N   UNL     1     -11.074   9.261  68.035  1.00  0.00    -0.501 NA 
HETATM   20  H2  UNL     1     -10.505   8.725  67.381  1.00  0.00     0.000 HD 
ENDBRANCH  15  17
ENDBRANCH  14  15
ENDBRANCH  13  14
ENDBRANCH  12  13
ENDBRANCH   3  12
BRANCH   7  21
HETATM   21  C   UNL     1      -9.513  20.052  66.858  1.00  0.00    -0.402 C  
HETATM   22  O   UNL     1      -8.340  20.861  66.878  1.00  0.00    -0.567 OA 
HETATM   23  C   UNL     1     -10.400  20.412  68.042  1.00  0.00    -0.279 C  
HETATM   24  H   UNL     1      -8.618  21.768  66.834  1.00  0.00     0.000 HD 
ENDBRANCH   7  21
TORSDOF 6
ENDMDL
MODEL      130
REMARK 921   NORMALIZED FREE ENERGY PREDICTED BY IDOCK:   -3.75 KCAL/MOL
REMARK 922        TOTAL FREE ENERGY PREDICTED BY IDOCK:   -6.29 KCAL/MOL
REMARK 923 INTER-LIGAND FREE ENERGY PREDICTED BY IDOCK:   -5.31 KCAL/MOL
REMARK 924 INTRA-LIGAND FREE ENERGY PREDICTED BY IDOCK:   -0.98 KCAL/MOL
REMARK 927      BINDING AFFINITY PREDICTED BY RF-SCORE:    0.00 PKD
ROOT
HETATM    1  C   UNL     1     -11.862  11.491  69.258  1.00  0.00    -0.348 C  
HETATM    2  C   UNL     1     -11.435  12.913  68.917  1.00  0.00    -0.350 C  
HETATM    3  C   UNL     1     -10.737  12.749  67.591  1.00  0.00    -0.219 C  
HETATM    4  C   UNL     1     -10.707   9.782  68.896  1.00  0.00    -0.217 C  
HETATM    5  C   UNL     1     -10.743  11.460  67.202  1.00  0.00    -0.249 C  
HETATM    6  N   UNL     1     -11.415  10.648  68.108  1.00  0.00    -0.286 N  
HETATM    7  C   UNL     1     -10.995  10.580  70.179  1.00  0.00    -0.338 C  
HETATM    8  C   UNL     1     -10.085  10.863  65.991  1.00  0.00    -0.249 C  
HETATM    9  O   UNL     1     -10.205   9.519  65.904  1.00  0.00    -0.266 OA 
HETATM   10  O   UNL     1      -9.545  11.501  65.103  1.00  0.00    -0.233 OA 
HETATM   11  O   UNL     1     -10.053   8.827  68.554  1.00  0.00    -0.178 OA 
ENDROOT
BRANCH   3  12
HETATM   12  S   UNL     1      -9.925  14.120  66.945  1.00  0.00    -0.268 SA 
BRANCH  12  13
HETATM   13  C   UNL     1      -8.855  14.728  68.283  1.00  0.00    -0.179 C  
BRANCH  13  14
HETATM   14  C   UNL     1      -7.353  14.676  68.004  1.00  0.00    -0.135 C  
BRANCH  14  15
HETATM   15  N   UNL     1      -6.851  13.316  68.280  1.00  0.00    -0.092 NA 
HETATM   16  H   UNL     1      -6.846  12.904  69.213  1.00  0.00     0.000 HD 
BRANCH  15  17
HETATM   17  C   UNL     1      -6.422  12.699  67.240  1.00  0.00    -0.097 C  
HETATM   18  H1  UNL     1      -6.533  10.990  66.040  1.00  0.00     0.000 HD 
HETATM   19  N   UNL     1      -6.874  11.481  66.866  1.00  0.00    -0.163 NA 
HETATM   20  H2  UNL     1      -7.589  11.033  67.437  1.00  0.00     0.000 HD 
ENDBRANCH  15  17
ENDBRANCH  14  15
ENDBRANCH  13  14
ENDBRANCH  12  13
ENDBRANCH   3  12
BRANCH   7  21
HETATM   21  C   UNL     1     -11.733   9.833  71.275  1.00  0.00    -0.394 C  
HETATM   22  O   UNL     1     -12.045   8.535  70.774  1.00  0.00    -0.464 OA 
HETATM   23  C   UNL     1     -13.018  10.552  71.659  1.00  0.00    -0.581 C  
HETATM   24  H   UNL     1     -12.507   8.068  71.460  1.00  0.00     0.000 HD 
ENDBRANCH   7  21
TORSDOF 6
ENDMDL
MODEL      131
REMARK 921   NORMALIZED FREE ENERGY PREDICTED BY IDOCK:   -3.74 KCAL/MOL
REMARK 922        TOTAL FREE ENERGY PREDICTED BY IDOCK:   -6.27 KCAL/MOL
REMARK 923 INTER-LIGAND FREE ENERGY PREDICTED BY IDOCK:   -5.04 KCAL/MOL
REMARK 924 INTRA-LIGAND FREE ENERGY PREDICTED BY IDOCK:   -1.23 KCAL/MOL
REMARK 927      BINDING AFFINITY PREDICTED BY RF-SCORE:    0.00 PKD
ROOT
HETATM    1  C   UNL     1     -11.607   8.732  71.252  1.00  0.00    -0.292 C  
HETATM    2  C   UNL     1     -12.154   7.335  71.515  1.00  0.00    -0.365 C  
HETATM    3  C   UNL     1     -11.189   6.779  72.532  1.00  0.00    -0.268 C  
HETATM    4  C   UNL     1      -9.572   9.210  71.122  1.00  0.00    -0.277 C  
HETATM    5  C   UNL     1     -10.233   7.679  72.829  1.00  0.00    -0.279 C  
HETATM    6  N   UNL     1     -10.418   8.876  72.145  1.00  0.00    -0.317 N  
HETATM    7  C   UNL     1     -10.658   9.022  70.050  1.00  0.00    -0.246 C  
HETATM    8  C   UNL     1      -9.042   7.494  73.724  1.00  0.00    -0.260 C  
HETATM    9  O   UNL     1      -8.213   8.561  73.769  1.00  0.00    -0.376 OA 
HETATM   10  O   UNL     1      -8.840   6.515  74.423  1.00  0.00    -0.141 OA 
HETATM   11  O   UNL     1      -8.390   9.447  71.179  1.00  0.00    -0.310 OA 
ENDROOT
BRANCH   3  12
HETATM   12  S   UNL     1     -11.348   5.120  72.956  1.00  0.00    -0.258 SA 
BRANCH  12  13
HETATM   13  C   UNL     1     -10.010   4.262  72.074  1.00  0.00    -0.180 C  
BRANCH  13  14
HETATM   14  C   UNL     1      -9.703   4.782  70.670  1.00  0.00    -0.200 C  
BRANCH  14  15
HETATM   15  N   UNL     1      -8.244   4.776  70.454  1.00  0.00    -0.082 NA 
HETATM   16  H   UNL     1      -7.751   4.006  70.004  1.00  0.00     0.000 HD 
BRANCH  15  17
HETATM   17  C   UNL     1      -7.651   5.829  70.886  1.00  0.00    -0.092 C  
HETATM   18  H1  UNL     1      -6.716   7.638  70.412  1.00  0.00     0.000 HD 
HETATM   19  N   UNL     1      -7.187   6.802  70.069  1.00  0.00    -0.074 NA 
HETATM   20  H2  UNL     1      -7.316   6.693  69.064  1.00  0.00     0.000 HD 
ENDBRANCH  15  17
ENDBRANCH  14  15
ENDBRANCH  13  14
ENDBRANCH  12  13
ENDBRANCH   3  12
BRANCH   7  21
HETATM   21  C   UNL     1     -10.985  10.245  69.213  1.00  0.00    -0.241 C  
HETATM   22  O   UNL     1      -9.899  11.159  69.347  1.00  0.00    -0.422 OA 
HETATM   23  C   UNL     1     -12.269  10.908  69.689  1.00  0.00    -0.354 C  
HETATM   24  H   UNL     1     -10.104  11.924  68.823  1.00  0.00     0.000 HD 
ENDBRANCH   7  21
TORSDOF 6
ENDMDL
MODEL      132
REMARK 921   NORMALIZED FREE ENERGY PREDICTED BY IDOCK:   -3.74 KCAL/MOL
REMARK 922        TOTAL FREE ENERGY PREDICTED BY IDOCK:   -6.26 KCAL/MOL
REMARK 923 INTER-LIGAND FREE ENERGY PREDICTED BY IDOCK:   -5.40 KCAL/MOL
REMARK 924 INTRA-LIGAND FREE ENERGY PREDICTED BY IDOCK:   -0.86 KCAL/MOL
REMARK 927      BINDING AFFINITY PREDICTED BY RF-SCORE:    0.00 PKD
ROOT
HETATM    1  C   UNL     1     -10.997  12.222  66.901  1.00  0.00    -0.267 C  
HETATM    2  C   UNL     1     -11.741  11.655  68.104  1.00  0.00    -0.365 C  
HETATM    3  C   UNL     1     -10.629  11.096  68.957  1.00  0.00    -0.218 C  
HETATM    4  C   UNL     1      -9.342  11.320  65.989  1.00  0.00    -0.214 C  
HETATM    5  C   UNL     1      -9.432  11.292  68.373  1.00  0.00    -0.192 C  
HETATM    6  N   UNL     1      -9.548  11.980  67.171  1.00  0.00    -0.190 N  
HETATM    7  C   UNL     1     -10.825  11.400  65.589  1.00  0.00    -0.280 C  
HETATM    8  C   UNL     1      -8.089  10.816  68.848  1.00  0.00    -0.145 C  
HETATM    9  O   UNL     1      -7.071  11.107  68.007  1.00  0.00    -0.071 OA 
HETATM   10  O   UNL     1      -7.879  10.279  69.922  1.00  0.00    -0.166 OA 
HETATM   11  O   UNL     1      -8.323  10.819  65.583  1.00  0.00    -0.164 OA 
ENDROOT
BRANCH   3  12
HETATM   12  S   UNL     1     -11.073  10.179  70.342  1.00  0.00    -0.329 SA 
BRANCH  12  13
HETATM   13  C   UNL     1     -11.356   8.488  69.737  1.00  0.00     0.132 C  
BRANCH  13  14
HETATM   14  C   UNL     1     -10.100   7.703  69.358  1.00  0.00    -0.196 C  
BRANCH  14  15
HETATM   15  N   UNL     1     -10.149   7.366  67.922  1.00  0.00    -0.169 NA 
HETATM   16  H   UNL     1      -9.667   7.909  67.207  1.00  0.00     0.000 HD 
BRANCH  15  17
HETATM   17  C   UNL     1     -10.855   6.328  67.656  1.00  0.00    -0.346 C  
HETATM   18  H1  UNL     1     -11.639   5.067  66.184  1.00  0.00     0.000 HD 
HETATM   19  N   UNL     1     -11.079   5.892  66.396  1.00  0.00    -0.759 NA 
HETATM   20  H2  UNL     1     -10.668   6.413  65.622  1.00  0.00     0.000 HD 
ENDBRANCH  15  17
ENDBRANCH  14  15
ENDBRANCH  13  14
ENDBRANCH  12  13
ENDBRANCH   3  12
BRANCH   7  21
HETATM   21  C   UNL     1     -11.125  12.129  64.292  1.00  0.00    -0.346 C  
HETATM   22  O   UNL     1      -9.900  12.680  63.817  1.00  0.00    -0.660 OA 
HETATM   23  C   UNL     1     -12.133  13.248  64.513  1.00  0.00    -0.461 C  
HETATM   24  H   UNL     1     -10.087  13.136  63.005  1.00  0.00     0.000 HD 
ENDBRANCH   7  21
TORSDOF 6
ENDMDL
MODEL      133
REMARK 921   NORMALIZED FREE ENERGY PREDICTED BY IDOCK:   -3.72 KCAL/MOL
REMARK 922        TOTAL FREE ENERGY PREDICTED BY IDOCK:   -6.24 KCAL/MOL
REMARK 923 INTER-LIGAND FREE ENERGY PREDICTED BY IDOCK:   -5.64 KCAL/MOL
REMARK 924 INTRA-LIGAND FREE ENERGY PREDICTED BY IDOCK:   -0.61 KCAL/MOL
REMARK 927      BINDING AFFINITY PREDICTED BY RF-SCORE:    0.00 PKD
ROOT
HETATM    1  C   UNL     1     -10.664   6.561  67.998  1.00  0.00    -0.283 C  
HETATM    2  C   UNL     1     -10.736   7.209  69.375  1.00  0.00    -0.246 C  
HETATM    3  C   UNL     1     -10.620   8.681  69.063  1.00  0.00    -0.160 C  
HETATM    4  C   UNL     1      -9.412   7.198  66.445  1.00  0.00    -0.123 C  
HETATM    5  C   UNL     1     -10.501   8.882  67.738  1.00  0.00    -0.239 C  
HETATM    6  N   UNL     1     -10.550   7.689  67.025  1.00  0.00    -0.351 N  
HETATM    7  C   UNL     1      -9.321   6.016  67.424  1.00  0.00    -0.111 C  
HETATM    8  C   UNL     1     -10.278  10.183  67.022  1.00  0.00    -0.234 C  
HETATM    9  O   UNL     1     -10.125  10.060  65.685  1.00  0.00    -0.282 OA 
HETATM   10  O   UNL     1     -10.300  11.283  67.550  1.00  0.00    -0.185 OA 
HETATM   11  O   UNL     1      -8.762   7.683  65.551  1.00  0.00    -0.135 OA 
ENDROOT
BRANCH   3  12
HETATM   12  S   UNL     1     -10.463   9.764  70.389  1.00  0.00    -0.293 SA 
BRANCH  12  13
HETATM   13  C   UNL     1     -12.021  10.698  70.442  1.00  0.00    -0.346 C  
BRANCH  13  14
HETATM   14  C   UNL     1     -12.843  10.542  71.721  1.00  0.00    -0.454 C  
BRANCH  14  15
HETATM   15  N   UNL     1     -12.819   9.130  72.148  1.00  0.00    -0.397 NA 
HETATM   16  H   UNL     1     -11.993   8.684  72.547  1.00  0.00     0.000 HD 
BRANCH  15  17
HETATM   17  C   UNL     1     -13.931   8.515  71.973  1.00  0.00    -0.433 C  
HETATM   18  H1  UNL     1     -14.954   6.980  70.988  1.00  0.00     0.000 HD 
HETATM   19  N   UNL     1     -14.071   7.469  71.127  1.00  0.00    -0.656 NA 
HETATM   20  H2  UNL     1     -13.254   7.156  70.605  1.00  0.00     0.000 HD 
ENDBRANCH  15  17
ENDBRANCH  14  15
ENDBRANCH  13  14
ENDBRANCH  12  13
ENDBRANCH   3  12
BRANCH   7  21
HETATM   21  C   UNL     1      -9.366   4.633  66.801  1.00  0.00    -0.146 C  
HETATM   22  O   UNL     1     -10.693   4.419  66.328  1.00  0.00    -0.392 OA 
HETATM   23  C   UNL     1      -9.012   3.561  67.822  1.00  0.00    -0.171 C  
HETATM   24  H   UNL     1     -10.721   3.553  65.938  1.00  0.00     0.000 HD 
ENDBRANCH   7  21
TORSDOF 6
ENDMDL
MODEL      134
REMARK 921   NORMALIZED FREE ENERGY PREDICTED BY IDOCK:   -3.71 KCAL/MOL
REMARK 922        TOTAL FREE ENERGY PREDICTED BY IDOCK:   -6.23 KCAL/MOL
REMARK 923 INTER-LIGAND FREE ENERGY PREDICTED BY IDOCK:   -5.80 KCAL/MOL
REMARK 924 INTRA-LIGAND FREE ENERGY PREDICTED BY IDOCK:   -0.44 KCAL/MOL
REMARK 927      BINDING AFFINITY PREDICTED BY RF-SCORE:    0.00 PKD
ROOT
HETATM    1  C   UNL     1     -11.630  10.113  70.334  1.00  0.00    -0.316 C  
HETATM    2  C   UNL     1     -12.015  11.584  70.415  1.00  0.00    -0.459 C  
HETATM    3  C   UNL     1     -11.719  12.090  69.025  1.00  0.00    -0.325 C  
HETATM    4  C   UNL     1      -9.974   9.370  69.290  1.00  0.00    -0.181 C  
HETATM    5  C   UNL     1     -11.243  11.100  68.246  1.00  0.00    -0.279 C  
HETATM    6  N   UNL     1     -11.187   9.888  68.925  1.00  0.00    -0.136 N  
HETATM    7  C   UNL     1     -10.225   9.613  70.787  1.00  0.00    -0.330 C  
HETATM    8  C   UNL     1     -10.750  11.200  66.831  1.00  0.00    -0.274 C  
HETATM    9  O   UNL     1     -10.261  10.043  66.333  1.00  0.00    -0.236 OA 
HETATM   10  O   UNL     1     -10.834  12.197  66.132  1.00  0.00    -0.262 OA 
HETATM   11  O   UNL     1      -9.080   8.990  68.574  1.00  0.00    -0.133 OA 
ENDROOT
BRANCH   3  12
HETATM   12  S   UNL     1     -11.840  13.783  68.752  1.00  0.00    -0.372 SA 
BRANCH  12  13
HETATM   13  C   UNL     1     -10.148  14.426  68.922  1.00  0.00    -0.200 C  
BRANCH  13  14
HETATM   14  C   UNL     1     -10.009  15.715  69.730  1.00  0.00    -0.277 C  
BRANCH  14  15
HETATM   15  N   UNL     1     -10.882  16.753  69.151  1.00  0.00    -0.316 NA 
HETATM   16  H   UNL     1     -11.738  17.074  69.602  1.00  0.00     0.000 HD 
BRANCH  15  17
HETATM   17  C   UNL     1     -10.468  17.213  68.027  1.00  0.00    -0.369 C  
HETATM   18  H1  UNL     1     -10.167  18.894  66.821  1.00  0.00     0.000 HD 
HETATM   19  N   UNL     1     -10.496  18.528  67.713  1.00  0.00    -0.407 NA 
HETATM   20  H2  UNL     1     -10.864  19.183  68.402  1.00  0.00     0.000 HD 
ENDBRANCH  15  17
ENDBRANCH  14  15
ENDBRANCH  13  14
ENDBRANCH  12  13
ENDBRANCH   3  12
BRANCH   7  21
HETATM   21  C   UNL     1     -10.202   8.380  71.672  1.00  0.00    -0.241 C  
HETATM   22  O   UNL     1     -11.356   8.430  72.507  1.00  0.00    -0.375 OA 
HETATM   23  C   UNL     1      -8.950   8.350  72.537  1.00  0.00    -0.308 C  
HETATM   24  H   UNL     1     -11.341   7.658  73.061  1.00  0.00     0.000 HD 
ENDBRANCH   7  21
TORSDOF 6
ENDMDL
MODEL      135
REMARK 921   NORMALIZED FREE ENERGY PREDICTED BY IDOCK:   -3.71 KCAL/MOL
REMARK 922        TOTAL FREE ENERGY PREDICTED BY IDOCK:   -6.23 KCAL/MOL
REMARK 923 INTER-LIGAND FREE ENERGY PREDICTED BY IDOCK:   -5.58 KCAL/MOL
REMARK 924 INTRA-LIGAND FREE ENERGY PREDICTED BY IDOCK:   -0.66 KCAL/MOL
REMARK 927      BINDING AFFINITY PREDICTED BY RF-SCORE:    0.00 PKD
ROOT
HETATM    1  C   UNL     1     -10.273  11.651  66.085  1.00  0.00    -0.226 C  
HETATM    2  C   UNL     1     -11.569  12.362  66.452  1.00  0.00    -0.442 C  
HETATM    3  C   UNL     1     -11.086  13.657  67.057  1.00  0.00    -0.301 C  
HETATM    4  C   UNL     1      -8.533  11.667  67.251  1.00  0.00    -0.156 C  
HETATM    5  C   UNL     1      -9.741  13.715  67.054  1.00  0.00    -0.251 C  
HETATM    6  N   UNL     1      -9.174  12.588  66.468  1.00  0.00    -0.230 N  
HETATM    7  C   UNL     1      -9.622  10.602  67.037  1.00  0.00    -0.196 C  
HETATM    8  C   UNL     1      -8.866  14.787  67.637  1.00  0.00    -0.179 C  
HETATM    9  O   UNL     1      -7.542  14.531  67.544  1.00  0.00    -0.164 OA 
HETATM   10  O   UNL     1      -9.269  15.843  68.097  1.00  0.00    -0.188 OA 
HETATM   11  O   UNL     1      -7.527  11.812  67.901  1.00  0.00    -0.095 OA 
ENDROOT
BRANCH   3  12
HETATM   12  S   UNL     1     -12.259  14.679  67.788  1.00  0.00     0.131 SA 
BRANCH  12  13
HETATM   13  C   UNL     1     -12.375  14.130  69.517  1.00  0.00    -0.231 C  
BRANCH  13  14
HETATM   14  C   UNL     1     -12.507  15.242  70.557  1.00  0.00    -0.405 C  
BRANCH  14  15
HETATM   15  N   UNL     1     -13.934  15.459  70.862  1.00  0.00    -0.857 NA 
HETATM   16  H   UNL     1     -14.605  15.799  70.173  1.00  0.00     0.000 HD 
BRANCH  15  17
HETATM   17  C   UNL     1     -14.255  15.180  72.073  1.00  0.00    -0.577 C  
HETATM   18  H1  UNL     1     -14.131  15.715  74.091  1.00  0.00     0.000 HD 
HETATM   19  N   UNL     1     -13.877  15.936  73.129  1.00  0.00    -0.682 NA 
HETATM   20  H2  UNL     1     -13.311  16.765  72.954  1.00  0.00     0.000 HD 
ENDBRANCH  15  17
ENDBRANCH  14  15
ENDBRANCH  13  14
ENDBRANCH  12  13
ENDBRANCH   3  12
BRANCH   7  21
HETATM   21  C   UNL     1      -9.165   9.304  66.397  1.00  0.00    -0.180 C  
HETATM   22  O   UNL     1      -7.806   9.096  66.773  1.00  0.00    -0.099 OA 
HETATM   23  C   UNL     1      -9.268   9.374  64.880  1.00  0.00    -0.246 C  
HETATM   24  H   UNL     1      -7.520   8.283  66.373  1.00  0.00     0.000 HD 
ENDBRANCH   7  21
TORSDOF 6
ENDMDL
MODEL      136
REMARK 921   NORMALIZED FREE ENERGY PREDICTED BY IDOCK:   -3.69 KCAL/MOL
REMARK 922        TOTAL FREE ENERGY PREDICTED BY IDOCK:   -6.19 KCAL/MOL
REMARK 923 INTER-LIGAND FREE ENERGY PREDICTED BY IDOCK:   -5.75 KCAL/MOL
REMARK 924 INTRA-LIGAND FREE ENERGY PREDICTED BY IDOCK:   -0.44 KCAL/MOL
REMARK 927      BINDING AFFINITY PREDICTED BY RF-SCORE:    0.00 PKD
ROOT
HETATM    1  C   UNL     1      -9.858  12.693  67.909  1.00  0.00    -0.218 C  
HETATM    2  C   UNL     1      -9.778  14.211  67.803  1.00  0.00    -0.223 C  
HETATM    3  C   UNL     1     -10.670  14.516  66.625  1.00  0.00    -0.305 C  
HETATM    4  C   UNL     1      -9.905  11.385  66.275  1.00  0.00    -0.218 C  
HETATM    5  C   UNL     1     -11.195  13.386  66.116  1.00  0.00    -0.295 C  
HETATM    6  N   UNL     1     -10.797  12.261  66.831  1.00  0.00    -0.243 N  
HETATM    7  C   UNL     1      -8.785  11.773  67.254  1.00  0.00    -0.163 C  
HETATM    8  C   UNL     1     -12.061  13.242  64.898  1.00  0.00    -0.397 C  
HETATM    9  O   UNL     1     -12.375  11.964  64.591  1.00  0.00    -0.248 OA 
HETATM   10  O   UNL     1     -12.524  14.172  64.257  1.00  0.00    -0.650 OA 
HETATM   11  O   UNL     1     -10.052  10.690  65.300  1.00  0.00    -0.267 OA 
ENDROOT
BRANCH   3  12
HETATM   12  S   UNL     1     -10.698  16.135  66.047  1.00  0.00    -0.185 SA 
BRANCH  12  13
HETATM   13  C   UNL     1      -8.971  16.701  66.101  1.00  0.00    -0.286 C  
BRANCH  13  14
HETATM   14  C   UNL     1      -8.767  18.165  66.490  1.00  0.00    -0.268 C  
BRANCH  14  15
HETATM   15  N   UNL     1     -10.003  18.684  67.106  1.00  0.00    -0.316 NA 
HETATM   16  H   UNL     1     -10.596  18.124  67.717  1.00  0.00     0.000 HD 
BRANCH  15  17
HETATM   17  C   UNL     1     -10.263  19.903  66.801  1.00  0.00    -0.477 C  
HETATM   18  H1  UNL     1     -10.299  21.374  65.316  1.00  0.00     0.000 HD 
HETATM   19  N   UNL     1     -10.093  20.405  65.558  1.00  0.00    -0.438 NA 
HETATM   20  H2  UNL     1      -9.741  19.787  64.829  1.00  0.00     0.000 HD 
ENDBRANCH  15  17
ENDBRANCH  14  15
ENDBRANCH  13  14
ENDBRANCH  12  13
ENDBRANCH   3  12
BRANCH   7  21
HETATM   21  C   UNL     1      -8.240  10.651  68.119  1.00  0.00    -0.116 C  
HETATM   22  O   UNL     1      -8.744  10.843  69.438  1.00  0.00    -0.372 OA 
HETATM   23  C   UNL     1      -6.718  10.672  68.148  1.00  0.00    -0.064 C  
HETATM   24  H   UNL     1      -8.403  10.141  69.979  1.00  0.00     0.000 HD 
ENDBRANCH   7  21
TORSDOF 6
ENDMDL
MODEL      137
REMARK 921   NORMALIZED FREE ENERGY PREDICTED BY IDOCK:   -3.69 KCAL/MOL
REMARK 922        TOTAL FREE ENERGY PREDICTED BY IDOCK:   -6.19 KCAL/MOL
REMARK 923 INTER-LIGAND FREE ENERGY PREDICTED BY IDOCK:   -5.56 KCAL/MOL
REMARK 924 INTRA-LIGAND FREE ENERGY PREDICTED BY IDOCK:   -0.63 KCAL/MOL
REMARK 927      BINDING AFFINITY PREDICTED BY RF-SCORE:    0.00 PKD
ROOT
HETATM    1  C   UNL     1     -10.727  10.841  67.862  1.00  0.00    -0.239 C  
HETATM    2  C   UNL     1     -11.215  12.282  67.789  1.00  0.00    -0.331 C  
HETATM    3  C   UNL     1     -11.152  12.588  66.314  1.00  0.00    -0.295 C  
HETATM    4  C   UNL     1      -9.173  10.049  66.703  1.00  0.00    -0.149 C  
HETATM    5  C   UNL     1     -10.707  11.522  65.622  1.00  0.00    -0.267 C  
HETATM    6  N   UNL     1     -10.462  10.432  66.450  1.00  0.00    -0.210 N  
HETATM    7  C   UNL     1      -9.238  10.500  68.172  1.00  0.00    -0.148 C  
HETATM    8  C   UNL     1     -10.420  11.436  64.150  1.00  0.00    -0.363 C  
HETATM    9  O   UNL     1      -9.910  10.248  63.755  1.00  0.00    -0.299 OA 
HETATM   10  O   UNL     1     -10.677  12.308  63.337  1.00  0.00    -0.446 OA 
HETATM   11  O   UNL     1      -8.356   9.619  65.926  1.00  0.00    -0.117 OA 
ENDROOT
BRANCH   3  12
HETATM   12  S   UNL     1     -11.444  14.210  65.824  1.00  0.00    -0.335 SA 
BRANCH  12  13
HETATM   13  C   UNL     1     -10.252  15.221  66.751  1.00  0.00    -0.272 C  
BRANCH  13  14
HETATM   14  C   UNL     1     -10.826  16.006  67.930  1.00  0.00    -0.333 C  
BRANCH  14  15
HETATM   15  N   UNL     1     -10.721  17.451  67.653  1.00  0.00    -0.347 NA 
HETATM   16  H   UNL     1     -10.831  18.165  68.373  1.00  0.00     0.000 HD 
BRANCH  15  17
HETATM   17  C   UNL     1     -10.478  17.729  66.424  1.00  0.00    -0.297 C  
HETATM   18  H1  UNL     1      -9.544  19.014  65.064  1.00  0.00     0.000 HD 
HETATM   19  N   UNL     1      -9.737  18.793  66.040  1.00  0.00    -0.498 NA 
HETATM   20  H2  UNL     1      -9.354  19.403  66.762  1.00  0.00     0.000 HD 
ENDBRANCH  15  17
ENDBRANCH  14  15
ENDBRANCH  13  14
ENDBRANCH  12  13
ENDBRANCH   3  12
BRANCH   7  21
HETATM   21  C   UNL     1      -8.996   9.420  69.210  1.00  0.00    -0.154 C  
HETATM   22  O   UNL     1      -9.131   8.160  68.557  1.00  0.00    -0.137 OA 
HETATM   23  C   UNL     1     -10.005   9.515  70.345  1.00  0.00    -0.325 C  
HETATM   24  H   UNL     1      -8.979   7.484  69.207  1.00  0.00     0.000 HD 
ENDBRANCH   7  21
TORSDOF 6
ENDMDL
MODEL      138
REMARK 921   NORMALIZED FREE ENERGY PREDICTED BY IDOCK:   -3.68 KCAL/MOL
REMARK 922        TOTAL FREE ENERGY PREDICTED BY IDOCK:   -6.19 KCAL/MOL
REMARK 923 INTER-LIGAND FREE ENERGY PREDICTED BY IDOCK:   -5.77 KCAL/MOL
REMARK 924 INTRA-LIGAND FREE ENERGY PREDICTED BY IDOCK:   -0.42 KCAL/MOL
REMARK 927      BINDING AFFINITY PREDICTED BY RF-SCORE:    0.00 PKD
ROOT
HETATM    1  C   UNL     1      -9.653  17.206  68.447  1.00  0.00    -0.281 C  
HETATM    2  C   UNL     1     -11.001  16.505  68.567  1.00  0.00    -0.350 C  
HETATM    3  C   UNL     1     -10.626  15.044  68.555  1.00  0.00    -0.235 C  
HETATM    4  C   UNL     1      -8.072  16.549  67.242  1.00  0.00    -0.168 C  
HETATM    5  C   UNL     1      -9.293  14.892  68.448  1.00  0.00    -0.197 C  
HETATM    6  N   UNL     1      -8.633  16.115  68.413  1.00  0.00    -0.182 N  
HETATM    7  C   UNL     1      -9.101  17.678  67.069  1.00  0.00    -0.256 C  
HETATM    8  C   UNL     1      -8.522  13.610  68.317  1.00  0.00    -0.170 C  
HETATM    9  O   UNL     1      -7.191  13.780  68.154  1.00  0.00    -0.094 OA 
HETATM   10  O   UNL     1      -9.002  12.493  68.418  1.00  0.00    -0.189 OA 
HETATM   11  O   UNL     1      -7.157  16.058  66.626  1.00  0.00    -0.193 OA 
ENDROOT
BRANCH   3  12
HETATM   12  S   UNL     1     -11.904  13.896  68.476  1.00  0.00    -0.365 SA 
BRANCH  12  13
HETATM   13  C   UNL     1     -11.963  13.121  70.119  1.00  0.00    -0.310 C  
BRANCH  13  14
HETATM   14  C   UNL     1     -13.093  13.594  71.033  1.00  0.00    -0.180 C  
BRANCH  14  15
HETATM   15  N   UNL     1     -13.408  15.003  70.733  1.00  0.00    -0.628 NA 
HETATM   16  H   UNL     1     -13.731  15.318  69.818  1.00  0.00     0.000 HD 
BRANCH  15  17
HETATM   17  C   UNL     1     -13.237  15.798  71.726  1.00  0.00    -0.397 C  
HETATM   18  H1  UNL     1     -11.931  17.059  72.763  1.00  0.00     0.000 HD 
HETATM   19  N   UNL     1     -12.067  16.428  71.974  1.00  0.00    -0.623 NA 
HETATM   20  H2  UNL     1     -11.284  16.264  71.342  1.00  0.00     0.000 HD 
ENDBRANCH  15  17
ENDBRANCH  14  15
ENDBRANCH  13  14
ENDBRANCH  12  13
ENDBRANCH   3  12
BRANCH   7  21
HETATM   21  C   UNL     1      -8.539  19.087  67.016  1.00  0.00    -0.293 C  
HETATM   22  O   UNL     1      -9.556  19.936  66.492  1.00  0.00    -0.369 OA 
HETATM   23  C   UNL     1      -7.310  19.153  66.119  1.00  0.00    -0.291 C  
HETATM   24  H   UNL     1      -9.204  20.818  66.459  1.00  0.00     0.000 HD 
ENDBRANCH   7  21
TORSDOF 6
ENDMDL
MODEL      139
REMARK 921   NORMALIZED FREE ENERGY PREDICTED BY IDOCK:   -3.67 KCAL/MOL
REMARK 922        TOTAL FREE ENERGY PREDICTED BY IDOCK:   -6.17 KCAL/MOL
REMARK 923 INTER-LIGAND FREE ENERGY PREDICTED BY IDOCK:   -5.45 KCAL/MOL
REMARK 924 INTRA-LIGAND FREE ENERGY PREDICTED BY IDOCK:   -0.72 KCAL/MOL
REMARK 927      BINDING AFFINITY PREDICTED BY RF-SCORE:    0.00 PKD
ROOT
HETATM    1  C   UNL     1     -11.706   8.809  70.494  1.00  0.00    -0.094 C  
HETATM    2  C   UNL     1     -10.765   9.756  69.760  1.00  0.00    -0.283 C  
HETATM    3  C   UNL     1      -9.399   9.260  70.167  1.00  0.00    -0.228 C  
HETATM    4  C   UNL     1     -11.397   8.092  72.437  1.00  0.00    -0.382 C  
HETATM    5  C   UNL     1      -9.500   8.204  70.995  1.00  0.00    -0.156 C  
HETATM    6  N   UNL     1     -10.825   7.845  71.219  1.00  0.00    -0.232 N  
HETATM    7  C   UNL     1     -12.323   9.183  71.875  1.00  0.00    -0.455 C  
HETATM    8  C   UNL     1      -8.388   7.472  71.691  1.00  0.00    -0.107 C  
HETATM    9  O   UNL     1      -8.807   6.493  72.523  1.00  0.00    -0.133 OA 
HETATM   10  O   UNL     1      -7.199   7.662  71.496  1.00  0.00    -0.060 OA 
HETATM   11  O   UNL     1     -11.107   7.617  73.508  1.00  0.00    -0.315 OA 
ENDROOT
BRANCH   3  12
HETATM   12  S   UNL     1      -8.039  10.199  69.695  1.00  0.00    -0.144 SA 
BRANCH  12  13
HETATM   13  C   UNL     1      -7.467   9.475  68.129  1.00  0.00    -0.079 C  
BRANCH  13  14
HETATM   14  C   UNL     1      -8.523   9.355  67.030  1.00  0.00    -0.127 C  
BRANCH  14  15
HETATM   15  N   UNL     1      -8.676   7.937  66.653  1.00  0.00    -0.135 NA 
HETATM   16  H   UNL     1      -9.303   7.624  65.912  1.00  0.00     0.000 HD 
BRANCH  15  17
HETATM   17  C   UNL     1      -7.950   7.134  67.341  1.00  0.00    -0.112 C  
HETATM   18  H1  UNL     1      -7.862   5.386  68.484  1.00  0.00     0.000 HD 
HETATM   19  N   UNL     1      -8.439   6.024  67.937  1.00  0.00    -0.115 NA 
HETATM   20  H2  UNL     1      -9.432   5.816  67.835  1.00  0.00     0.000 HD 
ENDBRANCH  15  17
ENDBRANCH  14  15
ENDBRANCH  13  14
ENDBRANCH  12  13
ENDBRANCH   3  12
BRANCH   7  21
HETATM   21  C   UNL     1     -13.812   8.939  72.036  1.00  0.00    -0.456 C  
HETATM   22  O   UNL     1     -14.103   8.966  73.431  1.00  0.00    -1.256 OA 
HETATM   23  C   UNL     1     -14.211   7.587  71.460  1.00  0.00    -0.580 C  
HETATM   24  H   UNL     1     -15.035   8.814  73.531  1.00  0.00     0.000 HD 
ENDBRANCH   7  21
TORSDOF 6
ENDMDL
MODEL      140
REMARK 921   NORMALIZED FREE ENERGY PREDICTED BY IDOCK:   -3.65 KCAL/MOL
REMARK 922        TOTAL FREE ENERGY PREDICTED BY IDOCK:   -6.15 KCAL/MOL
REMARK 923 INTER-LIGAND FREE ENERGY PREDICTED BY IDOCK:   -5.64 KCAL/MOL
REMARK 924 INTRA-LIGAND FREE ENERGY PREDICTED BY IDOCK:   -0.51 KCAL/MOL
REMARK 927      BINDING AFFINITY PREDICTED BY RF-SCORE:    0.00 PKD
ROOT
HETATM    1  C   UNL     1     -10.744  12.922  68.311  1.00  0.00    -0.244 C  
HETATM    2  C   UNL     1     -11.139  11.780  67.383  1.00  0.00    -0.338 C  
HETATM    3  C   UNL     1      -9.862  10.988  67.257  1.00  0.00    -0.178 C  
HETATM    4  C   UNL     1      -8.904  13.920  68.256  1.00  0.00    -0.185 C  
HETATM    5  C   UNL     1      -8.876  11.550  67.980  1.00  0.00    -0.158 C  
HETATM    6  N   UNL     1      -9.313  12.679  68.664  1.00  0.00    -0.054 N  
HETATM    7  C   UNL     1     -10.305  14.309  67.754  1.00  0.00    -0.238 C  
HETATM    8  C   UNL     1      -7.437  11.126  68.058  1.00  0.00    -0.094 C  
HETATM    9  O   UNL     1      -6.663  11.935  68.816  1.00  0.00    -0.075 OA 
HETATM   10  O   UNL     1      -6.981  10.110  67.561  1.00  0.00    -0.083 OA 
HETATM   11  O   UNL     1      -7.787  14.375  68.258  1.00  0.00    -0.121 OA 
ENDROOT
BRANCH   3  12
HETATM   12  S   UNL     1      -9.834   9.700  66.118  1.00  0.00    -0.268 SA 
BRANCH  12  13
HETATM   13  C   UNL     1      -8.783  10.280  64.753  1.00  0.00    -0.188 C  
BRANCH  13  14
HETATM   14  C   UNL     1      -9.517  10.646  63.463  1.00  0.00    -0.308 C  
BRANCH  14  15
HETATM   15  N   UNL     1      -9.606  12.114  63.352  1.00  0.00    -0.671 NA 
HETATM   16  H   UNL     1      -8.877  12.685  62.924  1.00  0.00     0.000 HD 
BRANCH  15  17
HETATM   17  C   UNL     1     -10.684  12.609  63.842  1.00  0.00    -0.431 C  
HETATM   18  H1  UNL     1     -12.636  13.268  63.485  1.00  0.00     0.000 HD 
HETATM   19  N   UNL     1     -11.780  12.875  63.096  1.00  0.00    -0.844 NA 
HETATM   20  H2  UNL     1     -11.747  12.674  62.097  1.00  0.00     0.000 HD 
ENDBRANCH  15  17
ENDBRANCH  14  15
ENDBRANCH  13  14
ENDBRANCH  12  13
ENDBRANCH   3  12
BRANCH   7  21
HETATM   21  C   UNL     1     -10.930  15.527  68.408  1.00  0.00    -0.297 C  
HETATM   22  O   UNL     1     -12.343  15.339  68.402  1.00  0.00    -0.541 OA 
HETATM   23  C   UNL     1     -10.583  16.798  67.646  1.00  0.00    -0.325 C  
HETATM   24  H   UNL     1     -12.734  16.102  68.812  1.00  0.00     0.000 HD 
ENDBRANCH   7  21
TORSDOF 6
ENDMDL
MODEL      141
REMARK 921   NORMALIZED FREE ENERGY PREDICTED BY IDOCK:   -3.65 KCAL/MOL
REMARK 922        TOTAL FREE ENERGY PREDICTED BY IDOCK:   -6.14 KCAL/MOL
REMARK 923 INTER-LIGAND FREE ENERGY PREDICTED BY IDOCK:   -5.11 KCAL/MOL
REMARK 924 INTRA-LIGAND FREE ENERGY PREDICTED BY IDOCK:   -1.03 KCAL/MOL
REMARK 927      BINDING AFFINITY PREDICTED BY RF-SCORE:    0.00 PKD
ROOT
HETATM    1  C   UNL     1     -10.544   6.616  67.948  1.00  0.00    -0.247 C  
HETATM    2  C   UNL     1     -10.548   6.951  69.434  1.00  0.00    -0.254 C  
HETATM    3  C   UNL     1     -10.510   8.459  69.441  1.00  0.00    -0.217 C  
HETATM    4  C   UNL     1      -9.427   7.634  66.499  1.00  0.00    -0.190 C  
HETATM    5  C   UNL     1     -10.490   8.944  68.185  1.00  0.00    -0.202 C  
HETATM    6  N   UNL     1     -10.541   7.929  67.236  1.00  0.00    -0.310 N  
HETATM    7  C   UNL     1      -9.224   6.277  67.193  1.00  0.00    -0.125 C  
HETATM    8  C   UNL     1     -10.367  10.378  67.756  1.00  0.00    -0.206 C  
HETATM    9  O   UNL     1     -10.301  10.550  66.417  1.00  0.00    -0.232 OA 
HETATM   10  O   UNL     1     -10.396  11.337  68.509  1.00  0.00    -0.187 OA 
HETATM   11  O   UNL     1      -8.859   8.331  65.695  1.00  0.00    -0.165 OA 
ENDROOT
BRANCH   3  12
HETATM   12  S   UNL     1     -10.306   9.243  70.958  1.00  0.00    -0.323 SA 
BRANCH  12  13
HETATM   13  C   UNL     1     -11.846   8.940  71.874  1.00  0.00    -0.370 C  
BRANCH  13  14
HETATM   14  C   UNL     1     -12.989   9.912  71.586  1.00  0.00    -0.434 C  
BRANCH  14  15
HETATM   15  N   UNL     1     -12.507  10.982  70.692  1.00  0.00    -0.361 NA 
HETATM   16  H   UNL     1     -12.112  10.800  69.770  1.00  0.00     0.000 HD 
BRANCH  15  17
HETATM   17  C   UNL     1     -12.630  12.163  71.180  1.00  0.00    -0.260 C  
HETATM   18  H1  UNL     1     -12.056  14.171  71.088  1.00  0.00     0.000 HD 
HETATM   19  N   UNL     1     -11.958  13.233  70.700  1.00  0.00    -0.532 NA 
HETATM   20  H2  UNL     1     -11.324  13.095  69.914  1.00  0.00     0.000 HD 
ENDBRANCH  15  17
ENDBRANCH  14  15
ENDBRANCH  13  14
ENDBRANCH  12  13
ENDBRANCH   3  12
BRANCH   7  21
HETATM   21  C   UNL     1      -9.257   5.057  66.290  1.00  0.00    -0.144 C  
HETATM   22  O   UNL     1      -8.373   5.305  65.200  1.00  0.00    -0.131 OA 
HETATM   23  C   UNL     1     -10.662   4.808  65.759  1.00  0.00    -0.220 C  
HETATM   24  H   UNL     1      -8.394   4.542  64.636  1.00  0.00     0.000 HD 
ENDBRANCH   7  21
TORSDOF 6
ENDMDL
MODEL      142
REMARK 921   NORMALIZED FREE ENERGY PREDICTED BY IDOCK:   -3.65 KCAL/MOL
REMARK 922        TOTAL FREE ENERGY PREDICTED BY IDOCK:   -6.14 KCAL/MOL
REMARK 923 INTER-LIGAND FREE ENERGY PREDICTED BY IDOCK:   -5.60 KCAL/MOL
REMARK 924 INTRA-LIGAND FREE ENERGY PREDICTED BY IDOCK:   -0.54 KCAL/MOL
REMARK 927      BINDING AFFINITY PREDICTED BY RF-SCORE:    0.00 PKD
ROOT
HETATM    1  C   UNL     1     -10.856  11.501  65.205  1.00  0.00    -0.259 C  
HETATM    2  C   UNL     1     -10.016  10.364  64.638  1.00  0.00    -0.408 C  
HETATM    3  C   UNL     1      -8.806  10.354  65.539  1.00  0.00    -0.176 C  
HETATM    4  C   UNL     1     -10.084  13.308  65.927  1.00  0.00    -0.291 C  
HETATM    5  C   UNL     1      -8.901  11.311  66.480  1.00  0.00    -0.179 C  
HETATM    6  N   UNL     1     -10.095  12.018  66.383  1.00  0.00    -0.214 N  
HETATM    7  C   UNL     1     -10.787  12.940  64.611  1.00  0.00    -0.365 C  
HETATM    8  C   UNL     1      -7.879  11.689  67.513  1.00  0.00    -0.137 C  
HETATM    9  O   UNL     1      -8.232  12.746  68.279  1.00  0.00    -0.156 OA 
HETATM   10  O   UNL     1      -6.844  11.080  67.726  1.00  0.00    -0.067 OA 
HETATM   11  O   UNL     1      -9.575  14.275  66.440  1.00  0.00    -0.282 OA 
ENDROOT
BRANCH   3  12
HETATM   12  S   UNL     1      -7.502   9.321  65.107  1.00  0.00    -0.108 SA 
BRANCH  12  13
HETATM   13  C   UNL     1      -7.688   7.841  66.147  1.00  0.00    -0.089 C  
BRANCH  13  14
HETATM   14  C   UNL     1      -8.285   6.617  65.454  1.00  0.00    -0.138 C  
BRANCH  14  15
HETATM   15  N   UNL     1      -9.686   6.447  65.884  1.00  0.00    -0.382 NA 
HETATM   16  H   UNL     1     -10.361   5.883  65.369  1.00  0.00     0.000 HD 
BRANCH  15  17
HETATM   17  C   UNL     1      -9.978   7.073  66.965  1.00  0.00    -0.210 C  
HETATM   18  H1  UNL     1     -11.232   7.210  68.633  1.00  0.00     0.000 HD 
HETATM   19  N   UNL     1     -10.999   6.712  67.774  1.00  0.00    -0.449 NA 
HETATM   20  H2  UNL     1     -11.564   5.905  67.512  1.00  0.00     0.000 HD 
ENDBRANCH  15  17
ENDBRANCH  14  15
ENDBRANCH  13  14
ENDBRANCH  12  13
ENDBRANCH   3  12
BRANCH   7  21
HETATM   21  C   UNL     1     -12.116  13.627  64.353  1.00  0.00    -0.427 C  
HETATM   22  O   UNL     1     -11.837  14.885  63.744  1.00  0.00    -0.799 OA 
HETATM   23  C   UNL     1     -12.879  13.848  65.651  1.00  0.00    -0.467 C  
HETATM   24  H   UNL     1     -12.669  15.314  63.582  1.00  0.00     0.000 HD 
ENDBRANCH   7  21
TORSDOF 6
ENDMDL
MODEL      143
REMARK 921   NORMALIZED FREE ENERGY PREDICTED BY IDOCK:   -3.64 KCAL/MOL
REMARK 922        TOTAL FREE ENERGY PREDICTED BY IDOCK:   -6.13 KCAL/MOL
REMARK 923 INTER-LIGAND FREE ENERGY PREDICTED BY IDOCK:   -5.22 KCAL/MOL
REMARK 924 INTRA-LIGAND FREE ENERGY PREDICTED BY IDOCK:   -0.91 KCAL/MOL
REMARK 927      BINDING AFFINITY PREDICTED BY RF-SCORE:    0.00 PKD
ROOT
HETATM    1  C   UNL     1      -8.442  14.859  67.458  1.00  0.00    -0.185 C  
HETATM    2  C   UNL     1      -9.237  14.594  66.185  1.00  0.00    -0.210 C  
HETATM    3  C   UNL     1      -9.554  13.122  66.283  1.00  0.00    -0.234 C  
HETATM    4  C   UNL     1      -7.033  13.546  68.278  1.00  0.00    -0.108 C  
HETATM    5  C   UNL     1      -9.043  12.596  67.412  1.00  0.00    -0.191 C  
HETATM    6  N   UNL     1      -8.398  13.555  68.186  1.00  0.00    -0.160 N  
HETATM    7  C   UNL     1      -6.884  14.841  67.463  1.00  0.00    -0.181 C  
HETATM    8  C   UNL     1      -9.061  11.159  67.847  1.00  0.00    -0.150 C  
HETATM    9  O   UNL     1      -8.400  10.922  69.002  1.00  0.00    -0.152 OA 
HETATM   10  O   UNL     1      -9.667  10.266  67.278  1.00  0.00    -0.159 OA 
HETATM   11  O   UNL     1      -6.324  12.700  68.768  1.00  0.00    -0.069 OA 
ENDROOT
BRANCH   3  12
HETATM   12  S   UNL     1     -10.289  12.374  64.921  1.00  0.00    -0.292 SA 
BRANCH  12  13
HETATM   13  C   UNL     1     -12.064  12.301  65.305  1.00  0.00    -0.297 C  
BRANCH  13  14
HETATM   14  C   UNL     1     -12.807  13.635  65.259  1.00  0.00    -0.369 C  
BRANCH  14  15
HETATM   15  N   UNL     1     -12.442  14.355  64.024  1.00  0.00    -0.920 NA 
HETATM   16  H   UNL     1     -12.107  13.884  63.184  1.00  0.00     0.000 HD 
BRANCH  15  17
HETATM   17  C   UNL     1     -12.584  15.628  64.103  1.00  0.00     0.466 C  
HETATM   18  H1  UNL     1     -11.671  17.507  64.011  1.00  0.00     0.000 HD 
HETATM   19  N   UNL     1     -11.559  16.496  63.948  1.00  0.00    -1.578 NA 
HETATM   20  H2  UNL     1     -10.630  16.121  63.760  1.00  0.00     0.000 HD 
ENDBRANCH  15  17
ENDBRANCH  14  15
ENDBRANCH  13  14
ENDBRANCH  12  13
ENDBRANCH   3  12
BRANCH   7  21
HETATM   21  C   UNL     1      -6.200  15.996  68.171  1.00  0.00    -0.120 C  
HETATM   22  O   UNL     1      -5.586  15.476  69.347  1.00  0.00    -0.105 OA 
HETATM   23  C   UNL     1      -7.202  17.075  68.555  1.00  0.00    -0.209 C  
HETATM   24  H   UNL     1      -5.158  16.198  69.790  1.00  0.00     0.000 HD 
ENDBRANCH   7  21
TORSDOF 6
ENDMDL
MODEL      144
REMARK 921   NORMALIZED FREE ENERGY PREDICTED BY IDOCK:   -3.64 KCAL/MOL
REMARK 922        TOTAL FREE ENERGY PREDICTED BY IDOCK:   -6.13 KCAL/MOL
REMARK 923 INTER-LIGAND FREE ENERGY PREDICTED BY IDOCK:   -5.59 KCAL/MOL
REMARK 924 INTRA-LIGAND FREE ENERGY PREDICTED BY IDOCK:   -0.53 KCAL/MOL
REMARK 927      BINDING AFFINITY PREDICTED BY RF-SCORE:    0.00 PKD
ROOT
HETATM    1  C   UNL     1     -10.192  11.245  65.757  1.00  0.00    -0.251 C  
HETATM    2  C   UNL     1     -10.363  10.091  66.737  1.00  0.00    -0.283 C  
HETATM    3  C   UNL     1      -9.467   9.023  66.162  1.00  0.00    -0.253 C  
HETATM    4  C   UNL     1     -10.032  11.032  63.681  1.00  0.00    -0.361 C  
HETATM    5  C   UNL     1      -8.864   9.456  65.039  1.00  0.00    -0.196 C  
HETATM    6  N   UNL     1      -9.206  10.770  64.741  1.00  0.00    -0.206 N  
HETATM    7  C   UNL     1     -11.194  11.473  64.586  1.00  0.00    -0.276 C  
HETATM    8  C   UNL     1      -7.966   8.679  64.120  1.00  0.00    -0.149 C  
HETATM    9  O   UNL     1      -7.568   9.366  63.026  1.00  0.00    -0.104 OA 
HETATM   10  O   UNL     1      -7.548   7.555  64.339  1.00  0.00    -0.096 OA 
HETATM   11  O   UNL     1      -9.823  10.839  62.508  1.00  0.00    -0.200 OA 
ENDROOT
BRANCH   3  12
HETATM   12  S   UNL     1      -9.526   7.463  66.882  1.00  0.00    -0.171 SA 
BRANCH  12  13
HETATM   13  C   UNL     1     -10.405   7.687  68.458  1.00  0.00    -0.198 C  
BRANCH  13  14
HETATM   14  C   UNL     1     -11.170   6.466  68.968  1.00  0.00    -0.331 C  
BRANCH  14  15
HETATM   15  N   UNL     1     -10.588   6.025  70.250  1.00  0.00    -0.249 NA 
HETATM   16  H   UNL     1      -9.867   5.307  70.316  1.00  0.00     0.000 HD 
BRANCH  15  17
HETATM   17  C   UNL     1     -11.071   6.627  71.275  1.00  0.00    -0.267 C  
HETATM   18  H1  UNL     1     -12.779   7.318  72.264  1.00  0.00     0.000 HD 
HETATM   19  N   UNL     1     -12.395   6.839  71.450  1.00  0.00    -0.364 NA 
HETATM   20  H2  UNL     1     -13.038   6.505  70.734  1.00  0.00     0.000 HD 
ENDBRANCH  15  17
ENDBRANCH  14  15
ENDBRANCH  13  14
ENDBRANCH  12  13
ENDBRANCH   3  12
BRANCH   7  21
HETATM   21  C   UNL     1     -11.687  12.895  64.387  1.00  0.00    -0.372 C  
HETATM   22  O   UNL     1     -11.953  13.067  62.998  1.00  0.00    -0.827 OA 
HETATM   23  C   UNL     1     -10.640  13.905  64.833  1.00  0.00    -0.436 C  
HETATM   24  H   UNL     1     -12.262  13.956  62.874  1.00  0.00     0.000 HD 
ENDBRANCH   7  21
TORSDOF 6
ENDMDL
MODEL      145
REMARK 921   NORMALIZED FREE ENERGY PREDICTED BY IDOCK:   -3.61 KCAL/MOL
REMARK 922        TOTAL FREE ENERGY PREDICTED BY IDOCK:   -6.09 KCAL/MOL
REMARK 923 INTER-LIGAND FREE ENERGY PREDICTED BY IDOCK:   -5.79 KCAL/MOL
REMARK 924 INTRA-LIGAND FREE ENERGY PREDICTED BY IDOCK:   -0.29 KCAL/MOL
REMARK 927      BINDING AFFINITY PREDICTED BY RF-SCORE:    0.00 PKD
ROOT
HETATM    1  C   UNL     1     -12.120  14.459  69.472  1.00  0.00    -0.322 C  
HETATM    2  C   UNL     1     -10.869  14.410  68.605  1.00  0.00    -0.260 C  
HETATM    3  C   UNL     1     -10.583  12.933  68.504  1.00  0.00    -0.253 C  
HETATM    4  C   UNL     1     -12.476  13.217  71.121  1.00  0.00    -0.308 C  
HETATM    5  C   UNL     1     -11.498  12.220  69.186  1.00  0.00    -0.296 C  
HETATM    6  N   UNL     1     -12.466  13.035  69.764  1.00  0.00    -0.041 N  
HETATM    7  C   UNL     1     -12.035  14.686  71.012  1.00  0.00    -0.399 C  
HETATM    8  C   UNL     1     -11.528  10.735  69.408  1.00  0.00    -0.295 C  
HETATM    9  O   UNL     1     -12.538  10.314  70.201  1.00  0.00    -0.206 OA 
HETATM   10  O   UNL     1     -10.774   9.935  68.879  1.00  0.00    -0.210 OA 
HETATM   11  O   UNL     1     -12.680  12.396  71.982  1.00  0.00    -0.173 OA 
ENDROOT
BRANCH   3  12
HETATM   12  S   UNL     1      -9.112  12.457  67.752  1.00  0.00    -0.202 SA 
BRANCH  12  13
HETATM   13  C   UNL     1      -9.597  11.369  66.378  1.00  0.00    -0.205 C  
BRANCH  13  14
HETATM   14  C   UNL     1     -10.976  11.638  65.777  1.00  0.00    -0.274 C  
BRANCH  14  15
HETATM   15  N   UNL     1     -10.851  12.628  64.691  1.00  0.00    -0.302 NA 
HETATM   16  H   UNL     1     -10.408  13.538  64.816  1.00  0.00     0.000 HD 
BRANCH  15  17
HETATM   17  C   UNL     1     -11.351  12.242  63.574  1.00  0.00    -0.470 C  
HETATM   18  H1  UNL     1     -12.966  12.326  62.249  1.00  0.00     0.000 HD 
HETATM   19  N   UNL     1     -12.568  12.633  63.136  1.00  0.00    -0.731 NA 
HETATM   20  H2  UNL     1     -13.114  13.266  63.720  1.00  0.00     0.000 HD 
ENDBRANCH  15  17
ENDBRANCH  14  15
ENDBRANCH  13  14
ENDBRANCH  12  13
ENDBRANCH   3  12
BRANCH   7  21
HETATM   21  C   UNL     1     -12.990  15.711  71.596  1.00  0.00    -0.476 C  
HETATM   22  O   UNL     1     -12.985  15.545  73.011  1.00  0.00    -0.404 OA 
HETATM   23  C   UNL     1     -14.402  15.509  71.065  1.00  0.00     0.033 C  
HETATM   24  H   UNL     1     -13.582  16.187  73.376  1.00  0.00     0.000 HD 
ENDBRANCH   7  21
TORSDOF 6
ENDMDL
MODEL      146
REMARK 921   NORMALIZED FREE ENERGY PREDICTED BY IDOCK:   -3.60 KCAL/MOL
REMARK 922        TOTAL FREE ENERGY PREDICTED BY IDOCK:   -6.07 KCAL/MOL
REMARK 923 INTER-LIGAND FREE ENERGY PREDICTED BY IDOCK:   -5.61 KCAL/MOL
REMARK 924 INTRA-LIGAND FREE ENERGY PREDICTED BY IDOCK:   -0.46 KCAL/MOL
REMARK 927      BINDING AFFINITY PREDICTED BY RF-SCORE:    0.00 PKD
ROOT
HETATM    1  C   UNL     1     -10.338  13.486  64.799  1.00  0.00    -0.385 C  
HETATM    2  C   UNL     1     -10.460  14.990  65.012  1.00  0.00    -0.415 C  
HETATM    3  C   UNL     1      -9.832  15.192  66.368  1.00  0.00    -0.280 C  
HETATM    4  C   UNL     1     -10.608  12.045  66.294  1.00  0.00    -0.252 C  
HETATM    5  C   UNL     1      -9.407  14.022  66.879  1.00  0.00    -0.257 C  
HETATM    6  N   UNL     1      -9.633  12.963  66.007  1.00  0.00    -0.212 N  
HETATM    7  C   UNL     1     -11.509  12.518  65.142  1.00  0.00    -0.369 C  
HETATM    8  C   UNL     1      -8.806  13.774  68.233  1.00  0.00    -0.185 C  
HETATM    9  O   UNL     1      -8.543  12.474  68.491  1.00  0.00    -0.146 OA 
HETATM   10  O   UNL     1      -8.497  14.645  69.029  1.00  0.00    -0.157 OA 
HETATM   11  O   UNL     1     -10.654  11.270  67.218  1.00  0.00    -0.210 OA 
ENDROOT
BRANCH   3  12
HETATM   12  S   UNL     1      -9.946  16.757  67.072  1.00  0.00    -0.277 SA 
BRANCH  12  13
HETATM   13  C   UNL     1     -11.335  16.665  68.241  1.00  0.00    -0.121 C  
BRANCH  13  14
HETATM   14  C   UNL     1     -12.009  15.299  68.361  1.00  0.00    -0.163 C  
BRANCH  14  15
HETATM   15  N   UNL     1     -12.422  15.078  69.759  1.00  0.00    -0.556 NA 
HETATM   16  H   UNL     1     -13.236  14.520  70.017  1.00  0.00     0.000 HD 
BRANCH  15  17
HETATM   17  C   UNL     1     -11.665  15.652  70.622  1.00  0.00    -0.369 C  
HETATM   18  H1  UNL     1     -10.612  15.488  72.421  1.00  0.00     0.000 HD 
HETATM   19  N   UNL     1     -11.213  15.032  71.735  1.00  0.00    -0.561 NA 
HETATM   20  H2  UNL     1     -11.486  14.064  71.896  1.00  0.00     0.000 HD 
ENDBRANCH  15  17
ENDBRANCH  14  15
ENDBRANCH  13  14
ENDBRANCH  12  13
ENDBRANCH   3  12
BRANCH   7  21
HETATM   21  C   UNL     1     -11.850  11.474  64.093  1.00  0.00    -0.043 C  
HETATM   22  O   UNL     1     -10.676  11.244  63.320  1.00  0.00    -0.631 OA 
HETATM   23  C   UNL     1     -12.971  11.957  63.184  1.00  0.00    -0.023 C  
HETATM   24  H   UNL     1     -10.889  10.591  62.664  1.00  0.00     0.000 HD 
ENDBRANCH   7  21
TORSDOF 6
ENDMDL
MODEL      147
REMARK 921   NORMALIZED FREE ENERGY PREDICTED BY IDOCK:   -3.58 KCAL/MOL
REMARK 922        TOTAL FREE ENERGY PREDICTED BY IDOCK:   -6.05 KCAL/MOL
REMARK 923 INTER-LIGAND FREE ENERGY PREDICTED BY IDOCK:   -5.58 KCAL/MOL
REMARK 924 INTRA-LIGAND FREE ENERGY PREDICTED BY IDOCK:   -0.47 KCAL/MOL
REMARK 927      BINDING AFFINITY PREDICTED BY RF-SCORE:    0.00 PKD
ROOT
HETATM    1  C   UNL     1     -10.914  12.487  65.869  1.00  0.00    -0.279 C  
HETATM    2  C   UNL     1     -11.689  12.389  67.177  1.00  0.00    -0.415 C  
HETATM    3  C   UNL     1     -10.640  11.932  68.159  1.00  0.00    -0.208 C  
HETATM    4  C   UNL     1      -9.435  11.137  65.256  1.00  0.00    -0.226 C  
HETATM    5  C   UNL     1      -9.447  11.783  67.553  1.00  0.00    -0.174 C  
HETATM    6  N   UNL     1      -9.505  12.121  66.205  1.00  0.00    -0.232 N  
HETATM    7  C   UNL     1     -10.904  11.317  64.839  1.00  0.00    -0.299 C  
HETATM    8  C   UNL     1      -8.170  11.267  68.151  1.00  0.00    -0.140 C  
HETATM    9  O   UNL     1      -7.150  11.162  67.270  1.00  0.00    -0.095 OA 
HETATM   10  O   UNL     1      -8.002  11.023  69.334  1.00  0.00    -0.081 OA 
HETATM   11  O   UNL     1      -8.511  10.400  65.013  1.00  0.00    -0.169 OA 
ENDROOT
BRANCH   3  12
HETATM   12  S   UNL     1     -11.163  11.509  69.742  1.00  0.00    -0.095 SA 
BRANCH  12  13
HETATM   13  C   UNL     1     -10.995   9.702  69.843  1.00  0.00    -0.252 C  
BRANCH  13  14
HETATM   14  C   UNL     1     -10.829   9.131  71.251  1.00  0.00    -0.332 C  
BRANCH  14  15
HETATM   15  N   UNL     1     -12.092   9.295  71.997  1.00  0.00    -0.359 NA 
HETATM   16  H   UNL     1     -12.373  10.176  72.427  1.00  0.00     0.000 HD 
BRANCH  15  17
HETATM   17  C   UNL     1     -12.803   8.229  72.056  1.00  0.00    -0.340 C  
HETATM   18  H1  UNL     1     -13.385   6.450  71.123  1.00  0.00     0.000 HD 
HETATM   19  N   UNL     1     -12.819   7.297  71.077  1.00  0.00    -0.581 NA 
HETATM   20  H2  UNL     1     -12.239   7.450  70.252  1.00  0.00     0.000 HD 
ENDBRANCH  15  17
ENDBRANCH  14  15
ENDBRANCH  13  14
ENDBRANCH  12  13
ENDBRANCH   3  12
BRANCH   7  21
HETATM   21  C   UNL     1     -11.141  11.695  63.388  1.00  0.00    -0.337 C  
HETATM   22  O   UNL     1      -9.866  11.844  62.770  1.00  0.00    -0.472 OA 
HETATM   23  C   UNL     1     -11.914  13.002  63.281  1.00  0.00    -0.493 C  
HETATM   24  H   UNL     1     -10.014  12.080  61.862  1.00  0.00     0.000 HD 
ENDBRANCH   7  21
TORSDOF 6
ENDMDL
MODEL      148
REMARK 921   NORMALIZED FREE ENERGY PREDICTED BY IDOCK:   -3.58 KCAL/MOL
REMARK 922        TOTAL FREE ENERGY PREDICTED BY IDOCK:   -6.04 KCAL/MOL
REMARK 923 INTER-LIGAND FREE ENERGY PREDICTED BY IDOCK:   -5.83 KCAL/MOL
REMARK 924 INTRA-LIGAND FREE ENERGY PREDICTED BY IDOCK:   -0.21 KCAL/MOL
REMARK 927      BINDING AFFINITY PREDICTED BY RF-SCORE:    0.00 PKD
ROOT
HETATM    1  C   UNL     1     -10.671   6.233  66.998  1.00  0.00    -0.362 C  
HETATM    2  C   UNL     1     -11.157   6.250  68.441  1.00  0.00    -0.371 C  
HETATM    3  C   UNL     1     -10.069   7.012  69.157  1.00  0.00    -0.180 C  
HETATM    4  C   UNL     1      -8.674   5.985  66.416  1.00  0.00    -0.133 C  
HETATM    5  C   UNL     1      -9.103   7.387  68.299  1.00  0.00    -0.128 C  
HETATM    6  N   UNL     1      -9.389   7.000  66.994  1.00  0.00    -0.140 N  
HETATM    7  C   UNL     1      -9.874   5.024  66.422  1.00  0.00    -0.218 C  
HETATM    8  C   UNL     1      -7.812   8.085  68.617  1.00  0.00    -0.118 C  
HETATM    9  O   UNL     1      -7.004   8.266  67.548  1.00  0.00    -0.072 OA 
HETATM   10  O   UNL     1      -7.511   8.532  69.711  1.00  0.00    -0.068 OA 
HETATM   11  O   UNL     1      -7.499   5.961  66.146  1.00  0.00    -0.082 OA 
ENDROOT
BRANCH   3  12
HETATM   12  S   UNL     1     -10.147   7.085  70.873  1.00  0.00    -0.192 SA 
BRANCH  12  13
HETATM   13  C   UNL     1     -10.091   8.855  71.287  1.00  0.00    -0.295 C  
BRANCH  13  14
HETATM   14  C   UNL     1     -11.356   9.650  70.966  1.00  0.00    -0.374 C  
BRANCH  14  15
HETATM   15  N   UNL     1     -12.541   8.812  71.233  1.00  0.00    -0.426 NA 
HETATM   16  H   UNL     1     -12.595   7.828  70.974  1.00  0.00     0.000 HD 
BRANCH  15  17
HETATM   17  C   UNL     1     -13.496   9.435  71.821  1.00  0.00    -0.412 C  
HETATM   18  H1  UNL     1     -14.722   9.582  73.508  1.00  0.00     0.000 HD 
HETATM   19  N   UNL     1     -13.963   9.088  73.041  1.00  0.00    -1.141 NA 
HETATM   20  H2  UNL     1     -13.535   8.294  73.517  1.00  0.00     0.000 HD 
ENDBRANCH  15  17
ENDBRANCH  14  15
ENDBRANCH  13  14
ENDBRANCH  12  13
ENDBRANCH   3  12
BRANCH   7  21
HETATM   21  C   UNL     1     -10.319   4.509  65.065  1.00  0.00    -0.064 C  
HETATM   22  O   UNL     1     -11.740   4.399  65.093  1.00  0.00    -0.951 OA 
HETATM   23  C   UNL     1      -9.709   3.146  64.769  1.00  0.00    -0.105 C  
HETATM   24  H   UNL     1     -12.018   4.077  64.243  1.00  0.00     0.000 HD 
ENDBRANCH   7  21
TORSDOF 6
ENDMDL
MODEL      149
REMARK 921   NORMALIZED FREE ENERGY PREDICTED BY IDOCK:   -3.56 KCAL/MOL
REMARK 922        TOTAL FREE ENERGY PREDICTED BY IDOCK:   -6.02 KCAL/MOL
REMARK 923 INTER-LIGAND FREE ENERGY PREDICTED BY IDOCK:   -4.90 KCAL/MOL
REMARK 924 INTRA-LIGAND FREE ENERGY PREDICTED BY IDOCK:   -1.12 KCAL/MOL
REMARK 927      BINDING AFFINITY PREDICTED BY RF-SCORE:    0.00 PKD
ROOT
HETATM    1  C   UNL     1     -10.484   6.746  70.489  1.00  0.00    -0.209 C  
HETATM    2  C   UNL     1     -10.587   5.692  69.394  1.00  0.00    -0.374 C  
HETATM    3  C   UNL     1     -10.475   6.505  68.128  1.00  0.00    -0.217 C  
HETATM    4  C   UNL     1     -11.353   8.649  70.397  1.00  0.00    -0.187 C  
HETATM    5  C   UNL     1     -10.328   7.813  68.411  1.00  0.00    -0.196 C  
HETATM    6  N   UNL     1     -10.289   8.047  69.781  1.00  0.00    -0.215 N  
HETATM    7  C   UNL     1     -11.755   7.366  71.144  1.00  0.00    -0.322 C  
HETATM    8  C   UNL     1     -10.266   8.961  67.444  1.00  0.00    -0.249 C  
HETATM    9  O   UNL     1     -10.189  10.175  68.032  1.00  0.00    -0.158 OA 
HETATM   10  O   UNL     1     -10.213   8.849  66.231  1.00  0.00    -0.284 OA 
HETATM   11  O   UNL     1     -11.771   9.770  70.236  1.00  0.00    -0.251 OA 
ENDROOT
BRANCH   3  12
HETATM   12  S   UNL     1     -10.742   5.695  66.636  1.00  0.00    -0.184 SA 
BRANCH  12  13
HETATM   13  C   UNL     1      -9.279   4.646  66.382  1.00  0.00    -0.133 C  
BRANCH  13  14
HETATM   14  C   UNL     1      -8.400   5.017  65.188  1.00  0.00    -0.138 C  
BRANCH  14  15
HETATM   15  N   UNL     1      -8.699   6.399  64.770  1.00  0.00    -0.344 NA 
HETATM   16  H   UNL     1      -9.646   6.734  64.592  1.00  0.00     0.000 HD 
BRANCH  15  17
HETATM   17  C   UNL     1      -7.660   7.143  64.651  1.00  0.00    -0.106 C  
HETATM   18  H1  UNL     1      -6.587   8.790  65.364  1.00  0.00     0.000 HD 
HETATM   19  N   UNL     1      -7.412   8.198  65.459  1.00  0.00    -0.079 NA 
HETATM   20  H2  UNL     1      -8.081   8.413  66.197  1.00  0.00     0.000 HD 
ENDBRANCH  15  17
ENDBRANCH  14  15
ENDBRANCH  13  14
ENDBRANCH  12  13
ENDBRANCH   3  12
BRANCH   7  21
HETATM   21  C   UNL     1     -11.758   7.453  72.659  1.00  0.00    -0.195 C  
HETATM   22  O   UNL     1     -12.540   8.588  73.022  1.00  0.00    -0.647 OA 
HETATM   23  C   UNL     1     -10.345   7.615  73.201  1.00  0.00    -0.411 C  
HETATM   24  H   UNL     1     -12.542   8.642  73.970  1.00  0.00     0.000 HD 
ENDBRANCH   7  21
TORSDOF 6
ENDMDL
MODEL      150
REMARK 921   NORMALIZED FREE ENERGY PREDICTED BY IDOCK:   -3.56 KCAL/MOL
REMARK 922        TOTAL FREE ENERGY PREDICTED BY IDOCK:   -6.02 KCAL/MOL
REMARK 923 INTER-LIGAND FREE ENERGY PREDICTED BY IDOCK:   -5.01 KCAL/MOL
REMARK 924 INTRA-LIGAND FREE ENERGY PREDICTED BY IDOCK:   -1.01 KCAL/MOL
REMARK 927      BINDING AFFINITY PREDICTED BY RF-SCORE:    0.00 PKD
ROOT
HETATM    1  C   UNL     1     -10.312   9.261  67.167  1.00  0.00    -0.260 C  
HETATM    2  C   UNL     1     -11.133  10.447  67.658  1.00  0.00    -0.361 C  
HETATM    3  C   UNL     1     -10.143  11.585  67.617  1.00  0.00    -0.184 C  
HETATM    4  C   UNL     1      -8.308   8.912  67.662  1.00  0.00    -0.110 C  
HETATM    5  C   UNL     1      -8.943  11.160  67.178  1.00  0.00    -0.145 C  
HETATM    6  N   UNL     1      -8.957   9.808  66.856  1.00  0.00    -0.137 N  
HETATM    7  C   UNL     1      -9.618   8.283  68.163  1.00  0.00    -0.163 C  
HETATM    8  C   UNL     1      -7.671  11.952  67.070  1.00  0.00    -0.146 C  
HETATM    9  O   UNL     1      -6.604  11.230  66.662  1.00  0.00    -0.130 OA 
HETATM   10  O   UNL     1      -7.581  13.155  67.252  1.00  0.00    -0.152 OA 
HETATM   11  O   UNL     1      -7.124   8.829  67.882  1.00  0.00    -0.077 OA 
ENDROOT
BRANCH   3  12
HETATM   12  S   UNL     1     -10.632  13.089  68.290  1.00  0.00    -0.252 SA 
BRANCH  12  13
HETATM   13  C   UNL     1     -11.348  14.031  66.909  1.00  0.00    -0.329 C  
BRANCH  13  14
HETATM   14  C   UNL     1     -10.413  15.040  66.242  1.00  0.00    -0.304 C  
BRANCH  14  15
HETATM   15  N   UNL     1     -10.144  14.614  64.855  1.00  0.00    -0.485 NA 
HETATM   16  H   UNL     1      -9.688  15.213  64.168  1.00  0.00     0.000 HD 
BRANCH  15  17
HETATM   17  C   UNL     1     -10.536  13.421  64.592  1.00  0.00    -0.415 C  
HETATM   18  H1  UNL     1     -10.095  11.582  63.699  1.00  0.00     0.000 HD 
HETATM   19  N   UNL     1      -9.783  12.530  63.909  1.00  0.00    -0.655 NA 
HETATM   20  H2  UNL     1      -8.861  12.821  63.587  1.00  0.00     0.000 HD 
ENDBRANCH  15  17
ENDBRANCH  14  15
ENDBRANCH  13  14
ENDBRANCH  12  13
ENDBRANCH   3  12
BRANCH   7  21
HETATM   21  C   UNL     1      -9.793   6.802  67.885  1.00  0.00    -0.129 C  
HETATM   22  O   UNL     1      -8.603   6.341  67.249  1.00  0.00    -0.108 OA 
HETATM   23  C   UNL     1     -10.986   6.553  66.972  1.00  0.00    -0.466 C  
HETATM   24  H   UNL     1      -8.713   5.414  67.075  1.00  0.00     0.000 HD 
ENDBRANCH   7  21
TORSDOF 6
ENDMDL
MODEL      151
REMARK 921   NORMALIZED FREE ENERGY PREDICTED BY IDOCK:   -3.55 KCAL/MOL
REMARK 922        TOTAL FREE ENERGY PREDICTED BY IDOCK:   -6.01 KCAL/MOL
REMARK 923 INTER-LIGAND FREE ENERGY PREDICTED BY IDOCK:   -5.11 KCAL/MOL
REMARK 924 INTRA-LIGAND FREE ENERGY PREDICTED BY IDOCK:   -0.89 KCAL/MOL
REMARK 927      BINDING AFFINITY PREDICTED BY RF-SCORE:    0.00 PKD
ROOT
HETATM    1  C   UNL     1     -10.414  10.954  68.467  1.00  0.00    -0.188 C  
HETATM    2  C   UNL     1     -10.718  11.637  67.140  1.00  0.00    -0.288 C  
HETATM    3  C   UNL     1     -11.270  12.975  67.566  1.00  0.00    -0.284 C  
HETATM    4  C   UNL     1     -11.615  11.085  70.178  1.00  0.00    -0.334 C  
HETATM    5  C   UNL     1     -11.292  13.079  68.908  1.00  0.00    -0.287 C  
HETATM    6  N   UNL     1     -10.774  11.945  69.525  1.00  0.00     0.046 N  
HETATM    7  C   UNL     1     -11.430   9.975  69.130  1.00  0.00    -0.090 C  
HETATM    8  C   UNL     1     -11.841  14.207  69.733  1.00  0.00    -0.322 C  
HETATM    9  O   UNL     1     -11.788  13.993  71.067  1.00  0.00    -0.283 OA 
HETATM   10  O   UNL     1     -12.240  15.269  69.286  1.00  0.00    -0.272 OA 
HETATM   11  O   UNL     1     -12.278  11.296  71.164  1.00  0.00    -0.321 OA 
ENDROOT
BRANCH   3  12
HETATM   12  S   UNL     1     -11.925  13.991  66.344  1.00  0.00    -0.455 SA 
BRANCH  12  13
HETATM   13  C   UNL     1     -10.643  15.235  66.006  1.00  0.00    -0.319 C  
BRANCH  13  14
HETATM   14  C   UNL     1      -9.412  15.179  66.911  1.00  0.00    -0.238 C  
BRANCH  14  15
HETATM   15  N   UNL     1      -9.449  16.311  67.857  1.00  0.00    -0.217 NA 
HETATM   16  H   UNL     1      -9.998  17.154  67.693  1.00  0.00     0.000 HD 
BRANCH  15  17
HETATM   17  C   UNL     1      -8.726  16.137  68.903  1.00  0.00    -0.248 C  
HETATM   18  H1  UNL     1      -6.856  15.621  69.682  1.00  0.00     0.000 HD 
HETATM   19  N   UNL     1      -7.430  15.759  68.850  1.00  0.00    -0.159 NA 
HETATM   20  H2  UNL     1      -7.006  15.604  67.936  1.00  0.00     0.000 HD 
ENDBRANCH  15  17
ENDBRANCH  14  15
ENDBRANCH  13  14
ENDBRANCH  12  13
ENDBRANCH   3  12
BRANCH   7  21
HETATM   21  C   UNL     1     -10.864   8.664  69.645  1.00  0.00    -0.157 C  
HETATM   22  O   UNL     1     -11.821   8.106  70.542  1.00  0.00    -0.470 OA 
HETATM   23  C   UNL     1      -9.548   8.885  70.377  1.00  0.00    -0.227 C  
HETATM   24  H   UNL     1     -11.467   7.286  70.863  1.00  0.00     0.000 HD 
ENDBRANCH   7  21
TORSDOF 6
ENDMDL
MODEL      152
REMARK 921   NORMALIZED FREE ENERGY PREDICTED BY IDOCK:   -3.54 KCAL/MOL
REMARK 922        TOTAL FREE ENERGY PREDICTED BY IDOCK:   -6.00 KCAL/MOL
REMARK 923 INTER-LIGAND FREE ENERGY PREDICTED BY IDOCK:   -5.42 KCAL/MOL
REMARK 924 INTRA-LIGAND FREE ENERGY PREDICTED BY IDOCK:   -0.58 KCAL/MOL
REMARK 927      BINDING AFFINITY PREDICTED BY RF-SCORE:    0.00 PKD
ROOT
HETATM    1  C   UNL     1     -11.010  12.648  68.497  1.00  0.00    -0.261 C  
HETATM    2  C   UNL     1     -11.337  11.329  67.808  1.00  0.00    -0.354 C  
HETATM    3  C   UNL     1     -10.011  10.915  67.221  1.00  0.00    -0.186 C  
HETATM    4  C   UNL     1      -9.713  14.103  67.730  1.00  0.00    -0.223 C  
HETATM    5  C   UNL     1      -9.056  11.821  67.506  1.00  0.00    -0.175 C  
HETATM    6  N   UNL     1      -9.547  12.863  68.285  1.00  0.00    -0.222 N  
HETATM    7  C   UNL     1     -11.247  14.016  67.790  1.00  0.00    -0.302 C  
HETATM    8  C   UNL     1      -7.629  11.829  67.040  1.00  0.00    -0.147 C  
HETATM    9  O   UNL     1      -6.926  12.914  67.433  1.00  0.00    -0.155 OA 
HETATM   10  O   UNL     1      -7.090  10.924  66.425  1.00  0.00    -0.127 OA 
HETATM   11  O   UNL     1      -8.867  14.848  67.300  1.00  0.00    -0.179 OA 
ENDROOT
BRANCH   3  12
HETATM   12  S   UNL     1      -9.994   9.547  66.180  1.00  0.00    -0.247 SA 
BRANCH  12  13
HETATM   13  C   UNL     1      -9.604   8.128  67.247  1.00  0.00    -0.163 C  
BRANCH  13  14
HETATM   14  C   UNL     1      -9.346   6.807  66.522  1.00  0.00    -0.161 C  
BRANCH  14  15
HETATM   15  N   UNL     1     -10.632   6.228  66.088  1.00  0.00    -0.374 NA 
HETATM   16  H   UNL     1     -11.471   6.788  65.939  1.00  0.00     0.000 HD 
BRANCH  15  17
HETATM   17  C   UNL     1     -10.598   4.957  65.915  1.00  0.00    -0.230 C  
HETATM   18  H1  UNL     1     -11.450   3.287  64.989  1.00  0.00     0.000 HD 
HETATM   19  N   UNL     1     -11.476   4.297  65.126  1.00  0.00    -0.943 NA 
HETATM   20  H2  UNL     1     -12.198   4.834  64.648  1.00  0.00     0.000 HD 
ENDBRANCH  15  17
ENDBRANCH  14  15
ENDBRANCH  13  14
ENDBRANCH  12  13
ENDBRANCH   3  12
BRANCH   7  21
HETATM   21  C   UNL     1     -11.942  15.087  68.611  1.00  0.00    -0.246 C  
HETATM   22  O   UNL     1     -11.192  16.291  68.468  1.00  0.00    -0.350 OA 
HETATM   23  C   UNL     1     -12.002  14.697  70.081  1.00  0.00    -0.372 C  
HETATM   24  H   UNL     1     -11.627  16.961  68.982  1.00  0.00     0.000 HD 
ENDBRANCH   7  21
TORSDOF 6
ENDMDL
MODEL      153
REMARK 921   NORMALIZED FREE ENERGY PREDICTED BY IDOCK:   -3.53 KCAL/MOL
REMARK 922        TOTAL FREE ENERGY PREDICTED BY IDOCK:   -5.98 KCAL/MOL
REMARK 923 INTER-LIGAND FREE ENERGY PREDICTED BY IDOCK:   -5.33 KCAL/MOL
REMARK 924 INTRA-LIGAND FREE ENERGY PREDICTED BY IDOCK:   -0.65 KCAL/MOL
REMARK 927      BINDING AFFINITY PREDICTED BY RF-SCORE:    0.00 PKD
ROOT
HETATM    1  C   UNL     1     -10.076  10.297  66.431  1.00  0.00    -0.234 C  
HETATM    2  C   UNL     1     -10.524   9.188  67.376  1.00  0.00    -0.339 C  
HETATM    3  C   UNL     1      -9.235   8.763  68.035  1.00  0.00    -0.139 C  
HETATM    4  C   UNL     1      -8.300  10.272  65.322  1.00  0.00    -0.163 C  
HETATM    5  C   UNL     1      -8.198   9.487  67.572  1.00  0.00    -0.121 C  
HETATM    6  N   UNL     1      -8.604  10.441  66.646  1.00  0.00    -0.124 N  
HETATM    7  C   UNL     1      -9.764  10.012  64.931  1.00  0.00    -0.377 C  
HETATM    8  C   UNL     1      -6.743   9.324  67.905  1.00  0.00    -0.071 C  
HETATM    9  O   UNL     1      -5.924  10.156  67.224  1.00  0.00    -0.053 OA 
HETATM   10  O   UNL     1      -6.302   8.574  68.760  1.00  0.00    -0.047 OA 
HETATM   11  O   UNL     1      -7.211  10.258  64.803  1.00  0.00    -0.139 OA 
ENDROOT
BRANCH   3  12
HETATM   12  S   UNL     1      -9.281   7.376  69.049  1.00  0.00    -0.145 SA 
BRANCH  12  13
HETATM   13  C   UNL     1     -11.013   7.216  69.578  1.00  0.00    -0.191 C  
BRANCH  13  14
HETATM   14  C   UNL     1     -11.330   7.751  70.974  1.00  0.00    -0.271 C  
BRANCH  14  15
HETATM   15  N   UNL     1     -12.698   8.302  70.987  1.00  0.00    -0.507 NA 
HETATM   16  H   UNL     1     -13.085   8.848  70.218  1.00  0.00     0.000 HD 
BRANCH  15  17
HETATM   17  C   UNL     1     -13.358   8.032  72.054  1.00  0.00    -0.244 C  
HETATM   18  H1  UNL     1     -14.728   8.694  73.488  1.00  0.00     0.000 HD 
HETATM   19  N   UNL     1     -14.204   8.908  72.640  1.00  0.00    -0.939 NA 
HETATM   20  H2  UNL     1     -14.324   9.826  72.213  1.00  0.00     0.000 HD 
ENDBRANCH  15  17
ENDBRANCH  14  15
ENDBRANCH  13  14
ENDBRANCH  12  13
ENDBRANCH   3  12
BRANCH   7  21
HETATM   21  C   UNL     1     -10.364  10.976  63.924  1.00  0.00    -0.372 C  
HETATM   22  O   UNL     1      -9.290  11.702  63.333  1.00  0.00    -0.495 OA 
HETATM   23  C   UNL     1     -11.324  11.946  64.598  1.00  0.00    -0.355 C  
HETATM   24  H   UNL     1      -9.666  12.305  62.702  1.00  0.00     0.000 HD 
ENDBRANCH   7  21
TORSDOF 6
ENDMDL
MODEL      154
REMARK 921   NORMALIZED FREE ENERGY PREDICTED BY IDOCK:   -3.52 KCAL/MOL
REMARK 922        TOTAL FREE ENERGY PREDICTED BY IDOCK:   -5.96 KCAL/MOL
REMARK 923 INTER-LIGAND FREE ENERGY PREDICTED BY IDOCK:   -5.34 KCAL/MOL
REMARK 924 INTRA-LIGAND FREE ENERGY PREDICTED BY IDOCK:   -0.62 KCAL/MOL
REMARK 927      BINDING AFFINITY PREDICTED BY RF-SCORE:    0.00 PKD
ROOT
HETATM    1  C   UNL     1     -10.467  12.515  66.599  1.00  0.00    -0.233 C  
HETATM    2  C   UNL     1     -10.627  11.589  67.798  1.00  0.00    -0.227 C  
HETATM    3  C   UNL     1      -9.985  10.308  67.326  1.00  0.00    -0.190 C  
HETATM    4  C   UNL     1     -10.676  11.923  64.601  1.00  0.00    -0.307 C  
HETATM    5  C   UNL     1      -9.521  10.439  66.069  1.00  0.00    -0.185 C  
HETATM    6  N   UNL     1      -9.731  11.720  65.570  1.00  0.00    -0.229 N  
HETATM    7  C   UNL     1     -11.607  12.694  65.552  1.00  0.00    -0.409 C  
HETATM    8  C   UNL     1      -8.894   9.383  65.206  1.00  0.00    -0.190 C  
HETATM    9  O   UNL     1      -8.593   9.798  63.955  1.00  0.00    -0.165 OA 
HETATM   10  O   UNL     1      -8.598   8.260  65.580  1.00  0.00    -0.153 OA 
HETATM   11  O   UNL     1     -10.688  11.501  63.471  1.00  0.00    -0.381 OA 
ENDROOT
BRANCH   3  12
HETATM   12  S   UNL     1     -10.131   8.925  68.337  1.00  0.00    -0.194 SA 
BRANCH  12  13
HETATM   13  C   UNL     1     -10.748   9.549  69.929  1.00  0.00    -0.240 C  
BRANCH  13  14
HETATM   14  C   UNL     1     -11.017   8.488  70.996  1.00  0.00    -0.249 C  
BRANCH  14  15
HETATM   15  N   UNL     1     -10.397   7.214  70.585  1.00  0.00    -0.203 NA 
HETATM   16  H   UNL     1     -10.084   7.029  69.632  1.00  0.00     0.000 HD 
BRANCH  15  17
HETATM   17  C   UNL     1     -10.287   6.358  71.535  1.00  0.00    -0.207 C  
HETATM   18  H1  UNL     1      -9.788   4.406  72.094  1.00  0.00     0.000 HD 
HETATM   19  N   UNL     1      -9.874   5.086  71.339  1.00  0.00    -0.174 NA 
HETATM   20  H2  UNL     1      -9.639   4.793  70.391  1.00  0.00     0.000 HD 
ENDBRANCH  15  17
ENDBRANCH  14  15
ENDBRANCH  13  14
ENDBRANCH  12  13
ENDBRANCH   3  12
BRANCH   7  21
HETATM   21  C   UNL     1     -11.934  14.120  65.150  1.00  0.00    -0.388 C  
HETATM   22  O   UNL     1     -11.813  14.205  63.732  1.00  0.00    -0.668 OA 
HETATM   23  C   UNL     1     -10.976  15.107  65.802  1.00  0.00    -0.350 C  
HETATM   24  H   UNL     1     -12.018  15.098  63.481  1.00  0.00     0.000 HD 
ENDBRANCH   7  21
TORSDOF 6
ENDMDL
MODEL      155
REMARK 921   NORMALIZED FREE ENERGY PREDICTED BY IDOCK:   -3.50 KCAL/MOL
REMARK 922        TOTAL FREE ENERGY PREDICTED BY IDOCK:   -5.94 KCAL/MOL
REMARK 923 INTER-LIGAND FREE ENERGY PREDICTED BY IDOCK:   -5.26 KCAL/MOL
REMARK 924 INTRA-LIGAND FREE ENERGY PREDICTED BY IDOCK:   -0.68 KCAL/MOL
REMARK 927      BINDING AFFINITY PREDICTED BY RF-SCORE:    0.00 PKD
ROOT
HETATM    1  C   UNL     1      -9.107   9.246  68.593  1.00  0.00    -0.132 C  
HETATM    2  C   UNL     1      -9.165   9.552  70.085  1.00  0.00    -0.281 C  
HETATM    3  C   UNL     1      -9.613   8.242  70.683  1.00  0.00    -0.171 C  
HETATM    4  C   UNL     1     -10.490   8.055  67.567  1.00  0.00    -0.260 C  
HETATM    5  C   UNL     1      -9.792   7.313  69.725  1.00  0.00    -0.177 C  
HETATM    6  N   UNL     1      -9.484   7.807  68.461  1.00  0.00    -0.147 N  
HETATM    7  C   UNL     1     -10.300   9.578  67.647  1.00  0.00    -0.299 C  
HETATM    8  C   UNL     1     -10.310   5.914  69.886  1.00  0.00    -0.242 C  
HETATM    9  O   UNL     1     -10.449   5.238  68.724  1.00  0.00    -0.173 OA 
HETATM   10  O   UNL     1     -10.529   5.370  70.956  1.00  0.00    -0.234 OA 
HETATM   11  O   UNL     1     -11.244   7.264  67.055  1.00  0.00    -0.221 OA 
ENDROOT
BRANCH   3  12
HETATM   12  S   UNL     1      -9.993   8.222  72.359  1.00  0.00    -0.315 SA 
BRANCH  12  13
HETATM   13  C   UNL     1     -11.806   8.327  72.450  1.00  0.00    -0.396 C  
BRANCH  13  14
HETATM   14  C   UNL     1     -12.487   9.029  71.275  1.00  0.00    -0.289 C  
BRANCH  14  15
HETATM   15  N   UNL     1     -12.356  10.489  71.436  1.00  0.00    -0.376 NA 
HETATM   16  H   UNL     1     -12.245  10.941  72.344  1.00  0.00     0.000 HD 
BRANCH  15  17
HETATM   17  C   UNL     1     -12.394  11.140  70.331  1.00  0.00    -0.344 C  
HETATM   18  H1  UNL     1     -11.537  12.625  69.135  1.00  0.00     0.000 HD 
HETATM   19  N   UNL     1     -11.506  12.108  70.013  1.00  0.00    -0.526 NA 
HETATM   20  H2  UNL     1     -10.771  12.331  70.684  1.00  0.00     0.000 HD 
ENDBRANCH  15  17
ENDBRANCH  14  15
ENDBRANCH  13  14
ENDBRANCH  12  13
ENDBRANCH   3  12
BRANCH   7  21
HETATM   21  C   UNL     1      -9.953  10.274  66.344  1.00  0.00    -0.229 C  
HETATM   22  O   UNL     1      -8.626  10.780  66.468  1.00  0.00    -0.141 OA 
HETATM   23  C   UNL     1     -10.911  11.424  66.064  1.00  0.00    -0.306 C  
HETATM   24  H   UNL     1      -8.409  11.215  65.652  1.00  0.00     0.000 HD 
ENDBRANCH   7  21
TORSDOF 6
ENDMDL
MODEL      156
REMARK 921   NORMALIZED FREE ENERGY PREDICTED BY IDOCK:   -3.50 KCAL/MOL
REMARK 922        TOTAL FREE ENERGY PREDICTED BY IDOCK:   -5.94 KCAL/MOL
REMARK 923 INTER-LIGAND FREE ENERGY PREDICTED BY IDOCK:   -5.15 KCAL/MOL
REMARK 924 INTRA-LIGAND FREE ENERGY PREDICTED BY IDOCK:   -0.79 KCAL/MOL
REMARK 927      BINDING AFFINITY PREDICTED BY RF-SCORE:    0.00 PKD
ROOT
HETATM    1  C   UNL     1     -10.045   7.800  68.341  1.00  0.00    -0.192 C  
HETATM    2  C   UNL     1     -10.494   8.232  66.951  1.00  0.00    -0.365 C  
HETATM    3  C   UNL     1      -9.343   9.079  66.470  1.00  0.00    -0.191 C  
HETATM    4  C   UNL     1      -9.020   9.023  69.696  1.00  0.00    -0.153 C  
HETATM    5  C   UNL     1      -8.374   9.145  67.402  1.00  0.00    -0.115 C  
HETATM    6  N   UNL     1      -8.686   8.391  68.529  1.00  0.00    -0.136 N  
HETATM    7  C   UNL     1     -10.489   8.575  69.617  1.00  0.00    -0.221 C  
HETATM    8  C   UNL     1      -7.106   9.948  67.355  1.00  0.00    -0.085 C  
HETATM    9  O   UNL     1      -6.359   9.867  68.479  1.00  0.00    -0.049 OA 
HETATM   10  O   UNL     1      -6.710  10.571  66.384  1.00  0.00    -0.098 OA 
HETATM   11  O   UNL     1      -8.327   9.732  70.385  1.00  0.00    -0.185 OA 
ENDROOT
BRANCH   3  12
HETATM   12  S   UNL     1      -9.545   9.930  64.990  1.00  0.00    -0.266 SA 
BRANCH  12  13
HETATM   13  C   UNL     1     -10.185  11.568  65.453  1.00  0.00    -0.264 C  
BRANCH  13  14
HETATM   14  C   UNL     1     -11.313  12.109  64.575  1.00  0.00    -0.334 C  
BRANCH  14  15
HETATM   15  N   UNL     1     -12.415  12.585  65.433  1.00  0.00    -0.647 NA 
HETATM   16  H   UNL     1     -13.392  12.574  65.141  1.00  0.00     0.000 HD 
BRANCH  15  17
HETATM   17  C   UNL     1     -12.033  13.014  66.580  1.00  0.00    -0.387 C  
HETATM   18  H1  UNL     1     -12.013  14.596  67.948  1.00  0.00     0.000 HD 
HETATM   19  N   UNL     1     -12.317  14.255  67.036  1.00  0.00    -0.580 NA 
HETATM   20  H2  UNL     1     -12.860  14.878  66.440  1.00  0.00     0.000 HD 
ENDBRANCH  15  17
ENDBRANCH  14  15
ENDBRANCH  13  14
ENDBRANCH  12  13
ENDBRANCH   3  12
BRANCH   7  21
HETATM   21  C   UNL     1     -10.989   7.734  70.777  1.00  0.00    -0.252 C  
HETATM   22  O   UNL     1      -9.897   7.543  71.672  1.00  0.00    -0.162 OA 
HETATM   23  C   UNL     1     -11.493   6.381  70.295  1.00  0.00    -0.468 C  
HETATM   24  H   UNL     1     -10.210   7.017  72.398  1.00  0.00     0.000 HD 
ENDBRANCH   7  21
TORSDOF 6
ENDMDL
MODEL      157
REMARK 921   NORMALIZED FREE ENERGY PREDICTED BY IDOCK:   -3.49 KCAL/MOL
REMARK 922        TOTAL FREE ENERGY PREDICTED BY IDOCK:   -5.93 KCAL/MOL
REMARK 923 INTER-LIGAND FREE ENERGY PREDICTED BY IDOCK:   -5.41 KCAL/MOL
REMARK 924 INTRA-LIGAND FREE ENERGY PREDICTED BY IDOCK:   -0.51 KCAL/MOL
REMARK 927      BINDING AFFINITY PREDICTED BY RF-SCORE:    0.00 PKD
ROOT
HETATM    1  C   UNL     1      -9.925   9.029  66.818  1.00  0.00    -0.263 C  
HETATM    2  C   UNL     1     -10.591  10.237  66.171  1.00  0.00    -0.124 C  
HETATM    3  C   UNL     1      -9.859  11.400  66.793  1.00  0.00    -0.206 C  
HETATM    4  C   UNL     1      -9.326   8.928  68.822  1.00  0.00    -0.137 C  
HETATM    5  C   UNL     1      -8.921  10.970  67.657  1.00  0.00    -0.142 C  
HETATM    6  N   UNL     1      -8.864   9.582  67.712  1.00  0.00    -0.119 N  
HETATM    7  C   UNL     1     -10.535   8.339  68.075  1.00  0.00    -0.239 C  
HETATM    8  C   UNL     1      -8.036  11.800  68.541  1.00  0.00    -0.145 C  
HETATM    9  O   UNL     1      -7.238  11.078  69.359  1.00  0.00    -0.122 OA 
HETATM   10  O   UNL     1      -7.958  13.017  68.505  1.00  0.00    -0.138 OA 
HETATM   11  O   UNL     1      -8.894   8.972  69.947  1.00  0.00    -0.140 OA 
ENDROOT
BRANCH   3  12
HETATM   12  S   UNL     1     -10.453  12.980  66.465  1.00  0.00    -0.281 SA 
BRANCH  12  13
HETATM   13  C   UNL     1     -11.771  13.268  67.683  1.00  0.00    -0.366 C  
BRANCH  13  14
HETATM   14  C   UNL     1     -11.801  12.300  68.866  1.00  0.00    -0.303 C  
BRANCH  14  15
HETATM   15  N   UNL     1     -11.450  13.026  70.101  1.00  0.00    -0.519 NA 
HETATM   16  H   UNL     1     -10.498  13.313  70.326  1.00  0.00     0.000 HD 
BRANCH  15  17
HETATM   17  C   UNL     1     -12.452  13.264  70.867  1.00  0.00    -0.342 C  
HETATM   18  H1  UNL     1     -13.806  12.513  72.272  1.00  0.00     0.000 HD 
HETATM   19  N   UNL     1     -13.010  12.325  71.663  1.00  0.00    -0.367 NA 
HETATM   20  H2  UNL     1     -12.617  11.384  71.654  1.00  0.00     0.000 HD 
ENDBRANCH  15  17
ENDBRANCH  14  15
ENDBRANCH  13  14
ENDBRANCH  12  13
ENDBRANCH   3  12
BRANCH   7  21
HETATM   21  C   UNL     1     -10.619   6.824  68.039  1.00  0.00    -0.231 C  
HETATM   22  O   UNL     1     -11.532   6.470  67.003  1.00  0.00    -0.752 OA 
HETATM   23  C   UNL     1     -11.117   6.271  69.367  1.00  0.00    -0.477 C  
HETATM   24  H   UNL     1     -11.585   5.522  66.981  1.00  0.00     0.000 HD 
ENDBRANCH   7  21
TORSDOF 6
ENDMDL
MODEL      158
REMARK 921   NORMALIZED FREE ENERGY PREDICTED BY IDOCK:   -3.46 KCAL/MOL
REMARK 922        TOTAL FREE ENERGY PREDICTED BY IDOCK:   -5.88 KCAL/MOL
REMARK 923 INTER-LIGAND FREE ENERGY PREDICTED BY IDOCK:   -5.42 KCAL/MOL
REMARK 924 INTRA-LIGAND FREE ENERGY PREDICTED BY IDOCK:   -0.46 KCAL/MOL
REMARK 927      BINDING AFFINITY PREDICTED BY RF-SCORE:    0.00 PKD
ROOT
HETATM    1  C   UNL     1     -11.094  11.984  69.015  1.00  0.00    -0.239 C  
HETATM    2  C   UNL     1     -11.778  11.259  70.168  1.00  0.00    -0.429 C  
HETATM    3  C   UNL     1     -11.223   9.861  70.066  1.00  0.00    -0.276 C  
HETATM    4  C   UNL     1     -10.726  11.146  67.132  1.00  0.00    -0.259 C  
HETATM    5  C   UNL     1     -10.359   9.761  69.039  1.00  0.00    -0.208 C  
HETATM    6  N   UNL     1     -10.194  10.975  68.381  1.00  0.00    -0.177 N  
HETATM    7  C   UNL     1     -11.786  12.143  67.628  1.00  0.00    -0.316 C  
HETATM    8  C   UNL     1      -9.655   8.529  68.546  1.00  0.00    -0.151 C  
HETATM    9  O   UNL     1      -8.901   8.729  67.443  1.00  0.00    -0.132 OA 
HETATM   10  O   UNL     1      -9.675   7.444  69.103  1.00  0.00    -0.162 OA 
HETATM   11  O   UNL     1     -10.432  10.574  66.111  1.00  0.00    -0.230 OA 
ENDROOT
BRANCH   3  12
HETATM   12  S   UNL     1     -11.904   8.659  71.090  1.00  0.00    -0.273 SA 
BRANCH  12  13
HETATM   13  C   UNL     1     -10.685   8.398  72.413  1.00  0.00    -0.335 C  
BRANCH  13  14
HETATM   14  C   UNL     1     -10.750   7.042  73.114  1.00  0.00    -0.326 C  
BRANCH  14  15
HETATM   15  N   UNL     1      -9.382   6.523  73.305  1.00  0.00    -0.131 NA 
HETATM   16  H   UNL     1      -8.889   6.570  74.196  1.00  0.00     0.000 HD 
BRANCH  15  17
HETATM   17  C   UNL     1      -8.869   6.009  72.248  1.00  0.00    -0.138 C  
HETATM   18  H1  UNL     1      -8.074   4.306  71.330  1.00  0.00     0.000 HD 
HETATM   19  N   UNL     1      -8.482   4.716  72.169  1.00  0.00    -0.116 NA 
HETATM   20  H2  UNL     1      -8.604   4.122  72.989  1.00  0.00     0.000 HD 
ENDBRANCH  15  17
ENDBRANCH  14  15
ENDBRANCH  13  14
ENDBRANCH  12  13
ENDBRANCH   3  12
BRANCH   7  21
HETATM   21  C   UNL     1     -11.739  13.527  67.007  1.00  0.00    -0.383 C  
HETATM   22  O   UNL     1     -12.372  14.426  67.913  1.00  0.00    -0.615 OA 
HETATM   23  C   UNL     1     -12.470  13.553  65.672  1.00  0.00    -0.528 C  
HETATM   24  H   UNL     1     -12.342  15.292  67.524  1.00  0.00     0.000 HD 
ENDBRANCH   7  21
TORSDOF 6
ENDMDL
MODEL      159
REMARK 921   NORMALIZED FREE ENERGY PREDICTED BY IDOCK:   -3.45 KCAL/MOL
REMARK 922        TOTAL FREE ENERGY PREDICTED BY IDOCK:   -5.88 KCAL/MOL
REMARK 923 INTER-LIGAND FREE ENERGY PREDICTED BY IDOCK:   -5.31 KCAL/MOL
REMARK 924 INTRA-LIGAND FREE ENERGY PREDICTED BY IDOCK:   -0.57 KCAL/MOL
REMARK 927      BINDING AFFINITY PREDICTED BY RF-SCORE:    0.00 PKD
ROOT
HETATM    1  C   UNL     1     -10.529   6.553  68.270  1.00  0.00    -0.219 C  
HETATM    2  C   UNL     1     -11.505   6.400  69.429  1.00  0.00    -0.374 C  
HETATM    3  C   UNL     1     -10.885   7.250  70.510  1.00  0.00    -0.243 C  
HETATM    4  C   UNL     1      -8.446   6.625  68.467  1.00  0.00    -0.122 C  
HETATM    5  C   UNL     1      -9.742   7.815  70.078  1.00  0.00    -0.176 C  
HETATM    6  N   UNL     1      -9.469   7.487  68.755  1.00  0.00    -0.148 N  
HETATM    7  C   UNL     1      -9.401   5.510  68.011  1.00  0.00    -0.120 C  
HETATM    8  C   UNL     1      -8.780   8.659  70.864  1.00  0.00    -0.181 C  
HETATM    9  O   UNL     1      -7.677   9.026  70.175  1.00  0.00    -0.070 OA 
HETATM   10  O   UNL     1      -8.972   9.063  71.999  1.00  0.00    -0.374 OA 
HETATM   11  O   UNL     1      -7.264   6.782  68.653  1.00  0.00    -0.080 OA 
ENDROOT
BRANCH   3  12
HETATM   12  S   UNL     1     -11.594   7.189  72.075  1.00  0.00    -0.290 SA 
BRANCH  12  13
HETATM   13  C   UNL     1     -13.389   7.134  71.795  1.00  0.00    -0.283 C  
BRANCH  13  14
HETATM   14  C   UNL     1     -14.070   8.488  71.602  1.00  0.00    -0.414 C  
BRANCH  14  15
HETATM   15  N   UNL     1     -13.317   9.523  72.336  1.00  0.00    -0.580 NA 
HETATM   16  H   UNL     1     -13.114   9.461  73.333  1.00  0.00     0.000 HD 
BRANCH  15  17
HETATM   17  C   UNL     1     -12.939  10.508  71.605  1.00  0.00    -0.476 C  
HETATM   18  H1  UNL     1     -12.473  11.195  69.686  1.00  0.00     0.000 HD 
HETATM   19  N   UNL     1     -12.773  10.412  70.267  1.00  0.00    -0.526 NA 
HETATM   20  H2  UNL     1     -12.956   9.516  69.818  1.00  0.00     0.000 HD 
ENDBRANCH  15  17
ENDBRANCH  14  15
ENDBRANCH  13  14
ENDBRANCH  12  13
ENDBRANCH   3  12
BRANCH   7  21
HETATM   21  C   UNL     1      -9.235   5.037  66.578  1.00  0.00    -0.135 C  
HETATM   22  O   UNL     1     -10.133   5.794  65.771  1.00  0.00    -0.388 OA 
HETATM   23  C   UNL     1      -9.560   3.556  66.449  1.00  0.00    -0.114 C  
HETATM   24  H   UNL     1     -10.029   5.498  64.874  1.00  0.00     0.000 HD 
ENDBRANCH   7  21
TORSDOF 6
ENDMDL
MODEL      160
REMARK 921   NORMALIZED FREE ENERGY PREDICTED BY IDOCK:   -3.42 KCAL/MOL
REMARK 922        TOTAL FREE ENERGY PREDICTED BY IDOCK:   -5.84 KCAL/MOL
REMARK 923 INTER-LIGAND FREE ENERGY PREDICTED BY IDOCK:   -5.17 KCAL/MOL
REMARK 924 INTRA-LIGAND FREE ENERGY PREDICTED BY IDOCK:   -0.67 KCAL/MOL
REMARK 927      BINDING AFFINITY PREDICTED BY RF-SCORE:    0.00 PKD
ROOT
HETATM    1  C   UNL     1      -9.949  12.456  66.072  1.00  0.00    -0.255 C  
HETATM    2  C   UNL     1     -10.750  13.752  66.094  1.00  0.00    -0.283 C  
HETATM    3  C   UNL     1      -9.998  14.599  67.090  1.00  0.00    -0.240 C  
HETATM    4  C   UNL     1      -9.086  11.560  67.757  1.00  0.00    -0.165 C  
HETATM    5  C   UNL     1      -8.934  13.934  67.579  1.00  0.00    -0.197 C  
HETATM    6  N   UNL     1      -8.806  12.672  67.009  1.00  0.00    -0.209 N  
HETATM    7  C   UNL     1     -10.354  11.234  66.950  1.00  0.00    -0.272 C  
HETATM    8  C   UNL     1      -7.980  14.385  68.647  1.00  0.00    -0.145 C  
HETATM    9  O   UNL     1      -7.048  13.464  68.980  1.00  0.00    -0.105 OA 
HETATM   10  O   UNL     1      -7.965  15.498  69.144  1.00  0.00    -0.186 OA 
HETATM   11  O   UNL     1      -8.511  11.156  68.738  1.00  0.00    -0.156 OA 
ENDROOT
BRANCH   3  12
HETATM   12  S   UNL     1     -10.703  16.097  67.553  1.00  0.00    -0.276 SA 
BRANCH  12  13
HETATM   13  C   UNL     1      -9.850  17.363  66.566  1.00  0.00    -0.304 C  
BRANCH  13  14
HETATM   14  C   UNL     1     -10.440  18.771  66.643  1.00  0.00    -0.426 C  
BRANCH  14  15
HETATM   15  N   UNL     1      -9.390  19.719  67.062  1.00  0.00    -0.336 NA 
HETATM   16  H   UNL     1      -8.869  20.298  66.405  1.00  0.00     0.000 HD 
BRANCH  15  17
HETATM   17  C   UNL     1      -9.192  19.747  68.330  1.00  0.00    -0.311 C  
HETATM   18  H1  UNL     1     -10.018  19.565  70.242  1.00  0.00     0.000 HD 
HETATM   19  N   UNL     1     -10.175  19.542  69.235  1.00  0.00    -0.608 NA 
HETATM   20  H2  UNL     1     -11.117  19.355  68.894  1.00  0.00     0.000 HD 
ENDBRANCH  15  17
ENDBRANCH  14  15
ENDBRANCH  13  14
ENDBRANCH  12  13
ENDBRANCH   3  12
BRANCH   7  21
HETATM   21  C   UNL     1     -10.371   9.884  66.257  1.00  0.00    -0.163 C  
HETATM   22  O   UNL     1      -9.612   8.981  67.057  1.00  0.00    -0.156 OA 
HETATM   23  C   UNL     1      -9.756   9.973  64.868  1.00  0.00    -0.377 C  
HETATM   24  H   UNL     1      -9.623   8.136  66.623  1.00  0.00     0.000 HD 
ENDBRANCH   7  21
TORSDOF 6
ENDMDL
MODEL      161
REMARK 921   NORMALIZED FREE ENERGY PREDICTED BY IDOCK:   -3.41 KCAL/MOL
REMARK 922        TOTAL FREE ENERGY PREDICTED BY IDOCK:   -5.82 KCAL/MOL
REMARK 923 INTER-LIGAND FREE ENERGY PREDICTED BY IDOCK:   -5.39 KCAL/MOL
REMARK 924 INTRA-LIGAND FREE ENERGY PREDICTED BY IDOCK:   -0.44 KCAL/MOL
REMARK 927      BINDING AFFINITY PREDICTED BY RF-SCORE:    0.00 PKD
ROOT
HETATM    1  C   UNL     1      -9.223   8.707  67.422  1.00  0.00    -0.136 C  
HETATM    2  C   UNL     1     -10.516   9.378  66.975  1.00  0.00    -0.302 C  
HETATM    3  C   UNL     1     -10.138  10.837  66.919  1.00  0.00    -0.212 C  
HETATM    4  C   UNL     1      -7.901   9.494  68.842  1.00  0.00    -0.080 C  
HETATM    5  C   UNL     1      -8.850  11.013  67.267  1.00  0.00    -0.135 C  
HETATM    6  N   UNL     1      -8.219   9.806  67.548  1.00  0.00    -0.114 N  
HETATM    7  C   UNL     1      -8.953   8.375  68.920  1.00  0.00    -0.146 C  
HETATM    8  C   UNL     1      -8.108  12.310  67.420  1.00  0.00    -0.175 C  
HETATM    9  O   UNL     1      -6.836  12.170  67.855  1.00  0.00    -0.078 OA 
HETATM   10  O   UNL     1      -8.550  13.406  67.121  1.00  0.00    -0.204 OA 
HETATM   11  O   UNL     1      -7.119  10.051  69.573  1.00  0.00    -0.068 OA 
ENDROOT
BRANCH   3  12
HETATM   12  S   UNL     1     -11.397  11.974  66.636  1.00  0.00    -0.333 SA 
BRANCH  12  13
HETATM   13  C   UNL     1     -11.438  12.216  64.834  1.00  0.00    -0.325 C  
BRANCH  13  14
HETATM   14  C   UNL     1     -12.131  13.491  64.355  1.00  0.00    -0.420 C  
BRANCH  14  15
HETATM   15  N   UNL     1     -11.972  14.547  65.373  1.00  0.00    -0.354 NA 
HETATM   16  H   UNL     1     -12.378  14.484  66.306  1.00  0.00     0.000 HD 
BRANCH  15  17
HETATM   17  C   UNL     1     -11.277  15.551  64.978  1.00  0.00    -0.358 C  
HETATM   18  H1  UNL     1     -11.003  17.040  63.537  1.00  0.00     0.000 HD 
HETATM   19  N   UNL     1     -11.555  16.243  63.851  1.00  0.00    -1.573 NA 
HETATM   20  H2  UNL     1     -12.354  15.953  63.289  1.00  0.00     0.000 HD 
ENDBRANCH  15  17
ENDBRANCH  14  15
ENDBRANCH  13  14
ENDBRANCH  12  13
ENDBRANCH   3  12
BRANCH   7  21
HETATM   21  C   UNL     1      -8.424   6.984  69.218  1.00  0.00    -0.133 C  
HETATM   22  O   UNL     1      -9.427   6.051  68.827  1.00  0.00    -0.124 OA 
HETATM   23  C   UNL     1      -8.125   6.818  70.702  1.00  0.00    -0.119 C  
HETATM   24  H   UNL     1      -9.095   5.180  69.014  1.00  0.00     0.000 HD 
ENDBRANCH   7  21
TORSDOF 6
ENDMDL
MODEL      162
REMARK 921   NORMALIZED FREE ENERGY PREDICTED BY IDOCK:   -3.40 KCAL/MOL
REMARK 922        TOTAL FREE ENERGY PREDICTED BY IDOCK:   -5.81 KCAL/MOL
REMARK 923 INTER-LIGAND FREE ENERGY PREDICTED BY IDOCK:   -4.40 KCAL/MOL
REMARK 924 INTRA-LIGAND FREE ENERGY PREDICTED BY IDOCK:   -1.41 KCAL/MOL
REMARK 927      BINDING AFFINITY PREDICTED BY RF-SCORE:    0.00 PKD
ROOT
HETATM    1  C   UNL     1     -10.598   6.247  68.668  1.00  0.00    -0.264 C  
HETATM    2  C   UNL     1     -10.632   5.344  69.894  1.00  0.00    -0.351 C  
HETATM    3  C   UNL     1     -10.993   6.295  71.007  1.00  0.00    -0.283 C  
HETATM    4  C   UNL     1      -9.847   8.202  68.648  1.00  0.00    -0.183 C  
HETATM    5  C   UNL     1     -11.150   7.547  70.536  1.00  0.00    -0.259 C  
HETATM    6  N   UNL     1     -10.970   7.608  69.158  1.00  0.00    -0.059 N  
HETATM    7  C   UNL     1      -9.265   6.868  68.150  1.00  0.00    -0.126 C  
HETATM    8  C   UNL     1     -11.427   8.796  71.321  1.00  0.00    -0.292 C  
HETATM    9  O   UNL     1     -11.461   9.922  70.574  1.00  0.00    -0.273 OA 
HETATM   10  O   UNL     1     -11.679   8.829  72.514  1.00  0.00    -0.326 OA 
HETATM   11  O   UNL     1      -9.514   9.359  68.725  1.00  0.00    -0.147 OA 
ENDROOT
BRANCH   3  12
HETATM   12  S   UNL     1     -10.943   5.693  72.616  1.00  0.00    -0.285 SA 
BRANCH  12  13
HETATM   13  C   UNL     1      -9.219   5.894  73.158  1.00  0.00    -0.133 C  
BRANCH  13  14
HETATM   14  C   UNL     1      -8.991   6.918  74.269  1.00  0.00    -0.197 C  
BRANCH  14  15
HETATM   15  N   UNL     1      -8.773   8.249  73.670  1.00  0.00    -0.256 NA 
HETATM   16  H   UNL     1      -9.278   9.082  73.970  1.00  0.00     0.000 HD 
BRANCH  15  17
HETATM   17  C   UNL     1      -7.892   8.262  72.738  1.00  0.00    -0.126 C  
HETATM   18  H1  UNL     1      -7.193   9.178  70.993  1.00  0.00     0.000 HD 
HETATM   19  N   UNL     1      -7.893   9.168  71.735  1.00  0.00    -0.318 NA 
HETATM   20  H2  UNL     1      -8.629   9.873  71.718  1.00  0.00     0.000 HD 
ENDBRANCH  15  17
ENDBRANCH  14  15
ENDBRANCH  13  14
ENDBRANCH  12  13
ENDBRANCH   3  12
BRANCH   7  21
HETATM   21  C   UNL     1      -9.012   6.770  66.657  1.00  0.00    -0.144 C  
HETATM   22  O   UNL     1      -9.389   8.015  66.075  1.00  0.00    -0.325 OA 
HETATM   23  C   UNL     1      -9.831   5.649  66.034  1.00  0.00    -0.056 C  
HETATM   24  H   UNL     1      -9.230   7.954  65.141  1.00  0.00     0.000 HD 
ENDBRANCH   7  21
TORSDOF 6
ENDMDL
MODEL      163
REMARK 921   NORMALIZED FREE ENERGY PREDICTED BY IDOCK:   -3.40 KCAL/MOL
REMARK 922        TOTAL FREE ENERGY PREDICTED BY IDOCK:   -5.81 KCAL/MOL
REMARK 923 INTER-LIGAND FREE ENERGY PREDICTED BY IDOCK:   -4.62 KCAL/MOL
REMARK 924 INTRA-LIGAND FREE ENERGY PREDICTED BY IDOCK:   -1.18 KCAL/MOL
REMARK 927      BINDING AFFINITY PREDICTED BY RF-SCORE:    0.00 PKD
ROOT
HETATM    1  C   UNL     1     -10.597   6.039  68.405  1.00  0.00    -0.261 C  
HETATM    2  C   UNL     1      -9.728   4.930  68.986  1.00  0.00    -0.245 C  
HETATM    3  C   UNL     1     -10.090   4.948  70.450  1.00  0.00    -0.245 C  
HETATM    4  C   UNL     1     -10.994   7.863  69.355  1.00  0.00    -0.020 C  
HETATM    5  C   UNL     1     -11.011   5.896  70.705  1.00  0.00    -0.273 C  
HETATM    6  N   UNL     1     -11.396   6.569  69.551  1.00  0.00    -0.370 N  
HETATM    7  C   UNL     1     -10.047   7.483  68.205  1.00  0.00    -0.215 C  
HETATM    8  C   UNL     1     -11.573   6.295  72.039  1.00  0.00    -0.322 C  
HETATM    9  O   UNL     1     -12.434   7.336  71.986  1.00  0.00    -0.297 OA 
HETATM   10  O   UNL     1     -11.358   5.714  73.090  1.00  0.00    -0.262 OA 
HETATM   11  O   UNL     1     -11.286   8.840  70.000  1.00  0.00    -0.215 OA 
ENDROOT
BRANCH   3  12
HETATM   12  S   UNL     1      -9.168   3.954  71.508  1.00  0.00    -0.135 SA 
BRANCH  12  13
HETATM   13  C   UNL     1      -7.712   4.944  71.961  1.00  0.00    -0.100 C  
BRANCH  13  14
HETATM   14  C   UNL     1      -7.721   5.526  73.374  1.00  0.00    -0.096 C  
BRANCH  14  15
HETATM   15  N   UNL     1      -8.545   6.750  73.394  1.00  0.00    -0.121 NA 
HETATM   16  H   UNL     1      -9.413   6.827  73.923  1.00  0.00     0.000 HD 
BRANCH  15  17
HETATM   17  C   UNL     1      -8.070   7.708  72.684  1.00  0.00    -0.118 C  
HETATM   18  H1  UNL     1      -8.468   9.418  71.548  1.00  0.00     0.000 HD 
HETATM   19  N   UNL     1      -8.845   8.656  72.112  1.00  0.00    -0.341 NA 
HETATM   20  H2  UNL     1      -9.854   8.607  72.250  1.00  0.00     0.000 HD 
ENDBRANCH  15  17
ENDBRANCH  14  15
ENDBRANCH  13  14
ENDBRANCH  12  13
ENDBRANCH   3  12
BRANCH   7  21
HETATM   21  C   UNL     1     -10.335   8.135  66.865  1.00  0.00    -0.331 C  
HETATM   22  O   UNL     1      -9.714   7.340  65.858  1.00  0.00    -0.400 OA 
HETATM   23  C   UNL     1      -9.777   9.550  66.811  1.00  0.00    -0.254 C  
HETATM   24  H   UNL     1      -9.895   7.747  65.020  1.00  0.00     0.000 HD 
ENDBRANCH   7  21
TORSDOF 6
ENDMDL
MODEL      164
REMARK 921   NORMALIZED FREE ENERGY PREDICTED BY IDOCK:   -3.38 KCAL/MOL
REMARK 922        TOTAL FREE ENERGY PREDICTED BY IDOCK:   -5.78 KCAL/MOL
REMARK 923 INTER-LIGAND FREE ENERGY PREDICTED BY IDOCK:   -5.13 KCAL/MOL
REMARK 924 INTRA-LIGAND FREE ENERGY PREDICTED BY IDOCK:   -0.65 KCAL/MOL
REMARK 927      BINDING AFFINITY PREDICTED BY RF-SCORE:    0.00 PKD
ROOT
HETATM    1  C   UNL     1      -9.183  10.411  69.112  1.00  0.00    -0.191 C  
HETATM    2  C   UNL     1      -9.331   9.549  70.360  1.00  0.00    -0.311 C  
HETATM    3  C   UNL     1      -9.102   8.153  69.837  1.00  0.00    -0.151 C  
HETATM    4  C   UNL     1      -9.885   9.886  67.211  1.00  0.00    -0.182 C  
HETATM    5  C   UNL     1      -8.858   8.171  68.513  1.00  0.00    -0.134 C  
HETATM    6  N   UNL     1      -8.852   9.465  68.004  1.00  0.00    -0.124 N  
HETATM    7  C   UNL     1     -10.421  10.855  68.277  1.00  0.00    -0.205 C  
HETATM    8  C   UNL     1      -8.663   6.996  67.599  1.00  0.00    -0.121 C  
HETATM    9  O   UNL     1      -8.507   7.328  66.298  1.00  0.00    -0.121 OA 
HETATM   10  O   UNL     1      -8.573   5.835  67.964  1.00  0.00    -0.106 OA 
HETATM   11  O   UNL     1     -10.201   9.478  66.120  1.00  0.00    -0.273 OA 
ENDROOT
BRANCH   3  12
HETATM   12  S   UNL     1      -9.379   6.844  70.917  1.00  0.00    -0.156 SA 
BRANCH  12  13
HETATM   13  C   UNL     1     -11.148   6.452  70.764  1.00  0.00    -0.307 C  
BRANCH  13  14
HETATM   14  C   UNL     1     -11.963   6.563  72.053  1.00  0.00    -0.326 C  
BRANCH  14  15
HETATM   15  N   UNL     1     -12.111   7.985  72.417  1.00  0.00    -0.477 NA 
HETATM   16  H   UNL     1     -11.727   8.382  73.274  1.00  0.00     0.000 HD 
BRANCH  15  17
HETATM   17  C   UNL     1     -12.768   8.676  71.558  1.00  0.00    -0.316 C  
HETATM   18  H1  UNL     1     -14.623   9.098  70.690  1.00  0.00     0.000 HD 
HETATM   19  N   UNL     1     -14.101   8.549  71.373  1.00  0.00    -0.589 NA 
HETATM   20  H2  UNL     1     -14.607   7.871  71.941  1.00  0.00     0.000 HD 
ENDBRANCH  15  17
ENDBRANCH  14  15
ENDBRANCH  13  14
ENDBRANCH  12  13
ENDBRANCH   3  12
BRANCH   7  21
HETATM   21  C   UNL     1     -10.476  12.318  67.878  1.00  0.00    -0.213 C  
HETATM   22  O   UNL     1     -10.031  13.084  68.994  1.00  0.00    -0.420 OA 
HETATM   23  C   UNL     1     -11.893  12.733  67.508  1.00  0.00    -0.402 C  
HETATM   24  H   UNL     1     -10.065  14.000  68.744  1.00  0.00     0.000 HD 
ENDBRANCH   7  21
TORSDOF 6
ENDMDL
MODEL      165
REMARK 921   NORMALIZED FREE ENERGY PREDICTED BY IDOCK:   -3.38 KCAL/MOL
REMARK 922        TOTAL FREE ENERGY PREDICTED BY IDOCK:   -5.77 KCAL/MOL
REMARK 923 INTER-LIGAND FREE ENERGY PREDICTED BY IDOCK:   -5.34 KCAL/MOL
REMARK 924 INTRA-LIGAND FREE ENERGY PREDICTED BY IDOCK:   -0.43 KCAL/MOL
REMARK 927      BINDING AFFINITY PREDICTED BY RF-SCORE:    0.00 PKD
ROOT
HETATM    1  C   UNL     1     -11.219  13.486  69.702  1.00  0.00    -0.063 C  
HETATM    2  C   UNL     1     -10.968  12.403  68.660  1.00  0.00    -0.283 C  
HETATM    3  C   UNL     1     -10.164  13.125  67.607  1.00  0.00    -0.224 C  
HETATM    4  C   UNL     1     -11.644  15.489  69.261  1.00  0.00    -0.357 C  
HETATM    5  C   UNL     1      -9.964  14.410  67.954  1.00  0.00    -0.228 C  
HETATM    6  N   UNL     1     -10.523  14.706  69.193  1.00  0.00    -0.243 N  
HETATM    7  C   UNL     1     -12.536  14.319  69.710  1.00  0.00    -0.264 C  
HETATM    8  C   UNL     1      -9.290  15.485  67.151  1.00  0.00    -0.216 C  
HETATM    9  O   UNL     1      -9.305  16.704  67.735  1.00  0.00    -0.219 OA 
HETATM   10  O   UNL     1      -8.704  15.304  66.096  1.00  0.00    -0.245 OA 
HETATM   11  O   UNL     1     -11.763  16.649  68.951  1.00  0.00    -0.082 OA 
ENDROOT
BRANCH   3  12
HETATM   12  S   UNL     1      -9.838  12.287  66.142  1.00  0.00    -0.244 SA 
BRANCH  12  13
HETATM   13  C   UNL     1     -10.397  10.580  66.423  1.00  0.00    -0.221 C  
BRANCH  13  14
HETATM   14  C   UNL     1      -9.688   9.507  65.597  1.00  0.00    -0.290 C  
BRANCH  14  15
HETATM   15  N   UNL     1      -9.261  10.085  64.308  1.00  0.00    -0.252 NA 
HETATM   16  H   UNL     1      -9.618  10.971  63.951  1.00  0.00     0.000 HD 
BRANCH  15  17
HETATM   17  C   UNL     1      -8.402   9.371  63.677  1.00  0.00    -0.184 C  
HETATM   18  H1  UNL     1      -7.433   8.980  61.866  1.00  0.00     0.000 HD 
HETATM   19  N   UNL     1      -8.116   9.547  62.368  1.00  0.00    -0.123 NA 
HETATM   20  H2  UNL     1      -8.607  10.281  61.858  1.00  0.00     0.000 HD 
ENDBRANCH  15  17
ENDBRANCH  14  15
ENDBRANCH  13  14
ENDBRANCH  12  13
ENDBRANCH   3  12
BRANCH   7  21
HETATM   21  C   UNL     1     -13.220  14.484  71.055  1.00  0.00    -0.354 C  
HETATM   22  O   UNL     1     -14.150  15.558  70.934  1.00  0.00    -0.855 OA 
HETATM   23  C   UNL     1     -12.211  14.805  72.148  1.00  0.00    -0.396 C  
HETATM   24  H   UNL     1     -14.578  15.660  71.775  1.00  0.00     0.000 HD 
ENDBRANCH   7  21
TORSDOF 6
ENDMDL
MODEL      166
REMARK 921   NORMALIZED FREE ENERGY PREDICTED BY IDOCK:   -3.38 KCAL/MOL
REMARK 922        TOTAL FREE ENERGY PREDICTED BY IDOCK:   -5.77 KCAL/MOL
REMARK 923 INTER-LIGAND FREE ENERGY PREDICTED BY IDOCK:   -5.34 KCAL/MOL
REMARK 924 INTRA-LIGAND FREE ENERGY PREDICTED BY IDOCK:   -0.43 KCAL/MOL
REMARK 927      BINDING AFFINITY PREDICTED BY RF-SCORE:    0.00 PKD
ROOT
HETATM    1  C   UNL     1      -9.421  14.799  66.189  1.00  0.00    -0.292 C  
HETATM    2  C   UNL     1      -8.900  13.626  67.009  1.00  0.00    -0.233 C  
HETATM    3  C   UNL     1      -9.417  12.427  66.253  1.00  0.00    -0.220 C  
HETATM    4  C   UNL     1     -11.307  14.877  65.283  1.00  0.00    -0.358 C  
HETATM    5  C   UNL     1     -10.120  12.810  65.171  1.00  0.00    -0.227 C  
HETATM    6  N   UNL     1     -10.148  14.194  65.033  1.00  0.00    -0.357 N  
HETATM    7  C   UNL     1     -10.748  15.527  66.560  1.00  0.00    -0.304 C  
HETATM    8  C   UNL     1     -10.869  11.938  64.205  1.00  0.00    -0.356 C  
HETATM    9  O   UNL     1     -11.545  12.619  63.253  1.00  0.00    -0.489 OA 
HETATM   10  O   UNL     1     -10.838  10.718  64.198  1.00  0.00    -0.207 OA 
HETATM   11  O   UNL     1     -12.353  14.815  64.685  1.00  0.00    -0.433 OA 
ENDROOT
BRANCH   3  12
HETATM   12  S   UNL     1      -9.205  10.881  66.972  1.00  0.00    -0.153 SA 
BRANCH  12  13
HETATM   13  C   UNL     1      -7.471  10.432  66.661  1.00  0.00    -0.114 C  
BRANCH  13  14
HETATM   14  C   UNL     1      -6.446  11.537  66.916  1.00  0.00    -0.144 C  
BRANCH  14  15
HETATM   15  N   UNL     1      -5.401  11.484  65.876  1.00  0.00    -0.497 NA 
HETATM   16  H   UNL     1      -4.455  11.835  66.020  1.00  0.00     0.000 HD 
BRANCH  15  17
HETATM   17  C   UNL     1      -5.791  10.957  64.773  1.00  0.00     0.182 C  
HETATM   18  H1  UNL     1      -5.780  11.042  62.684  1.00  0.00     0.000 HD 
HETATM   19  N   UNL     1      -5.470  11.460  63.560  1.00  0.00    -0.159 NA 
HETATM   20  H2  UNL     1      -4.891  12.298  63.521  1.00  0.00     0.000 HD 
ENDBRANCH  15  17
ENDBRANCH  14  15
ENDBRANCH  13  14
ENDBRANCH  12  13
ENDBRANCH   3  12
BRANCH   7  21
HETATM   21  C   UNL     1     -10.705  17.044  66.569  1.00  0.00    -0.073 C  
HETATM   22  O   UNL     1     -10.732  17.482  65.213  1.00  0.00    -0.656 OA 
HETATM   23  C   UNL     1      -9.438  17.552  67.242  1.00  0.00    -0.253 C  
HETATM   24  H   UNL     1     -10.706  18.431  65.219  1.00  0.00     0.000 HD 
ENDBRANCH   7  21
TORSDOF 6
ENDMDL
MODEL      167
REMARK 921   NORMALIZED FREE ENERGY PREDICTED BY IDOCK:   -3.37 KCAL/MOL
REMARK 922        TOTAL FREE ENERGY PREDICTED BY IDOCK:   -5.77 KCAL/MOL
REMARK 923 INTER-LIGAND FREE ENERGY PREDICTED BY IDOCK:   -4.67 KCAL/MOL
REMARK 924 INTRA-LIGAND FREE ENERGY PREDICTED BY IDOCK:   -1.10 KCAL/MOL
REMARK 927      BINDING AFFINITY PREDICTED BY RF-SCORE:    0.00 PKD
ROOT
HETATM    1  C   UNL     1      -9.364  15.171  67.320  1.00  0.00    -0.203 C  
HETATM    2  C   UNL     1     -10.566  14.857  66.439  1.00  0.00    -0.307 C  
HETATM    3  C   UNL     1     -10.749  13.372  66.631  1.00  0.00    -0.282 C  
HETATM    4  C   UNL     1      -7.686  13.937  67.530  1.00  0.00    -0.179 C  
HETATM    5  C   UNL     1      -9.824  12.881  67.477  1.00  0.00    -0.208 C  
HETATM    6  N   UNL     1      -8.983  13.877  67.961  1.00  0.00    -0.177 N  
HETATM    7  C   UNL     1      -7.921  15.233  66.736  1.00  0.00    -0.104 C  
HETATM    8  C   UNL     1      -9.605  11.448  67.868  1.00  0.00    -0.177 C  
HETATM    9  O   UNL     1      -8.545  11.253  68.685  1.00  0.00    -0.153 OA 
HETATM   10  O   UNL     1     -10.335  10.521  67.560  1.00  0.00    -0.198 OA 
HETATM   11  O   UNL     1      -6.803  13.133  67.706  1.00  0.00    -0.116 OA 
ENDROOT
BRANCH   3  12
HETATM   12  S   UNL     1     -11.906  12.578  65.639  1.00  0.00    -0.424 SA 
BRANCH  12  13
HETATM   13  C   UNL     1     -11.070  12.289  64.050  1.00  0.00    -0.386 C  
BRANCH  13  14
HETATM   14  C   UNL     1      -9.717  11.583  64.134  1.00  0.00    -0.211 C  
BRANCH  14  15
HETATM   15  N   UNL     1      -9.923  10.179  64.536  1.00  0.00    -0.369 NA 
HETATM   16  H   UNL     1     -10.837   9.797  64.776  1.00  0.00     0.000 HD 
BRANCH  15  17
HETATM   17  C   UNL     1      -8.846   9.481  64.557  1.00  0.00    -0.213 C  
HETATM   18  H1  UNL     1      -7.752   7.914  63.709  1.00  0.00     0.000 HD 
HETATM   19  N   UNL     1      -8.607   8.469  63.693  1.00  0.00    -0.416 NA 
HETATM   20  H2  UNL     1      -9.315   8.250  62.993  1.00  0.00     0.000 HD 
ENDBRANCH  15  17
ENDBRANCH  14  15
ENDBRANCH  13  14
ENDBRANCH  12  13
ENDBRANCH   3  12
BRANCH   7  21
HETATM   21  C   UNL     1      -7.078  16.426  67.147  1.00  0.00    -0.200 C  
HETATM   22  O   UNL     1      -5.895  15.924  67.763  1.00  0.00    -0.126 OA 
HETATM   23  C   UNL     1      -7.827  17.313  68.131  1.00  0.00    -0.220 C  
HETATM   24  H   UNL     1      -5.368  16.671  68.020  1.00  0.00     0.000 HD 
ENDBRANCH   7  21
TORSDOF 6
ENDMDL
MODEL      168
REMARK 921   NORMALIZED FREE ENERGY PREDICTED BY IDOCK:   -3.36 KCAL/MOL
REMARK 922        TOTAL FREE ENERGY PREDICTED BY IDOCK:   -5.76 KCAL/MOL
REMARK 923 INTER-LIGAND FREE ENERGY PREDICTED BY IDOCK:   -5.05 KCAL/MOL
REMARK 924 INTRA-LIGAND FREE ENERGY PREDICTED BY IDOCK:   -0.71 KCAL/MOL
REMARK 927      BINDING AFFINITY PREDICTED BY RF-SCORE:    0.00 PKD
ROOT
HETATM    1  C   UNL     1     -10.733  13.144  66.363  1.00  0.00    -0.284 C  
HETATM    2  C   UNL     1      -9.928  11.909  66.746  1.00  0.00    -0.215 C  
HETATM    3  C   UNL     1      -8.796  12.482  67.563  1.00  0.00    -0.184 C  
HETATM    4  C   UNL     1      -9.900  14.991  65.833  1.00  0.00    -0.338 C  
HETATM    5  C   UNL     1      -8.901  13.820  67.655  1.00  0.00    -0.189 C  
HETATM    6  N   UNL     1     -10.034  14.298  67.005  1.00  0.00    -0.254 N  
HETATM    7  C   UNL     1     -10.521  13.861  64.995  1.00  0.00    -0.428 C  
HETATM    8  C   UNL     1      -7.940  14.775  68.303  1.00  0.00    -0.130 C  
HETATM    9  O   UNL     1      -8.281  16.076  68.172  1.00  0.00    -0.148 OA 
HETATM   10  O   UNL     1      -6.967  14.446  68.962  1.00  0.00    -0.103 OA 
HETATM   11  O   UNL     1      -9.370  16.061  65.655  1.00  0.00    -0.385 OA 
ENDROOT
BRANCH   3  12
HETATM   12  S   UNL     1      -7.533  11.413  68.031  1.00  0.00    -0.106 SA 
BRANCH  12  13
HETATM   13  C   UNL     1      -8.073   9.759  67.502  1.00  0.00    -0.114 C  
BRANCH  13  14
HETATM   14  C   UNL     1      -7.508   9.274  66.167  1.00  0.00    -0.096 C  
BRANCH  14  15
HETATM   15  N   UNL     1      -8.586   8.647  65.379  1.00  0.00    -0.174 NA 
HETATM   16  H   UNL     1      -9.516   8.466  65.755  1.00  0.00     0.000 HD 
BRANCH  15  17
HETATM   17  C   UNL     1      -8.246   8.349  64.178  1.00  0.00    -0.119 C  
HETATM   18  H1  UNL     1      -8.706   8.464  62.142  1.00  0.00     0.000 HD 
HETATM   19  N   UNL     1      -8.976   8.701  63.096  1.00  0.00    -0.338 NA 
HETATM   20  H2  UNL     1      -9.836   9.227  63.242  1.00  0.00     0.000 HD 
ENDBRANCH  15  17
ENDBRANCH  14  15
ENDBRANCH  13  14
ENDBRANCH  12  13
ENDBRANCH   3  12
BRANCH   7  21
HETATM   21  C   UNL     1     -11.777  14.220  64.222  1.00  0.00    -0.329 C  
HETATM   22  O   UNL     1     -11.769  15.631  64.022  1.00  0.00    -0.899 OA 
HETATM   23  C   UNL     1     -13.028  13.823  64.993  1.00  0.00    -0.213 C  
HETATM   24  H   UNL     1     -12.555  15.856  63.538  1.00  0.00     0.000 HD 
ENDBRANCH   7  21
TORSDOF 6
ENDMDL
MODEL      169
REMARK 921   NORMALIZED FREE ENERGY PREDICTED BY IDOCK:   -3.36 KCAL/MOL
REMARK 922        TOTAL FREE ENERGY PREDICTED BY IDOCK:   -5.75 KCAL/MOL
REMARK 923 INTER-LIGAND FREE ENERGY PREDICTED BY IDOCK:   -5.00 KCAL/MOL
REMARK 924 INTRA-LIGAND FREE ENERGY PREDICTED BY IDOCK:   -0.75 KCAL/MOL
REMARK 927      BINDING AFFINITY PREDICTED BY RF-SCORE:    0.00 PKD
ROOT
HETATM    1  C   UNL     1      -8.495  14.226  67.379  1.00  0.00    -0.203 C  
HETATM    2  C   UNL     1      -8.564  12.735  67.685  1.00  0.00    -0.181 C  
HETATM    3  C   UNL     1      -9.846  12.310  67.013  1.00  0.00    -0.205 C  
HETATM    4  C   UNL     1     -10.142  15.519  67.371  1.00  0.00    -0.246 C  
HETATM    5  C   UNL     1     -10.440  13.356  66.409  1.00  0.00    -0.286 C  
HETATM    6  N   UNL     1      -9.697  14.524  66.543  1.00  0.00    -0.273 N  
HETATM    7  C   UNL     1      -9.016  15.290  68.392  1.00  0.00    -0.184 C  
HETATM    8  C   UNL     1     -11.766  13.379  65.704  1.00  0.00    -0.346 C  
HETATM    9  O   UNL     1     -12.134  14.600  65.258  1.00  0.00    -0.347 OA 
HETATM   10  O   UNL     1     -12.447  12.395  65.467  1.00  0.00    -0.643 OA 
HETATM   11  O   UNL     1     -11.140  16.189  67.262  1.00  0.00    -0.231 OA 
ENDROOT
BRANCH   3  12
HETATM   12  S   UNL     1     -10.395  10.705  67.291  1.00  0.00    -0.234 SA 
BRANCH  12  13
HETATM   13  C   UNL     1     -10.121   9.818  65.728  1.00  0.00    -0.238 C  
BRANCH  13  14
HETATM   14  C   UNL     1      -8.860   8.956  65.670  1.00  0.00    -0.191 C  
BRANCH  14  15
HETATM   15  N   UNL     1      -7.701   9.806  65.338  1.00  0.00    -0.117 NA 
HETATM   16  H   UNL     1      -7.390  10.577  65.928  1.00  0.00     0.000 HD 
BRANCH  15  17
HETATM   17  C   UNL     1      -7.121   9.488  64.238  1.00  0.00    -0.108 C  
HETATM   18  H1  UNL     1      -6.212  10.150  62.476  1.00  0.00     0.000 HD 
HETATM   19  N   UNL     1      -6.673  10.402  63.349  1.00  0.00    -0.298 NA 
HETATM   20  H2  UNL     1      -6.803  11.391  63.562  1.00  0.00     0.000 HD 
ENDBRANCH  15  17
ENDBRANCH  14  15
ENDBRANCH  13  14
ENDBRANCH  12  13
ENDBRANCH   3  12
BRANCH   7  21
HETATM   21  C   UNL     1      -8.104  16.476  68.652  1.00  0.00    -0.233 C  
HETATM   22  O   UNL     1      -8.893  17.657  68.535  1.00  0.00    -0.280 OA 
HETATM   23  C   UNL     1      -6.965  16.523  67.643  1.00  0.00    -0.158 C  
HETATM   24  H   UNL     1      -8.322  18.399  68.698  1.00  0.00     0.000 HD 
ENDBRANCH   7  21
TORSDOF 6
ENDMDL
MODEL      170
REMARK 921   NORMALIZED FREE ENERGY PREDICTED BY IDOCK:   -3.35 KCAL/MOL
REMARK 922        TOTAL FREE ENERGY PREDICTED BY IDOCK:   -5.74 KCAL/MOL
REMARK 923 INTER-LIGAND FREE ENERGY PREDICTED BY IDOCK:   -5.08 KCAL/MOL
REMARK 924 INTRA-LIGAND FREE ENERGY PREDICTED BY IDOCK:   -0.66 KCAL/MOL
REMARK 927      BINDING AFFINITY PREDICTED BY RF-SCORE:    0.00 PKD
ROOT
HETATM    1  C   UNL     1     -10.563   5.285  70.108  1.00  0.00    -0.227 C  
HETATM    2  C   UNL     1     -11.433   6.006  71.130  1.00  0.00    -0.246 C  
HETATM    3  C   UNL     1     -10.951   7.432  71.039  1.00  0.00    -0.251 C  
HETATM    4  C   UNL     1      -8.531   5.676  69.785  1.00  0.00    -0.107 C  
HETATM    5  C   UNL     1      -9.968   7.550  70.127  1.00  0.00    -0.192 C  
HETATM    6  N   UNL     1      -9.695   6.338  69.501  1.00  0.00    -0.145 N  
HETATM    7  C   UNL     1      -9.258   4.543  70.528  1.00  0.00    -0.190 C  
HETATM    8  C   UNL     1      -9.165   8.774  69.793  1.00  0.00    -0.155 C  
HETATM    9  O   UNL     1      -8.192   8.564  68.879  1.00  0.00    -0.114 OA 
HETATM   10  O   UNL     1      -9.383   9.892  70.229  1.00  0.00    -0.225 OA 
HETATM   11  O   UNL     1      -7.399   6.027  69.559  1.00  0.00    -0.072 OA 
ENDROOT
BRANCH   3  12
HETATM   12  S   UNL     1     -11.560   8.552  72.193  1.00  0.00    -0.379 SA 
BRANCH  12  13
HETATM   13  C   UNL     1     -13.007   9.322  71.407  1.00  0.00    -0.326 C  
BRANCH  13  14
HETATM   14  C   UNL     1     -12.761  10.685  70.760  1.00  0.00    -0.378 C  
BRANCH  14  15
HETATM   15  N   UNL     1     -12.464  10.499  69.327  1.00  0.00    -0.717 NA 
HETATM   16  H   UNL     1     -12.759   9.677  68.800  1.00  0.00     0.000 HD 
BRANCH  15  17
HETATM   17  C   UNL     1     -11.801  11.465  68.803  1.00  0.00    -0.323 C  
HETATM   18  H1  UNL     1     -11.407  12.602  67.094  1.00  0.00     0.000 HD 
HETATM   19  N   UNL     1     -11.934  11.835  67.510  1.00  0.00    -0.607 NA 
HETATM   20  H2  UNL     1     -12.592  11.323  66.924  1.00  0.00     0.000 HD 
ENDBRANCH  15  17
ENDBRANCH  14  15
ENDBRANCH  13  14
ENDBRANCH  12  13
ENDBRANCH   3  12
BRANCH   7  21
HETATM   21  C   UNL     1      -9.065   3.148  69.964  1.00  0.00    -0.127 C  
HETATM   22  O   UNL     1      -9.658   3.122  68.668  1.00  0.00    -0.164 OA 
HETATM   23  C   UNL     1      -9.730   2.102  70.848  1.00  0.00    -0.132 C  
HETATM   24  H   UNL     1      -9.537   2.249  68.315  1.00  0.00     0.000 HD 
ENDBRANCH   7  21
TORSDOF 6
ENDMDL
MODEL      171
REMARK 921   NORMALIZED FREE ENERGY PREDICTED BY IDOCK:   -3.34 KCAL/MOL
REMARK 922        TOTAL FREE ENERGY PREDICTED BY IDOCK:   -5.73 KCAL/MOL
REMARK 923 INTER-LIGAND FREE ENERGY PREDICTED BY IDOCK:   -4.96 KCAL/MOL
REMARK 924 INTRA-LIGAND FREE ENERGY PREDICTED BY IDOCK:   -0.77 KCAL/MOL
REMARK 927      BINDING AFFINITY PREDICTED BY RF-SCORE:    0.00 PKD
ROOT
HETATM    1  C   UNL     1      -9.858  12.711  67.125  1.00  0.00    -0.212 C  
HETATM    2  C   UNL     1      -8.977  11.544  67.552  1.00  0.00    -0.159 C  
HETATM    3  C   UNL     1      -8.913  10.694  66.308  1.00  0.00    -0.165 C  
HETATM    4  C   UNL     1     -11.544  12.543  65.893  1.00  0.00    -0.405 C  
HETATM    5  C   UNL     1      -9.626  11.249  65.310  1.00  0.00    -0.232 C  
HETATM    6  N   UNL     1     -10.192  12.461  65.690  1.00  0.00    -0.258 N  
HETATM    7  C   UNL     1     -11.390  12.723  67.412  1.00  0.00    -0.363 C  
HETATM    8  C   UNL     1      -9.887  10.686  63.943  1.00  0.00    -0.338 C  
HETATM    9  O   UNL     1     -10.704  11.445  63.180  1.00  0.00    -0.304 OA 
HETATM   10  O   UNL     1      -9.371   9.675  63.495  1.00  0.00    -0.206 OA 
HETATM   11  O   UNL     1     -12.429  12.404  65.085  1.00  0.00    -0.583 OA 
ENDROOT
BRANCH   3  12
HETATM   12  S   UNL     1      -8.157   9.155  66.435  1.00  0.00    -0.108 SA 
BRANCH  12  13
HETATM   13  C   UNL     1      -7.400   9.119  68.087  1.00  0.00    -0.079 C  
BRANCH  13  14
HETATM   14  C   UNL     1      -5.947   9.586  68.159  1.00  0.00    -0.047 C  
BRANCH  14  15
HETATM   15  N   UNL     1      -5.572   9.803  69.569  1.00  0.00    -0.034 NA 
HETATM   16  H   UNL     1      -4.692   9.475  69.967  1.00  0.00     0.000 HD 
BRANCH  15  17
HETATM   17  C   UNL     1      -6.453  10.440  70.250  1.00  0.00    -0.141 C  
HETATM   18  H1  UNL     1      -7.238  12.296  70.808  1.00  0.00     0.000 HD 
HETATM   19  N   UNL     1      -6.539  11.789  70.266  1.00  0.00    -0.491 NA 
HETATM   20  H2  UNL     1      -5.871  12.325  69.712  1.00  0.00     0.000 HD 
ENDBRANCH  15  17
ENDBRANCH  14  15
ENDBRANCH  13  14
ENDBRANCH  12  13
ENDBRANCH   3  12
BRANCH   7  21
HETATM   21  C   UNL     1     -11.957  14.007  67.990  1.00  0.00    -0.350 C  
HETATM   22  O   UNL     1     -12.905  14.516  67.056  1.00  0.00    -0.224 OA 
HETATM   23  C   UNL     1     -10.860  15.038  68.214  1.00  0.00    -0.259 C  
HETATM   24  H   UNL     1     -13.260  15.319  67.417  1.00  0.00     0.000 HD 
ENDBRANCH   7  21
TORSDOF 6
ENDMDL
MODEL      172
REMARK 921   NORMALIZED FREE ENERGY PREDICTED BY IDOCK:   -3.34 KCAL/MOL
REMARK 922        TOTAL FREE ENERGY PREDICTED BY IDOCK:   -5.73 KCAL/MOL
REMARK 923 INTER-LIGAND FREE ENERGY PREDICTED BY IDOCK:   -5.25 KCAL/MOL
REMARK 924 INTRA-LIGAND FREE ENERGY PREDICTED BY IDOCK:   -0.47 KCAL/MOL
REMARK 927      BINDING AFFINITY PREDICTED BY RF-SCORE:    0.00 PKD
ROOT
HETATM    1  C   UNL     1      -9.719  12.231  67.177  1.00  0.00    -0.201 C  
HETATM    2  C   UNL     1      -9.666  13.628  66.571  1.00  0.00    -0.298 C  
HETATM    3  C   UNL     1     -10.497  14.444  67.529  1.00  0.00    -0.252 C  
HETATM    4  C   UNL     1     -11.415  11.381  68.066  1.00  0.00    -0.307 C  
HETATM    5  C   UNL     1     -10.966  13.678  68.531  1.00  0.00    -0.267 C  
HETATM    6  N   UNL     1     -10.530  12.362  68.425  1.00  0.00    -0.230 N  
HETATM    7  C   UNL     1     -10.756  11.173  66.692  1.00  0.00    -0.322 C  
HETATM    8  C   UNL     1     -11.896  14.081  69.639  1.00  0.00    -0.330 C  
HETATM    9  O   UNL     1     -12.249  13.068  70.461  1.00  0.00    -0.357 OA 
HETATM   10  O   UNL     1     -12.266  15.223  69.859  1.00  0.00    -0.329 OA 
HETATM   11  O   UNL     1     -12.383  10.992  68.672  1.00  0.00    -0.539 OA 
ENDROOT
BRANCH   3  12
HETATM   12  S   UNL     1     -10.850  16.069  67.089  1.00  0.00    -0.178 SA 
BRANCH  12  13
HETATM   13  C   UNL     1      -9.859  17.103  68.208  1.00  0.00    -0.288 C  
BRANCH  13  14
HETATM   14  C   UNL     1      -8.358  16.816  68.217  1.00  0.00    -0.213 C  
BRANCH  14  15
HETATM   15  N   UNL     1      -8.059  15.810  69.254  1.00  0.00    -0.235 NA 
HETATM   16  H   UNL     1      -8.746  15.136  69.590  1.00  0.00     0.000 HD 
BRANCH  15  17
HETATM   17  C   UNL     1      -6.855  15.860  69.696  1.00  0.00    -0.160 C  
HETATM   18  H1  UNL     1      -5.390  14.989  70.907  1.00  0.00     0.000 HD 
HETATM   19  N   UNL     1      -6.346  14.950  70.556  1.00  0.00    -0.106 NA 
HETATM   20  H2  UNL     1      -6.947  14.188  70.868  1.00  0.00     0.000 HD 
ENDBRANCH  15  17
ENDBRANCH  14  15
ENDBRANCH  13  14
ENDBRANCH  12  13
ENDBRANCH   3  12
BRANCH   7  21
HETATM   21  C   UNL     1     -10.219   9.780  66.418  1.00  0.00    -0.217 C  
HETATM   22  O   UNL     1      -9.510   9.357  67.580  1.00  0.00    -0.131 OA 
HETATM   23  C   UNL     1      -9.278   9.781  65.221  1.00  0.00    -0.294 C  
HETATM   24  H   UNL     1      -9.174   8.485  67.409  1.00  0.00     0.000 HD 
ENDBRANCH   7  21
TORSDOF 6
ENDMDL
MODEL      173
REMARK 921   NORMALIZED FREE ENERGY PREDICTED BY IDOCK:   -3.32 KCAL/MOL
REMARK 922        TOTAL FREE ENERGY PREDICTED BY IDOCK:   -5.70 KCAL/MOL
REMARK 923 INTER-LIGAND FREE ENERGY PREDICTED BY IDOCK:   -5.31 KCAL/MOL
REMARK 924 INTRA-LIGAND FREE ENERGY PREDICTED BY IDOCK:   -0.39 KCAL/MOL
REMARK 927      BINDING AFFINITY PREDICTED BY RF-SCORE:    0.00 PKD
ROOT
HETATM    1  C   UNL     1     -10.071  13.340  67.129  1.00  0.00    -0.239 C  
HETATM    2  C   UNL     1      -9.429  11.989  66.842  1.00  0.00    -0.206 C  
HETATM    3  C   UNL     1      -9.958  11.646  65.472  1.00  0.00    -0.242 C  
HETATM    4  C   UNL     1     -12.033  13.861  66.613  1.00  0.00    -0.442 C  
HETATM    5  C   UNL     1     -10.772  12.617  65.015  1.00  0.00    -0.293 C  
HETATM    6  N   UNL     1     -10.872  13.674  65.913  1.00  0.00    -0.274 N  
HETATM    7  C   UNL     1     -11.391  13.456  67.950  1.00  0.00    -0.322 C  
HETATM    8  C   UNL     1     -11.564  12.628  63.740  1.00  0.00    -0.476 C  
HETATM    9  O   UNL     1     -12.352  13.716  63.588  1.00  0.00    -0.691 OA 
HETATM   10  O   UNL     1     -11.481  11.788  62.859  1.00  0.00    -0.017 OA 
HETATM   11  O   UNL     1     -13.124  14.146  66.185  1.00  0.00    -0.159 OA 
ENDROOT
BRANCH   3  12
HETATM   12  S   UNL     1      -9.615  10.078  64.856  1.00  0.00    -0.294 SA 
BRANCH  12  13
HETATM   13  C   UNL     1      -9.282   9.045  66.314  1.00  0.00    -0.206 C  
BRANCH  13  14
HETATM   14  C   UNL     1      -7.829   8.609  66.497  1.00  0.00    -0.099 C  
BRANCH  14  15
HETATM   15  N   UNL     1      -7.370   7.910  65.282  1.00  0.00    -0.071 NA 
HETATM   16  H   UNL     1      -7.412   8.327  64.352  1.00  0.00     0.000 HD 
BRANCH  15  17
HETATM   17  C   UNL     1      -6.916   6.730  65.500  1.00  0.00    -0.063 C  
HETATM   18  H1  UNL     1      -5.642   5.520  66.633  1.00  0.00     0.000 HD 
HETATM   19  N   UNL     1      -6.004   6.457  66.460  1.00  0.00    -0.027 NA 
HETATM   20  H2  UNL     1      -5.661   7.225  67.036  1.00  0.00     0.000 HD 
ENDBRANCH  15  17
ENDBRANCH  14  15
ENDBRANCH  13  14
ENDBRANCH  12  13
ENDBRANCH   3  12
BRANCH   7  21
HETATM   21  C   UNL     1     -11.414  14.509  69.044  1.00  0.00    -0.290 C  
HETATM   22  O   UNL     1     -12.761  14.635  69.489  1.00  0.00    -0.576 OA 
HETATM   23  C   UNL     1     -10.922  15.852  68.522  1.00  0.00    -0.324 C  
HETATM   24  H   UNL     1     -12.775  15.294  70.174  1.00  0.00     0.000 HD 
ENDBRANCH   7  21
TORSDOF 6
ENDMDL
MODEL      174
REMARK 921   NORMALIZED FREE ENERGY PREDICTED BY IDOCK:   -3.31 KCAL/MOL
REMARK 922        TOTAL FREE ENERGY PREDICTED BY IDOCK:   -5.69 KCAL/MOL
REMARK 923 INTER-LIGAND FREE ENERGY PREDICTED BY IDOCK:   -5.22 KCAL/MOL
REMARK 924 INTRA-LIGAND FREE ENERGY PREDICTED BY IDOCK:   -0.47 KCAL/MOL
REMARK 927      BINDING AFFINITY PREDICTED BY RF-SCORE:    0.00 PKD
ROOT
HETATM    1  C   UNL     1      -9.994   8.282  72.217  1.00  0.00    -0.296 C  
HETATM    2  C   UNL     1      -9.127   8.764  71.061  1.00  0.00    -0.272 C  
HETATM    3  C   UNL     1     -10.072   9.633  70.268  1.00  0.00    -0.275 C  
HETATM    4  C   UNL     1     -12.010   7.741  72.050  1.00  0.00    -0.308 C  
HETATM    5  C   UNL     1     -11.288   9.669  70.844  1.00  0.00    -0.360 C  
HETATM    6  N   UNL     1     -11.327   8.927  72.019  1.00  0.00    -0.368 N  
HETATM    7  C   UNL     1     -10.724   6.906  72.169  1.00  0.00    -0.248 C  
HETATM    8  C   UNL     1     -12.527  10.344  70.332  1.00  0.00    -0.268 C  
HETATM    9  O   UNL     1     -13.623  10.142  71.098  1.00  0.00    -0.284 OA 
HETATM   10  O   UNL     1     -12.571  11.079  69.359  1.00  0.00    -0.331 OA 
HETATM   11  O   UNL     1     -13.196   7.560  71.918  1.00  0.00    -0.310 OA 
ENDROOT
BRANCH   3  12
HETATM   12  S   UNL     1      -9.523  10.224  68.750  1.00  0.00    -0.185 SA 
BRANCH  12  13
HETATM   13  C   UNL     1     -10.109   9.021  67.518  1.00  0.00    -0.228 C  
BRANCH  13  14
HETATM   14  C   UNL     1      -9.863   9.398  66.058  1.00  0.00    -0.296 C  
BRANCH  14  15
HETATM   15  N   UNL     1      -8.456   9.806  65.888  1.00  0.00    -0.126 NA 
HETATM   16  H   UNL     1      -8.127  10.755  66.068  1.00  0.00     0.000 HD 
BRANCH  15  17
HETATM   17  C   UNL     1      -7.684   8.861  65.493  1.00  0.00    -0.088 C  
HETATM   18  H1  UNL     1      -7.499   7.074  64.423  1.00  0.00     0.000 HD 
HETATM   19  N   UNL     1      -8.112   7.825  64.737  1.00  0.00    -0.182 NA 
HETATM   20  H2  UNL     1      -9.095   7.795  64.469  1.00  0.00     0.000 HD 
ENDBRANCH  15  17
ENDBRANCH  14  15
ENDBRANCH  13  14
ENDBRANCH  12  13
ENDBRANCH   3  12
BRANCH   7  21
HETATM   21  C   UNL     1     -10.608   6.038  73.408  1.00  0.00    -0.260 C  
HETATM   22  O   UNL     1      -9.225   5.755  73.605  1.00  0.00    -0.131 OA 
HETATM   23  C   UNL     1     -11.374   4.734  73.237  1.00  0.00    -0.408 C  
HETATM   24  H   UNL     1      -9.153   5.211  74.381  1.00  0.00     0.000 HD 
ENDBRANCH   7  21
TORSDOF 6
ENDMDL
MODEL      175
REMARK 921   NORMALIZED FREE ENERGY PREDICTED BY IDOCK:   -3.30 KCAL/MOL
REMARK 922        TOTAL FREE ENERGY PREDICTED BY IDOCK:   -5.66 KCAL/MOL
REMARK 923 INTER-LIGAND FREE ENERGY PREDICTED BY IDOCK:   -5.07 KCAL/MOL
REMARK 924 INTRA-LIGAND FREE ENERGY PREDICTED BY IDOCK:   -0.60 KCAL/MOL
REMARK 927      BINDING AFFINITY PREDICTED BY RF-SCORE:    0.00 PKD
ROOT
HETATM    1  C   UNL     1      -7.751  13.395  67.977  1.00  0.00    -0.147 C  
HETATM    2  C   UNL     1      -8.013  11.941  68.350  1.00  0.00    -0.154 C  
HETATM    3  C   UNL     1      -9.459  11.747  67.967  1.00  0.00    -0.188 C  
HETATM    4  C   UNL     1      -9.117  14.959  68.249  1.00  0.00    -0.179 C  
HETATM    5  C   UNL     1      -9.975  12.880  67.454  1.00  0.00    -0.217 C  
HETATM    6  N   UNL     1      -9.029  13.898  67.389  1.00  0.00    -0.199 N  
HETATM    7  C   UNL     1      -7.861  14.538  69.031  1.00  0.00    -0.106 C  
HETATM    8  C   UNL     1     -11.392  13.134  67.030  1.00  0.00    -0.312 C  
HETATM    9  O   UNL     1     -11.628  14.400  66.619  1.00  0.00    -0.357 OA 
HETATM   10  O   UNL     1     -12.267  12.286  66.975  1.00  0.00    -0.522 OA 
HETATM   11  O   UNL     1      -9.985  15.794  68.317  1.00  0.00    -0.218 OA 
ENDROOT
BRANCH   3  12
HETATM   12  S   UNL     1     -10.208  10.266  68.414  1.00  0.00    -0.176 SA 
BRANCH  12  13
HETATM   13  C   UNL     1      -9.451   9.795  69.998  1.00  0.00    -0.238 C  
BRANCH  13  14
HETATM   14  C   UNL     1     -10.428   9.447  71.120  1.00  0.00    -0.322 C  
BRANCH  14  15
HETATM   15  N   UNL     1     -11.630   8.817  70.544  1.00  0.00    -0.421 NA 
HETATM   16  H   UNL     1     -12.410   9.353  70.163  1.00  0.00     0.000 HD 
BRANCH  15  17
HETATM   17  C   UNL     1     -11.607   7.534  70.564  1.00  0.00    -0.200 C  
HETATM   18  H1  UNL     1     -11.641   5.758  69.462  1.00  0.00     0.000 HD 
HETATM   19  N   UNL     1     -11.659   6.777  69.446  1.00  0.00    -0.624 NA 
HETATM   20  H2  UNL     1     -11.720   7.248  68.544  1.00  0.00     0.000 HD 
ENDBRANCH  15  17
ENDBRANCH  14  15
ENDBRANCH  13  14
ENDBRANCH  12  13
ENDBRANCH   3  12
BRANCH   7  21
HETATM   21  C   UNL     1      -6.725  15.544  69.054  1.00  0.00    -0.131 C  
HETATM   22  O   UNL     1      -7.260  16.785  69.507  1.00  0.00    -0.179 OA 
HETATM   23  C   UNL     1      -6.124  15.725  67.667  1.00  0.00    -0.179 C  
HETATM   24  H   UNL     1      -6.549  17.414  69.522  1.00  0.00     0.000 HD 
ENDBRANCH   7  21
TORSDOF 6
ENDMDL
MODEL      176
REMARK 921   NORMALIZED FREE ENERGY PREDICTED BY IDOCK:   -3.29 KCAL/MOL
REMARK 922        TOTAL FREE ENERGY PREDICTED BY IDOCK:   -5.66 KCAL/MOL
REMARK 923 INTER-LIGAND FREE ENERGY PREDICTED BY IDOCK:   -4.89 KCAL/MOL
REMARK 924 INTRA-LIGAND FREE ENERGY PREDICTED BY IDOCK:   -0.77 KCAL/MOL
REMARK 927      BINDING AFFINITY PREDICTED BY RF-SCORE:    0.00 PKD
ROOT
HETATM    1  C   UNL     1      -9.163  15.353  67.289  1.00  0.00    -0.207 C  
HETATM    2  C   UNL     1      -8.484  14.003  67.096  1.00  0.00    -0.207 C  
HETATM    3  C   UNL     1      -9.379  13.061  67.861  1.00  0.00    -0.212 C  
HETATM    4  C   UNL     1     -10.063  15.991  69.069  1.00  0.00    -0.239 C  
HETATM    5  C   UNL     1     -10.412  13.723  68.414  1.00  0.00    -0.252 C  
HETATM    6  N   UNL     1     -10.386  15.078  68.101  1.00  0.00    -0.237 N  
HETATM    7  C   UNL     1      -8.716  16.336  68.412  1.00  0.00    -0.205 C  
HETATM    8  C   UNL     1     -11.478  13.174  69.318  1.00  0.00    -0.291 C  
HETATM    9  O   UNL     1     -12.346  14.103  69.777  1.00  0.00    -0.336 OA 
HETATM   10  O   UNL     1     -11.628  11.993  69.582  1.00  0.00    -0.296 OA 
HETATM   11  O   UNL     1     -10.670  16.254  70.078  1.00  0.00    -0.321 OA 
ENDROOT
BRANCH   3  12
HETATM   12  S   UNL     1      -8.845  11.438  68.053  1.00  0.00    -0.162 SA 
BRANCH  12  13
HETATM   13  C   UNL     1      -9.924  10.440  66.983  1.00  0.00    -0.206 C  
BRANCH  13  14
HETATM   14  C   UNL     1      -9.208   9.551  65.967  1.00  0.00    -0.196 C  
BRANCH  14  15
HETATM   15  N   UNL     1      -8.518  10.398  64.976  1.00  0.00    -0.174 NA 
HETATM   16  H   UNL     1      -8.924  11.254  64.598  1.00  0.00     0.000 HD 
BRANCH  15  17
HETATM   17  C   UNL     1      -7.362   9.961  64.632  1.00  0.00    -0.140 C  
HETATM   18  H1  UNL     1      -5.299  10.300  64.583  1.00  0.00     0.000 HD 
HETATM   19  N   UNL     1      -6.218  10.646  64.856  1.00  0.00    -0.349 NA 
HETATM   20  H2  UNL     1      -6.278  11.552  65.319  1.00  0.00     0.000 HD 
ENDBRANCH  15  17
ENDBRANCH  14  15
ENDBRANCH  13  14
ENDBRANCH  12  13
ENDBRANCH   3  12
BRANCH   7  21
HETATM   21  C   UNL     1      -8.528  17.786  68.004  1.00  0.00    -0.253 C  
HETATM   22  O   UNL     1      -9.561  18.544  68.627  1.00  0.00    -0.331 OA 
HETATM   23  C   UNL     1      -8.620  17.946  66.493  1.00  0.00    -0.279 C  
HETATM   24  H   UNL     1      -9.443  19.451  68.372  1.00  0.00     0.000 HD 
ENDBRANCH   7  21
TORSDOF 6
ENDMDL
MODEL      177
REMARK 921   NORMALIZED FREE ENERGY PREDICTED BY IDOCK:   -3.26 KCAL/MOL
REMARK 922        TOTAL FREE ENERGY PREDICTED BY IDOCK:   -5.61 KCAL/MOL
REMARK 923 INTER-LIGAND FREE ENERGY PREDICTED BY IDOCK:   -4.88 KCAL/MOL
REMARK 924 INTRA-LIGAND FREE ENERGY PREDICTED BY IDOCK:   -0.74 KCAL/MOL
REMARK 927      BINDING AFFINITY PREDICTED BY RF-SCORE:    0.00 PKD
ROOT
HETATM    1  C   UNL     1      -7.583   8.394  68.003  1.00  0.00    -0.098 C  
HETATM    2  C   UNL     1      -7.493   8.338  69.523  1.00  0.00    -0.086 C  
HETATM    3  C   UNL     1      -8.707   7.529  69.905  1.00  0.00    -0.140 C  
HETATM    4  C   UNL     1      -9.363   8.619  66.922  1.00  0.00    -0.170 C  
HETATM    5  C   UNL     1      -9.403   7.163  68.812  1.00  0.00    -0.135 C  
HETATM    6  N   UNL     1      -8.795   7.601  67.640  1.00  0.00    -0.125 N  
HETATM    7  C   UNL     1      -8.236   9.605  67.270  1.00  0.00    -0.114 C  
HETATM    8  C   UNL     1     -10.710   6.426  68.759  1.00  0.00    -0.287 C  
HETATM    9  O   UNL     1     -11.203   6.265  67.511  1.00  0.00    -0.328 OA 
HETATM   10  O   UNL     1     -11.274   5.936  69.723  1.00  0.00    -0.389 OA 
HETATM   11  O   UNL     1     -10.426   8.627  66.352  1.00  0.00    -0.205 OA 
ENDROOT
BRANCH   3  12
HETATM   12  S   UNL     1      -9.081   7.398  71.578  1.00  0.00    -0.139 SA 
BRANCH  12  13
HETATM   13  C   UNL     1     -10.251   8.746  71.922  1.00  0.00    -0.345 C  
BRANCH  13  14
HETATM   14  C   UNL     1     -11.448   8.375  72.798  1.00  0.00    -0.165 C  
BRANCH  14  15
HETATM   15  N   UNL     1     -12.459   7.684  71.977  1.00  0.00    -0.402 NA 
HETATM   16  H   UNL     1     -12.289   6.787  71.522  1.00  0.00     0.000 HD 
BRANCH  15  17
HETATM   17  C   UNL     1     -13.574   8.313  71.886  1.00  0.00    -0.357 C  
HETATM   18  H1  UNL     1     -15.229   9.109  72.885  1.00  0.00     0.000 HD 
HETATM   19  N   UNL     1     -14.344   8.609  72.957  1.00  0.00    -1.094 NA 
HETATM   20  H2  UNL     1     -14.023   8.319  73.880  1.00  0.00     0.000 HD 
ENDBRANCH  15  17
ENDBRANCH  14  15
ENDBRANCH  13  14
ENDBRANCH  12  13
ENDBRANCH   3  12
BRANCH   7  21
HETATM   21  C   UNL     1      -7.465  10.176  66.094  1.00  0.00    -0.115 C  
HETATM   22  O   UNL     1      -6.717   9.111  65.513  1.00  0.00    -0.071 OA 
HETATM   23  C   UNL     1      -6.517  11.278  66.543  1.00  0.00    -0.111 C  
HETATM   24  H   UNL     1      -6.236   9.468  64.777  1.00  0.00     0.000 HD 
ENDBRANCH   7  21
TORSDOF 6
ENDMDL
MODEL      178
REMARK 921   NORMALIZED FREE ENERGY PREDICTED BY IDOCK:   -3.23 KCAL/MOL
REMARK 922        TOTAL FREE ENERGY PREDICTED BY IDOCK:   -5.58 KCAL/MOL
REMARK 923 INTER-LIGAND FREE ENERGY PREDICTED BY IDOCK:   -5.12 KCAL/MOL
REMARK 924 INTRA-LIGAND FREE ENERGY PREDICTED BY IDOCK:   -0.46 KCAL/MOL
REMARK 927      BINDING AFFINITY PREDICTED BY RF-SCORE:    0.00 PKD
ROOT
HETATM    1  C   UNL     1      -9.700   9.285  66.426  1.00  0.00    -0.258 C  
HETATM    2  C   UNL     1      -9.628   8.806  67.870  1.00  0.00    -0.169 C  
HETATM    3  C   UNL     1     -10.483   9.809  68.604  1.00  0.00    -0.208 C  
HETATM    4  C   UNL     1      -9.683  11.294  65.835  1.00  0.00    -0.224 C  
HETATM    5  C   UNL     1     -10.982  10.726  67.754  1.00  0.00    -0.297 C  
HETATM    6  N   UNL     1     -10.600  10.477  66.440  1.00  0.00    -0.190 N  
HETATM    7  C   UNL     1      -8.599  10.204  65.817  1.00  0.00    -0.159 C  
HETATM    8  C   UNL     1     -11.806  11.936  68.088  1.00  0.00    -0.270 C  
HETATM    9  O   UNL     1     -12.100  12.715  67.023  1.00  0.00    -0.480 OA 
HETATM   10  O   UNL     1     -12.254  12.192  69.193  1.00  0.00    -0.202 OA 
HETATM   11  O   UNL     1      -9.792  12.464  65.562  1.00  0.00    -0.253 OA 
ENDROOT
BRANCH   3  12
HETATM   12  S   UNL     1     -10.504   9.732  70.321  1.00  0.00    -0.301 SA 
BRANCH  12  13
HETATM   13  C   UNL     1      -9.387   8.366  70.761  1.00  0.00    -0.163 C  
BRANCH  13  14
HETATM   14  C   UNL     1     -10.062   7.115  71.323  1.00  0.00    -0.189 C  
BRANCH  14  15
HETATM   15  N   UNL     1     -11.307   6.854  70.576  1.00  0.00    -0.307 NA 
HETATM   16  H   UNL     1     -12.207   7.257  70.837  1.00  0.00     0.000 HD 
BRANCH  15  17
HETATM   17  C   UNL     1     -11.156   6.073  69.570  1.00  0.00    -0.398 C  
HETATM   18  H1  UNL     1     -10.091   4.486  68.721  1.00  0.00     0.000 HD 
HETATM   19  N   UNL     1     -10.212   5.106  69.521  1.00  0.00    -0.251 NA 
HETATM   20  H2  UNL     1      -9.592   4.993  70.322  1.00  0.00     0.000 HD 
ENDBRANCH  15  17
ENDBRANCH  14  15
ENDBRANCH  13  14
ENDBRANCH  12  13
ENDBRANCH   3  12
BRANCH   7  21
HETATM   21  C   UNL     1      -8.074   9.811  64.448  1.00  0.00    -0.150 C  
HETATM   22  O   UNL     1      -6.958  10.648  64.160  1.00  0.00    -0.346 OA 
HETATM   23  C   UNL     1      -9.141   9.999  63.378  1.00  0.00    -0.301 C  
HETATM   24  H   UNL     1      -6.630  10.401  63.303  1.00  0.00     0.000 HD 
ENDBRANCH   7  21
TORSDOF 6
ENDMDL
MODEL      179
REMARK 921   NORMALIZED FREE ENERGY PREDICTED BY IDOCK:   -3.22 KCAL/MOL
REMARK 922        TOTAL FREE ENERGY PREDICTED BY IDOCK:   -5.56 KCAL/MOL
REMARK 923 INTER-LIGAND FREE ENERGY PREDICTED BY IDOCK:   -5.28 KCAL/MOL
REMARK 924 INTRA-LIGAND FREE ENERGY PREDICTED BY IDOCK:   -0.29 KCAL/MOL
REMARK 927      BINDING AFFINITY PREDICTED BY RF-SCORE:    0.00 PKD
ROOT
HETATM    1  C   UNL     1     -11.416   7.243  70.441  1.00  0.00    -0.248 C  
HETATM    2  C   UNL     1     -11.056   8.458  69.596  1.00  0.00    -0.011 C  
HETATM    3  C   UNL     1     -10.513   7.842  68.330  1.00  0.00    -0.166 C  
HETATM    4  C   UNL     1     -10.283   5.485  70.545  1.00  0.00    -0.242 C  
HETATM    5  C   UNL     1     -10.543   6.498  68.400  1.00  0.00    -0.246 C  
HETATM    6  N   UNL     1     -11.092   6.053  69.598  1.00  0.00    -0.400 N  
HETATM    7  C   UNL     1     -10.433   6.674  71.508  1.00  0.00    -0.242 C  
HETATM    8  C   UNL     1     -10.020   5.513  67.394  1.00  0.00    -0.162 C  
HETATM    9  O   UNL     1     -10.127   4.222  67.778  1.00  0.00    -0.060 OA 
HETATM   10  O   UNL     1      -9.598   5.804  66.288  1.00  0.00    -0.157 OA 
HETATM   11  O   UNL     1      -9.657   4.456  70.471  1.00  0.00    -0.164 OA 
ENDROOT
BRANCH   3  12
HETATM   12  S   UNL     1      -9.805   8.897  67.172  1.00  0.00    -0.229 SA 
BRANCH  12  13
HETATM   13  C   UNL     1     -10.582  10.517  67.450  1.00  0.00    -0.263 C  
BRANCH  13  14
HETATM   14  C   UNL     1     -10.908  11.318  66.190  1.00  0.00    -0.222 C  
BRANCH  14  15
HETATM   15  N   UNL     1     -12.096  12.156  66.437  1.00  0.00    -0.587 NA 
HETATM   16  H   UNL     1     -12.788  11.942  67.155  1.00  0.00     0.000 HD 
BRANCH  15  17
HETATM   17  C   UNL     1     -12.182  13.178  65.666  1.00  0.00    -0.466 C  
HETATM   18  H1  UNL     1     -11.285  14.330  64.169  1.00  0.00     0.000 HD 
HETATM   19  N   UNL     1     -11.217  13.518  64.782  1.00  0.00    -0.337 NA 
HETATM   20  H2  UNL     1     -10.383  12.935  64.725  1.00  0.00     0.000 HD 
ENDBRANCH  15  17
ENDBRANCH  14  15
ENDBRANCH  13  14
ENDBRANCH  12  13
ENDBRANCH   3  12
BRANCH   7  21
HETATM   21  C   UNL     1     -11.026   6.355  72.869  1.00  0.00    -0.250 C  
HETATM   22  O   UNL     1     -11.288   7.594  73.523  1.00  0.00    -0.604 OA 
HETATM   23  C   UNL     1     -10.061   5.531  73.708  1.00  0.00    -0.220 C  
HETATM   24  H   UNL     1     -11.660   7.394  74.374  1.00  0.00     0.000 HD 
ENDBRANCH   7  21
TORSDOF 6
ENDMDL
MODEL      180
REMARK 921   NORMALIZED FREE ENERGY PREDICTED BY IDOCK:   -3.20 KCAL/MOL
REMARK 922        TOTAL FREE ENERGY PREDICTED BY IDOCK:   -5.53 KCAL/MOL
REMARK 923 INTER-LIGAND FREE ENERGY PREDICTED BY IDOCK:   -4.78 KCAL/MOL
REMARK 924 INTRA-LIGAND FREE ENERGY PREDICTED BY IDOCK:   -0.75 KCAL/MOL
REMARK 927      BINDING AFFINITY PREDICTED BY RF-SCORE:    0.00 PKD
ROOT
HETATM    1  C   UNL     1      -8.192   6.285  67.249  1.00  0.00    -0.109 C  
HETATM    2  C   UNL     1      -7.318   7.515  67.039  1.00  0.00    -0.094 C  
HETATM    3  C   UNL     1      -7.699   8.404  68.196  1.00  0.00    -0.103 C  
HETATM    4  C   UNL     1     -10.178   6.334  67.911  1.00  0.00    -0.169 C  
HETATM    5  C   UNL     1      -8.633   7.815  68.966  1.00  0.00    -0.135 C  
HETATM    6  N   UNL     1      -8.961   6.546  68.502  1.00  0.00    -0.127 N  
HETATM    7  C   UNL     1      -9.559   6.124  66.519  1.00  0.00    -0.183 C  
HETATM    8  C   UNL     1      -9.338   8.392  70.159  1.00  0.00    -0.163 C  
HETATM    9  O   UNL     1     -10.285   7.584  70.686  1.00  0.00    -0.201 OA 
HETATM   10  O   UNL     1      -9.063   9.459  70.684  1.00  0.00    -0.240 OA 
HETATM   11  O   UNL     1     -11.273   6.415  68.410  1.00  0.00    -0.320 OA 
ENDROOT
BRANCH   3  12
HETATM   12  S   UNL     1      -7.064  10.002  68.215  1.00  0.00    -0.073 SA 
BRANCH  12  13
HETATM   13  C   UNL     1      -8.060  10.936  67.015  1.00  0.00    -0.131 C  
BRANCH  13  14
HETATM   14  C   UNL     1      -8.976  12.006  67.607  1.00  0.00    -0.172 C  
BRANCH  14  15
HETATM   15  N   UNL     1     -10.370  11.730  67.211  1.00  0.00    -0.203 NA 
HETATM   16  H   UNL     1     -10.927  12.375  66.650  1.00  0.00     0.000 HD 
BRANCH  15  17
HETATM   17  C   UNL     1     -10.819  10.605  67.635  1.00  0.00    -0.292 C  
HETATM   18  H1  UNL     1     -12.173   9.610  68.879  1.00  0.00     0.000 HD 
HETATM   19  N   UNL     1     -11.816  10.504  68.541  1.00  0.00    -0.745 NA 
HETATM   20  H2  UNL     1     -12.231  11.361  68.905  1.00  0.00     0.000 HD 
ENDBRANCH  15  17
ENDBRANCH  14  15
ENDBRANCH  13  14
ENDBRANCH  12  13
ENDBRANCH   3  12
BRANCH   7  21
HETATM   21  C   UNL     1      -9.823   4.777  65.872  1.00  0.00    -0.211 C  
HETATM   22  O   UNL     1     -11.211   4.716  65.558  1.00  0.00    -0.909 OA 
HETATM   23  C   UNL     1      -9.463   3.636  66.814  1.00  0.00    -0.203 C  
HETATM   24  H   UNL     1     -11.376   3.873  65.152  1.00  0.00     0.000 HD 
ENDBRANCH   7  21
TORSDOF 6
ENDMDL
MODEL      181
REMARK 921   NORMALIZED FREE ENERGY PREDICTED BY IDOCK:   -3.14 KCAL/MOL
REMARK 922        TOTAL FREE ENERGY PREDICTED BY IDOCK:   -5.46 KCAL/MOL
REMARK 923 INTER-LIGAND FREE ENERGY PREDICTED BY IDOCK:   -5.09 KCAL/MOL
REMARK 924 INTRA-LIGAND FREE ENERGY PREDICTED BY IDOCK:   -0.37 KCAL/MOL
REMARK 927      BINDING AFFINITY PREDICTED BY RF-SCORE:    0.00 PKD
ROOT
HETATM    1  C   UNL     1      -9.120  10.135  66.469  1.00  0.00    -0.144 C  
HETATM    2  C   UNL     1     -10.444  10.070  67.220  1.00  0.00    -0.313 C  
HETATM    3  C   UNL     1     -10.707  11.513  67.570  1.00  0.00    -0.223 C  
HETATM    4  C   UNL     1      -7.521  11.387  66.980  1.00  0.00    -0.147 C  
HETATM    5  C   UNL     1      -9.719  12.305  67.112  1.00  0.00    -0.201 C  
HETATM    6  N   UNL     1      -8.754  11.582  66.419  1.00  0.00    -0.186 N  
HETATM    7  C   UNL     1      -7.762   9.883  67.192  1.00  0.00    -0.092 C  
HETATM    8  C   UNL     1      -9.555  13.783  67.319  1.00  0.00    -0.237 C  
HETATM    9  O   UNL     1      -8.417  14.292  66.797  1.00  0.00    -0.159 OA 
HETATM   10  O   UNL     1     -10.384  14.511  67.841  1.00  0.00    -0.228 OA 
HETATM   11  O   UNL     1      -6.684  12.214  67.247  1.00  0.00    -0.129 OA 
ENDROOT
BRANCH   3  12
HETATM   12  S   UNL     1     -12.036  11.851  68.607  1.00  0.00    -0.118 SA 
BRANCH  12  13
HETATM   13  C   UNL     1     -11.546  11.231  70.244  1.00  0.00    -0.275 C  
BRANCH  13  14
HETATM   14  C   UNL     1     -12.689  10.987  71.229  1.00  0.00    -0.432 C  
BRANCH  14  15
HETATM   15  N   UNL     1     -13.471   9.816  70.789  1.00  0.00    -0.588 NA 
HETATM   16  H   UNL     1     -13.972   9.784  69.901  1.00  0.00     0.000 HD 
BRANCH  15  17
HETATM   17  C   UNL     1     -13.465   8.843  71.625  1.00  0.00    -0.378 C  
HETATM   18  H1  UNL     1     -14.154   8.088  73.449  1.00  0.00     0.000 HD 
HETATM   19  N   UNL     1     -14.159   8.861  72.784  1.00  0.00    -1.021 NA 
HETATM   20  H2  UNL     1     -14.714   9.687  73.005  1.00  0.00     0.000 HD 
ENDBRANCH  15  17
ENDBRANCH  14  15
ENDBRANCH  13  14
ENDBRANCH  12  13
ENDBRANCH   3  12
BRANCH   7  21
HETATM   21  C   UNL     1      -6.790   8.950  66.493  1.00  0.00    -0.079 C  
HETATM   22  O   UNL     1      -7.399   8.530  65.275  1.00  0.00    -0.081 OA 
HETATM   23  C   UNL     1      -6.484   7.733  67.355  1.00  0.00    -0.056 C  
HETATM   24  H   UNL     1      -6.790   7.946  64.838  1.00  0.00     0.000 HD 
ENDBRANCH   7  21
TORSDOF 6
ENDMDL
MODEL      182
REMARK 921   NORMALIZED FREE ENERGY PREDICTED BY IDOCK:   -3.13 KCAL/MOL
REMARK 922        TOTAL FREE ENERGY PREDICTED BY IDOCK:   -5.44 KCAL/MOL
REMARK 923 INTER-LIGAND FREE ENERGY PREDICTED BY IDOCK:   -4.61 KCAL/MOL
REMARK 924 INTRA-LIGAND FREE ENERGY PREDICTED BY IDOCK:   -0.83 KCAL/MOL
REMARK 927      BINDING AFFINITY PREDICTED BY RF-SCORE:    0.00 PKD
ROOT
HETATM    1  C   UNL     1      -9.800  10.393  69.554  1.00  0.00    -0.184 C  
HETATM    2  C   UNL     1      -8.710   9.329  69.541  1.00  0.00    -0.146 C  
HETATM    3  C   UNL     1      -8.183   9.401  68.130  1.00  0.00    -0.118 C  
HETATM    4  C   UNL     1     -11.118  10.768  67.971  1.00  0.00    -0.299 C  
HETATM    5  C   UNL     1      -8.837  10.340  67.420  1.00  0.00    -0.131 C  
HETATM    6  N   UNL     1      -9.788  11.002  68.190  1.00  0.00    -0.170 N  
HETATM    7  C   UNL     1     -11.295  10.030  69.308  1.00  0.00    -0.169 C  
HETATM    8  C   UNL     1      -8.677  10.668  65.964  1.00  0.00    -0.177 C  
HETATM    9  O   UNL     1      -9.530  11.616  65.515  1.00  0.00    -0.229 OA 
HETATM   10  O   UNL     1      -7.820  10.200  65.233  1.00  0.00    -0.133 OA 
HETATM   11  O   UNL     1     -11.767  11.019  66.985  1.00  0.00    -0.399 OA 
ENDROOT
BRANCH   3  12
HETATM   12  S   UNL     1      -7.049   8.203  67.643  1.00  0.00    -0.088 SA 
BRANCH  12  13
HETATM   13  C   UNL     1      -8.027   6.699  67.345  1.00  0.00    -0.114 C  
BRANCH  13  14
HETATM   14  C   UNL     1      -9.278   6.883  66.487  1.00  0.00    -0.163 C  
BRANCH  14  15
HETATM   15  N   UNL     1      -9.139   6.097  65.246  1.00  0.00    -0.367 NA 
HETATM   16  H   UNL     1      -9.717   5.284  65.036  1.00  0.00     0.000 HD 
BRANCH  15  17
HETATM   17  C   UNL     1      -8.225   6.530  64.456  1.00  0.00    -0.027 C  
HETATM   18  H1  UNL     1      -7.667   7.948  63.025  1.00  0.00     0.000 HD 
HETATM   19  N   UNL     1      -8.393   7.604  63.653  1.00  0.00    -0.372 NA 
HETATM   20  H2  UNL     1      -9.287   8.093  63.676  1.00  0.00     0.000 HD 
ENDBRANCH  15  17
ENDBRANCH  14  15
ENDBRANCH  13  14
ENDBRANCH  12  13
ENDBRANCH   3  12
BRANCH   7  21
HETATM   21  C   UNL     1     -12.302  10.632  70.271  1.00  0.00    -0.325 C  
HETATM   22  O   UNL     1     -11.898  11.974  70.531  1.00  0.00    -0.491 OA 
HETATM   23  C   UNL     1     -12.346   9.852  71.577  1.00  0.00    -0.504 C  
HETATM   24  H   UNL     1     -12.529  12.350  71.133  1.00  0.00     0.000 HD 
ENDBRANCH   7  21
TORSDOF 6
ENDMDL
MODEL      183
REMARK 921   NORMALIZED FREE ENERGY PREDICTED BY IDOCK:   -3.11 KCAL/MOL
REMARK 922        TOTAL FREE ENERGY PREDICTED BY IDOCK:   -5.42 KCAL/MOL
REMARK 923 INTER-LIGAND FREE ENERGY PREDICTED BY IDOCK:   -4.63 KCAL/MOL
REMARK 924 INTRA-LIGAND FREE ENERGY PREDICTED BY IDOCK:   -0.79 KCAL/MOL
REMARK 927      BINDING AFFINITY PREDICTED BY RF-SCORE:    0.00 PKD
ROOT
HETATM    1  C   UNL     1     -10.505   8.405  69.888  1.00  0.00    -0.222 C  
HETATM    2  C   UNL     1     -10.124   9.875  70.014  1.00  0.00    -0.308 C  
HETATM    3  C   UNL     1      -9.571  10.199  68.648  1.00  0.00    -0.163 C  
HETATM    4  C   UNL     1      -9.388   6.969  68.851  1.00  0.00    -0.139 C  
HETATM    5  C   UNL     1      -9.613   9.120  67.845  1.00  0.00    -0.146 C  
HETATM    6  N   UNL     1     -10.180   8.022  68.481  1.00  0.00    -0.203 N  
HETATM    7  C   UNL     1      -9.540   7.272  70.351  1.00  0.00    -0.165 C  
HETATM    8  C   UNL     1      -9.086   8.996  66.444  1.00  0.00    -0.170 C  
HETATM    9  O   UNL     1      -9.209   7.758  65.915  1.00  0.00    -0.129 OA 
HETATM   10  O   UNL     1      -8.648   9.920  65.779  1.00  0.00    -0.132 OA 
HETATM   11  O   UNL     1      -8.770   6.215  68.140  1.00  0.00    -0.115 OA 
ENDROOT
BRANCH   3  12
HETATM   12  S   UNL     1      -8.840  11.740  68.433  1.00  0.00    -0.131 SA 
BRANCH  12  13
HETATM   13  C   UNL     1      -9.950  12.656  67.322  1.00  0.00    -0.212 C  
BRANCH  13  14
HETATM   14  C   UNL     1     -11.430  12.285  67.414  1.00  0.00    -0.352 C  
BRANCH  14  15
HETATM   15  N   UNL     1     -12.214  13.484  67.763  1.00  0.00    -0.317 NA 
HETATM   16  H   UNL     1     -12.939  13.870  67.159  1.00  0.00     0.000 HD 
BRANCH  15  17
HETATM   17  C   UNL     1     -11.901  13.999  68.896  1.00  0.00    -0.355 C  
HETATM   18  H1  UNL     1     -12.510  15.151  70.531  1.00  0.00     0.000 HD 
HETATM   19  N   UNL     1     -12.758  14.742  69.631  1.00  0.00    -0.584 NA 
HETATM   20  H2  UNL     1     -13.697  14.902  69.267  1.00  0.00     0.000 HD 
ENDBRANCH  15  17
ENDBRANCH  14  15
ENDBRANCH  13  14
ENDBRANCH  12  13
ENDBRANCH   3  12
BRANCH   7  21
HETATM   21  C   UNL     1     -10.152   6.167  71.193  1.00  0.00    -0.190 C  
HETATM   22  O   UNL     1     -10.410   5.063  70.330  1.00  0.00    -0.265 OA 
HETATM   23  C   UNL     1     -11.455   6.625  71.834  1.00  0.00    -0.332 C  
HETATM   24  H   UNL     1     -10.793   4.371  70.857  1.00  0.00     0.000 HD 
ENDBRANCH   7  21
TORSDOF 6
ENDMDL
MODEL      184
REMARK 921   NORMALIZED FREE ENERGY PREDICTED BY IDOCK:   -3.11 KCAL/MOL
REMARK 922        TOTAL FREE ENERGY PREDICTED BY IDOCK:   -5.42 KCAL/MOL
REMARK 923 INTER-LIGAND FREE ENERGY PREDICTED BY IDOCK:   -4.59 KCAL/MOL
REMARK 924 INTRA-LIGAND FREE ENERGY PREDICTED BY IDOCK:   -0.83 KCAL/MOL
REMARK 927      BINDING AFFINITY PREDICTED BY RF-SCORE:    0.00 PKD
ROOT
HETATM    1  C   UNL     1      -9.098  10.630  66.193  1.00  0.00    -0.170 C  
HETATM    2  C   UNL     1     -10.193  10.032  67.067  1.00  0.00    -0.295 C  
HETATM    3  C   UNL     1     -10.630  11.203  67.911  1.00  0.00    -0.198 C  
HETATM    4  C   UNL     1      -7.681  12.027  66.845  1.00  0.00    -0.078 C  
HETATM    5  C   UNL     1      -9.927  12.308  67.600  1.00  0.00    -0.198 C  
HETATM    6  N   UNL     1      -9.021  12.073  66.571  1.00  0.00    -0.207 N  
HETATM    7  C   UNL     1      -7.593  10.515  66.580  1.00  0.00    -0.128 C  
HETATM    8  C   UNL     1      -9.993  13.656  68.259  1.00  0.00    -0.236 C  
HETATM    9  O   UNL     1      -9.108  14.553  67.771  1.00  0.00    -0.181 OA 
HETATM   10  O   UNL     1     -10.806  13.978  69.109  1.00  0.00    -0.245 OA 
HETATM   11  O   UNL     1      -6.970  12.917  67.243  1.00  0.00    -0.145 OA 
ENDROOT
BRANCH   3  12
HETATM   12  S   UNL     1     -11.740  10.893  69.187  1.00  0.00    -0.319 SA 
BRANCH  12  13
HETATM   13  C   UNL     1     -10.752  10.155  70.523  1.00  0.00    -0.227 C  
BRANCH  13  14
HETATM   14  C   UNL     1     -11.213   8.780  71.004  1.00  0.00    -0.273 C  
BRANCH  14  15
HETATM   15  N   UNL     1     -11.603   7.961  69.841  1.00  0.00    -0.445 NA 
HETATM   16  H   UNL     1     -12.367   8.214  69.214  1.00  0.00     0.000 HD 
BRANCH  15  17
HETATM   17  C   UNL     1     -10.896   6.901  69.689  1.00  0.00    -0.259 C  
HETATM   18  H1  UNL     1     -10.359   5.310  68.444  1.00  0.00     0.000 HD 
HETATM   19  N   UNL     1     -10.921   6.152  68.564  1.00  0.00    -0.324 NA 
HETATM   20  H2  UNL     1     -11.531   6.443  67.801  1.00  0.00     0.000 HD 
ENDBRANCH  15  17
ENDBRANCH  14  15
ENDBRANCH  13  14
ENDBRANCH  12  13
ENDBRANCH   3  12
BRANCH   7  21
HETATM   21  C   UNL     1      -6.644  10.089  65.475  1.00  0.00    -0.100 C  
HETATM   22  O   UNL     1      -5.751  11.174  65.234  1.00  0.00    -0.432 OA 
HETATM   23  C   UNL     1      -7.402   9.762  64.196  1.00  0.00    -0.128 C  
HETATM   24  H   UNL     1      -5.157  10.907  64.543  1.00  0.00     0.000 HD 
ENDBRANCH   7  21
TORSDOF 6
ENDMDL
MODEL      185
REMARK 921   NORMALIZED FREE ENERGY PREDICTED BY IDOCK:   -3.09 KCAL/MOL
REMARK 922        TOTAL FREE ENERGY PREDICTED BY IDOCK:   -5.39 KCAL/MOL
REMARK 923 INTER-LIGAND FREE ENERGY PREDICTED BY IDOCK:   -4.47 KCAL/MOL
REMARK 924 INTRA-LIGAND FREE ENERGY PREDICTED BY IDOCK:   -0.92 KCAL/MOL
REMARK 927      BINDING AFFINITY PREDICTED BY RF-SCORE:    0.00 PKD
ROOT
HETATM    1  C   UNL     1     -11.616   8.558  71.185  1.00  0.00    -0.281 C  
HETATM    2  C   UNL     1     -12.081   7.122  71.393  1.00  0.00    -0.381 C  
HETATM    3  C   UNL     1     -11.072   6.578  72.374  1.00  0.00    -0.259 C  
HETATM    4  C   UNL     1      -9.613   9.155  71.054  1.00  0.00    -0.280 C  
HETATM    5  C   UNL     1     -10.164   7.517  72.699  1.00  0.00    -0.245 C  
HETATM    6  N   UNL     1     -10.425   8.730  72.071  1.00  0.00    -0.346 N  
HETATM    7  C   UNL     1     -10.702   8.952  69.987  1.00  0.00    -0.241 C  
HETATM    8  C   UNL     1      -8.953   7.361  73.572  1.00  0.00    -0.198 C  
HETATM    9  O   UNL     1      -8.184   8.470  73.655  1.00  0.00    -0.383 OA 
HETATM   10  O   UNL     1      -8.687   6.365  74.225  1.00  0.00    -0.125 OA 
HETATM   11  O   UNL     1      -8.446   9.455  71.108  1.00  0.00    -0.303 OA 
ENDROOT
BRANCH   3  12
HETATM   12  S   UNL     1     -11.133   4.896  72.725  1.00  0.00    -0.176 SA 
BRANCH  12  13
HETATM   13  C   UNL     1      -9.972   4.114  71.566  1.00  0.00    -0.160 C  
BRANCH  13  14
HETATM   14  C   UNL     1      -9.027   3.078  72.174  1.00  0.00    -0.087 C  
BRANCH  14  15
HETATM   15  N   UNL     1      -8.609   3.527  73.516  1.00  0.00    -0.082 NA 
HETATM   16  H   UNL     1      -8.030   4.351  73.671  1.00  0.00     0.000 HD 
BRANCH  15  17
HETATM   17  C   UNL     1      -9.041   2.785  74.470  1.00  0.00    -0.078 C  
HETATM   18  H1  UNL     1      -9.992   1.006  75.020  1.00  0.00     0.000 HD 
HETATM   19  N   UNL     1      -9.648   1.595  74.263  1.00  0.00    -0.067 NA 
HETATM   20  H2  UNL     1      -9.769   1.273  73.303  1.00  0.00     0.000 HD 
ENDBRANCH  15  17
ENDBRANCH  14  15
ENDBRANCH  13  14
ENDBRANCH  12  13
ENDBRANCH   3  12
BRANCH   7  21
HETATM   21  C   UNL     1     -11.107  10.190  69.208  1.00  0.00    -0.225 C  
HETATM   22  O   UNL     1     -10.145  11.205  69.484  1.00  0.00    -0.433 OA 
HETATM   23  C   UNL     1     -12.489  10.673  69.627  1.00  0.00    -0.121 C  
HETATM   24  H   UNL     1     -10.399  11.980  68.996  1.00  0.00     0.000 HD 
ENDBRANCH   7  21
TORSDOF 6
ENDMDL
MODEL      186
REMARK 921   NORMALIZED FREE ENERGY PREDICTED BY IDOCK:   -3.09 KCAL/MOL
REMARK 922        TOTAL FREE ENERGY PREDICTED BY IDOCK:   -5.38 KCAL/MOL
REMARK 923 INTER-LIGAND FREE ENERGY PREDICTED BY IDOCK:   -4.45 KCAL/MOL
REMARK 924 INTRA-LIGAND FREE ENERGY PREDICTED BY IDOCK:   -0.93 KCAL/MOL
REMARK 927      BINDING AFFINITY PREDICTED BY RF-SCORE:    0.00 PKD
ROOT
HETATM    1  C   UNL     1      -9.618   4.352  71.159  1.00  0.00    -0.175 C  
HETATM    2  C   UNL     1      -8.982   4.945  72.410  1.00  0.00    -0.140 C  
HETATM    3  C   UNL     1      -9.934   6.054  72.782  1.00  0.00    -0.176 C  
HETATM    4  C   UNL     1     -10.550   5.469  69.653  1.00  0.00    -0.305 C  
HETATM    5  C   UNL     1     -10.959   6.118  71.912  1.00  0.00    -0.263 C  
HETATM    6  N   UNL     1     -10.875   5.129  70.938  1.00  0.00    -0.058 N  
HETATM    7  C   UNL     1      -9.172   4.792  69.733  1.00  0.00    -0.180 C  
HETATM    8  C   UNL     1     -12.071   7.126  71.874  1.00  0.00    -0.321 C  
HETATM    9  O   UNL     1     -12.919   6.975  70.833  1.00  0.00    -0.273 OA 
HETATM   10  O   UNL     1     -12.272   7.976  72.726  1.00  0.00    -0.251 OA 
HETATM   11  O   UNL     1     -11.178   6.151  68.880  1.00  0.00    -0.372 OA 
ENDROOT
BRANCH   3  12
HETATM   12  S   UNL     1      -9.464   7.112  74.054  1.00  0.00    -0.244 SA 
BRANCH  12  13
HETATM   13  C   UNL     1      -8.009   8.006  73.432  1.00  0.00    -0.183 C  
BRANCH  13  14
HETATM   14  C   UNL     1      -8.062   8.413  71.959  1.00  0.00    -0.141 C  
BRANCH  14  15
HETATM   15  N   UNL     1      -9.259   9.243  71.725  1.00  0.00    -0.247 NA 
HETATM   16  H   UNL     1      -9.736   9.753  72.467  1.00  0.00     0.000 HD 
BRANCH  15  17
HETATM   17  C   UNL     1      -9.646   9.263  70.501  1.00  0.00    -0.262 C  
HETATM   18  H1  UNL     1      -9.624  10.268  68.668  1.00  0.00     0.000 HD 
HETATM   19  N   UNL     1      -9.317  10.252  69.640  1.00  0.00    -0.368 NA 
HETATM   20  H2  UNL     1      -8.734  11.016  69.978  1.00  0.00     0.000 HD 
ENDBRANCH  15  17
ENDBRANCH  14  15
ENDBRANCH  13  14
ENDBRANCH  12  13
ENDBRANCH   3  12
BRANCH   7  21
HETATM   21  C   UNL     1      -8.920   3.678  68.732  1.00  0.00    -0.127 C  
HETATM   22  O   UNL     1      -9.766   3.911  67.610  1.00  0.00    -0.179 OA 
HETATM   23  C   UNL     1      -9.237   2.317  69.336  1.00  0.00    -0.187 C  
HETATM   24  H   UNL     1      -9.608   3.214  66.984  1.00  0.00     0.000 HD 
ENDBRANCH   7  21
TORSDOF 6
ENDMDL
MODEL      187
REMARK 921   NORMALIZED FREE ENERGY PREDICTED BY IDOCK:   -3.06 KCAL/MOL
REMARK 922        TOTAL FREE ENERGY PREDICTED BY IDOCK:   -5.34 KCAL/MOL
REMARK 923 INTER-LIGAND FREE ENERGY PREDICTED BY IDOCK:   -4.59 KCAL/MOL
REMARK 924 INTRA-LIGAND FREE ENERGY PREDICTED BY IDOCK:   -0.76 KCAL/MOL
REMARK 927      BINDING AFFINITY PREDICTED BY RF-SCORE:    0.00 PKD
ROOT
HETATM    1  C   UNL     1     -10.150  11.280  66.151  1.00  0.00    -0.236 C  
HETATM    2  C   UNL     1     -10.391  10.554  67.468  1.00  0.00    -0.265 C  
HETATM    3  C   UNL     1      -9.272   9.544  67.509  1.00  0.00    -0.126 C  
HETATM    4  C   UNL     1      -9.519  10.357  64.380  1.00  0.00    -0.287 C  
HETATM    5  C   UNL     1      -8.495   9.644  66.414  1.00  0.00    -0.123 C  
HETATM    6  N   UNL     1      -8.918  10.666  65.571  1.00  0.00    -0.184 N  
HETATM    7  C   UNL     1     -10.894  10.865  64.845  1.00  0.00    -0.150 C  
HETATM    8  C   UNL     1      -7.334   8.775  66.029  1.00  0.00    -0.089 C  
HETATM    9  O   UNL     1      -6.792   9.076  64.827  1.00  0.00    -0.079 OA 
HETATM   10  O   UNL     1      -6.843   7.911  66.737  1.00  0.00    -0.068 OA 
HETATM   11  O   UNL     1      -9.040   9.793  63.427  1.00  0.00    -0.248 OA 
ENDROOT
BRANCH   3  12
HETATM   12  S   UNL     1      -9.300   8.376  68.770  1.00  0.00    -0.143 SA 
BRANCH  12  13
HETATM   13  C   UNL     1     -10.727   7.307  68.412  1.00  0.00    -0.121 C  
BRANCH  13  14
HETATM   14  C   UNL     1     -10.582   6.400  67.190  1.00  0.00    -0.321 C  
BRANCH  14  15
HETATM   15  N   UNL     1     -10.047   5.092  67.613  1.00  0.00    -0.168 NA 
HETATM   16  H   UNL     1     -10.031   4.786  68.586  1.00  0.00     0.000 HD 
BRANCH  15  17
HETATM   17  C   UNL     1      -9.605   4.374  66.646  1.00  0.00    -0.198 C  
HETATM   18  H1  UNL     1     -10.031   3.380  64.857  1.00  0.00     0.000 HD 
HETATM   19  N   UNL     1     -10.383   3.951  65.625  1.00  0.00    -0.442 NA 
HETATM   20  H2  UNL     1     -11.367   4.215  65.624  1.00  0.00     0.000 HD 
ENDBRANCH  15  17
ENDBRANCH  14  15
ENDBRANCH  13  14
ENDBRANCH  12  13
ENDBRANCH   3  12
BRANCH   7  21
HETATM   21  C   UNL     1     -11.497  11.992  64.027  1.00  0.00    -0.404 C  
HETATM   22  O   UNL     1     -10.718  12.125  62.841  1.00  0.00    -0.582 OA 
HETATM   23  C   UNL     1     -11.475  13.303  64.799  1.00  0.00    -0.355 C  
HETATM   24  H   UNL     1     -11.096  12.830  62.328  1.00  0.00     0.000 HD 
ENDBRANCH   7  21
TORSDOF 6
ENDMDL
MODEL      188
REMARK 921   NORMALIZED FREE ENERGY PREDICTED BY IDOCK:   -3.04 KCAL/MOL
REMARK 922        TOTAL FREE ENERGY PREDICTED BY IDOCK:   -5.32 KCAL/MOL
REMARK 923 INTER-LIGAND FREE ENERGY PREDICTED BY IDOCK:   -4.46 KCAL/MOL
REMARK 924 INTRA-LIGAND FREE ENERGY PREDICTED BY IDOCK:   -0.87 KCAL/MOL
REMARK 927      BINDING AFFINITY PREDICTED BY RF-SCORE:    0.00 PKD
ROOT
HETATM    1  C   UNL     1     -10.092   6.474  70.572  1.00  0.00    -0.185 C  
HETATM    2  C   UNL     1      -8.965   7.027  69.708  1.00  0.00    -0.141 C  
HETATM    3  C   UNL     1      -8.330   5.782  69.141  1.00  0.00    -0.105 C  
HETATM    4  C   UNL     1      -9.952   4.750  71.753  1.00  0.00    -0.190 C  
HETATM    5  C   UNL     1      -8.961   4.678  69.584  1.00  0.00    -0.094 C  
HETATM    6  N   UNL     1     -10.037   4.991  70.408  1.00  0.00    -0.248 N  
HETATM    7  C   UNL     1      -9.907   6.247  72.103  1.00  0.00    -0.171 C  
HETATM    8  C   UNL     1      -8.594   3.245  69.327  1.00  0.00    -0.067 C  
HETATM    9  O   UNL     1      -9.379   2.350  69.968  1.00  0.00    -0.123 OA 
HETATM   10  O   UNL     1      -7.723   2.874  68.558  1.00  0.00    -0.054 OA 
HETATM   11  O   UNL     1      -9.853   3.688  72.316  1.00  0.00    -0.148 OA 
ENDROOT
BRANCH   3  12
HETATM   12  S   UNL     1      -6.873   5.968  68.248  1.00  0.00    -0.072 SA 
BRANCH  12  13
HETATM   13  C   UNL     1      -7.383   6.126  66.511  1.00  0.00    -0.081 C  
BRANCH  13  14
HETATM   14  C   UNL     1      -8.597   5.293  66.100  1.00  0.00    -0.120 C  
BRANCH  14  15
HETATM   15  N   UNL     1      -9.767   6.178  65.944  1.00  0.00    -0.381 NA 
HETATM   16  H   UNL     1      -9.771   6.991  65.328  1.00  0.00     0.000 HD 
BRANCH  15  17
HETATM   17  C   UNL     1     -10.779   5.833  66.653  1.00  0.00    -0.262 C  
HETATM   18  H1  UNL     1     -12.307   6.437  67.947  1.00  0.00     0.000 HD 
HETATM   19  N   UNL     1     -11.503   6.711  67.383  1.00  0.00    -0.740 NA 
HETATM   20  H2  UNL     1     -11.231   7.694  67.369  1.00  0.00     0.000 HD 
ENDBRANCH  15  17
ENDBRANCH  14  15
ENDBRANCH  13  14
ENDBRANCH  12  13
ENDBRANCH   3  12
BRANCH   7  21
HETATM   21  C   UNL     1     -11.022   6.753  72.999  1.00  0.00    -0.260 C  
HETATM   22  O   UNL     1     -12.108   5.836  72.893  1.00  0.00    -0.543 OA 
HETATM   23  C   UNL     1     -11.484   8.139  72.569  1.00  0.00    -0.470 C  
HETATM   24  H   UNL     1     -12.805   6.153  73.454  1.00  0.00     0.000 HD 
ENDBRANCH   7  21
TORSDOF 6
ENDMDL
MODEL      189
REMARK 921   NORMALIZED FREE ENERGY PREDICTED BY IDOCK:   -3.02 KCAL/MOL
REMARK 922        TOTAL FREE ENERGY PREDICTED BY IDOCK:   -5.29 KCAL/MOL
REMARK 923 INTER-LIGAND FREE ENERGY PREDICTED BY IDOCK:   -4.56 KCAL/MOL
REMARK 924 INTRA-LIGAND FREE ENERGY PREDICTED BY IDOCK:   -0.74 KCAL/MOL
REMARK 927      BINDING AFFINITY PREDICTED BY RF-SCORE:    0.00 PKD
ROOT
HETATM    1  C   UNL     1     -11.275   9.553  70.001  1.00  0.00    -0.209 C  
HETATM    2  C   UNL     1     -10.445  10.591  69.257  1.00  0.00    -0.258 C  
HETATM    3  C   UNL     1      -9.845   9.798  68.123  1.00  0.00    -0.148 C  
HETATM    4  C   UNL     1     -10.693   7.566  70.317  1.00  0.00    -0.238 C  
HETATM    5  C   UNL     1     -10.244   8.513  68.173  1.00  0.00    -0.208 C  
HETATM    6  N   UNL     1     -11.118   8.283  69.230  1.00  0.00     0.058 N  
HETATM    7  C   UNL     1     -10.711   8.795  71.240  1.00  0.00    -0.339 C  
HETATM    8  C   UNL     1      -9.813   7.381  67.286  1.00  0.00    -0.175 C  
HETATM    9  O   UNL     1     -10.332   6.181  67.628  1.00  0.00    -0.153 OA 
HETATM   10  O   UNL     1      -9.117   7.501  66.291  1.00  0.00    -0.163 OA 
HETATM   11  O   UNL     1     -10.362   6.407  70.362  1.00  0.00    -0.193 OA 
ENDROOT
BRANCH   3  12
HETATM   12  S   UNL     1      -8.667  10.577  67.143  1.00  0.00    -0.130 SA 
BRANCH  12  13
HETATM   13  C   UNL     1      -9.097  12.343  67.175  1.00  0.00    -0.199 C  
BRANCH  13  14
HETATM   14  C   UNL     1      -8.057  13.265  67.810  1.00  0.00    -0.166 C  
BRANCH  14  15
HETATM   15  N   UNL     1      -8.737  14.430  68.409  1.00  0.00    -0.176 NA 
HETATM   16  H   UNL     1      -8.237  15.188  68.872  1.00  0.00     0.000 HD 
BRANCH  15  17
HETATM   17  C   UNL     1     -10.015  14.401  68.295  1.00  0.00    -0.232 C  
HETATM   18  H1  UNL     1     -11.819  15.442  68.479  1.00  0.00     0.000 HD 
HETATM   19  N   UNL     1     -10.804  15.464  68.570  1.00  0.00    -0.253 NA 
HETATM   20  H2  UNL     1     -10.362  16.328  68.883  1.00  0.00     0.000 HD 
ENDBRANCH  15  17
ENDBRANCH  14  15
ENDBRANCH  13  14
ENDBRANCH  12  13
ENDBRANCH   3  12
BRANCH   7  21
HETATM   21  C   UNL     1     -11.625   8.705  72.448  1.00  0.00    -0.315 C  
HETATM   22  O   UNL     1     -11.615   7.352  72.894  1.00  0.00    -0.542 OA 
HETATM   23  C   UNL     1     -13.047   9.112  72.091  1.00  0.00    -0.516 C  
HETATM   24  H   UNL     1     -12.187   7.296  73.650  1.00  0.00     0.000 HD 
ENDBRANCH   7  21
TORSDOF 6
ENDMDL
MODEL      190
REMARK 921   NORMALIZED FREE ENERGY PREDICTED BY IDOCK:   -3.01 KCAL/MOL
REMARK 922        TOTAL FREE ENERGY PREDICTED BY IDOCK:   -5.28 KCAL/MOL
REMARK 923 INTER-LIGAND FREE ENERGY PREDICTED BY IDOCK:   -4.58 KCAL/MOL
REMARK 924 INTRA-LIGAND FREE ENERGY PREDICTED BY IDOCK:   -0.70 KCAL/MOL
REMARK 927      BINDING AFFINITY PREDICTED BY RF-SCORE:    0.00 PKD
ROOT
HETATM    1  C   UNL     1      -9.708  10.047  70.324  1.00  0.00    -0.050 C  
HETATM    2  C   UNL     1     -10.133   8.907  71.241  1.00  0.00    -0.365 C  
HETATM    3  C   UNL     1      -9.225   7.777  70.821  1.00  0.00    -0.157 C  
HETATM    4  C   UNL     1      -9.192   9.825  68.307  1.00  0.00    -0.129 C  
HETATM    5  C   UNL     1      -8.401   8.168  69.830  1.00  0.00    -0.123 C  
HETATM    6  N   UNL     1      -8.592   9.504  69.494  1.00  0.00    -0.154 N  
HETATM    7  C   UNL     1     -10.464  10.347  68.995  1.00  0.00    -0.240 C  
HETATM    8  C   UNL     1      -7.409   7.330  69.076  1.00  0.00    -0.091 C  
HETATM    9  O   UNL     1      -6.774   7.988  68.081  1.00  0.00    -0.061 OA 
HETATM   10  O   UNL     1      -7.117   6.178  69.351  1.00  0.00    -0.065 OA 
HETATM   11  O   UNL     1      -8.790   9.619  67.188  1.00  0.00    -0.131 OA 
ENDROOT
BRANCH   3  12
HETATM   12  S   UNL     1      -9.522   6.225  71.496  1.00  0.00    -0.150 SA 
BRANCH  12  13
HETATM   13  C   UNL     1     -10.983   5.585  70.623  1.00  0.00    -0.120 C  
BRANCH  13  14
HETATM   14  C   UNL     1     -10.856   5.491  69.103  1.00  0.00    -0.112 C  
BRANCH  14  15
HETATM   15  N   UNL     1     -11.298   6.760  68.496  1.00  0.00    -0.560 NA 
HETATM   16  H   UNL     1     -11.708   7.522  69.036  1.00  0.00     0.000 HD 
BRANCH  15  17
HETATM   17  C   UNL     1     -11.122   6.819  67.226  1.00  0.00    -0.324 C  
HETATM   18  H1  UNL     1     -10.780   5.772  65.449  1.00  0.00     0.000 HD 
HETATM   19  N   UNL     1     -10.921   5.725  66.458  1.00  0.00    -0.716 NA 
HETATM   20  H2  UNL     1     -10.910   4.811  66.908  1.00  0.00     0.000 HD 
ENDBRANCH  15  17
ENDBRANCH  14  15
ENDBRANCH  13  14
ENDBRANCH  12  13
ENDBRANCH   3  12
BRANCH   7  21
HETATM   21  C   UNL     1     -10.813  11.801  68.731  1.00  0.00    -0.227 C  
HETATM   22  O   UNL     1     -11.422  12.316  69.912  1.00  0.00    -0.472 OA 
HETATM   23  C   UNL     1     -11.779  11.929  67.562  1.00  0.00    -0.335 C  
HETATM   24  H   UNL     1     -11.640  13.226  69.747  1.00  0.00     0.000 HD 
ENDBRANCH   7  21
TORSDOF 6
ENDMDL
MODEL      191
REMARK 921   NORMALIZED FREE ENERGY PREDICTED BY IDOCK:   -3.00 KCAL/MOL
REMARK 922        TOTAL FREE ENERGY PREDICTED BY IDOCK:   -5.27 KCAL/MOL
REMARK 923 INTER-LIGAND FREE ENERGY PREDICTED BY IDOCK:   -4.85 KCAL/MOL
REMARK 924 INTRA-LIGAND FREE ENERGY PREDICTED BY IDOCK:   -0.42 KCAL/MOL
REMARK 927      BINDING AFFINITY PREDICTED BY RF-SCORE:    0.00 PKD
ROOT
HETATM    1  C   UNL     1     -10.774   8.919  68.755  1.00  0.00    -0.090 C  
HETATM    2  C   UNL     1     -10.086  10.188  69.241  1.00  0.00    -0.237 C  
HETATM    3  C   UNL     1      -9.191  10.554  68.083  1.00  0.00    -0.148 C  
HETATM    4  C   UNL     1      -9.842   7.408  67.645  1.00  0.00    -0.154 C  
HETATM    5  C   UNL     1      -9.319   9.666  67.079  1.00  0.00    -0.147 C  
HETATM    6  N   UNL     1     -10.258   8.683  67.373  1.00  0.00    -0.241 N  
HETATM    7  C   UNL     1     -10.235   7.506  69.129  1.00  0.00    -0.202 C  
HETATM    8  C   UNL     1      -8.549   9.618  65.791  1.00  0.00    -0.136 C  
HETATM    9  O   UNL     1      -8.850   8.559  65.006  1.00  0.00    -0.144 OA 
HETATM   10  O   UNL     1      -7.768  10.475  65.412  1.00  0.00    -0.149 OA 
HETATM   11  O   UNL     1      -9.287   6.631  66.908  1.00  0.00    -0.138 OA 
ENDROOT
BRANCH   3  12
HETATM   12  S   UNL     1      -8.080  11.845  68.313  1.00  0.00    -0.158 SA 
BRANCH  12  13
HETATM   13  C   UNL     1      -8.532  13.102  67.079  1.00  0.00    -0.132 C  
BRANCH  13  14
HETATM   14  C   UNL     1      -9.673  14.038  67.476  1.00  0.00    -0.232 C  
BRANCH  14  15
HETATM   15  N   UNL     1     -10.611  14.172  66.346  1.00  0.00    -0.277 NA 
HETATM   16  H   UNL     1     -11.334  14.890  66.306  1.00  0.00     0.000 HD 
BRANCH  15  17
HETATM   17  C   UNL     1     -10.436  13.302  65.419  1.00  0.00    -0.297 C  
HETATM   18  H1  UNL     1     -10.271  12.928  63.369  1.00  0.00     0.000 HD 
HETATM   19  N   UNL     1     -10.410  13.619  64.105  1.00  0.00    -0.699 NA 
HETATM   20  H2  UNL     1     -10.535  14.595  63.839  1.00  0.00     0.000 HD 
ENDBRANCH  15  17
ENDBRANCH  14  15
ENDBRANCH  13  14
ENDBRANCH  12  13
ENDBRANCH   3  12
BRANCH   7  21
HETATM   21  C   UNL     1     -11.262   6.498  69.612  1.00  0.00    -0.384 C  
HETATM   22  O   UNL     1     -12.244   7.211  70.359  1.00  0.00    -0.574 OA 
HETATM   23  C   UNL     1     -10.618   5.441  70.497  1.00  0.00    -0.312 C  
HETATM   24  H   UNL     1     -12.887   6.581  70.661  1.00  0.00     0.000 HD 
ENDBRANCH   7  21
TORSDOF 6
ENDMDL
MODEL      192
REMARK 921   NORMALIZED FREE ENERGY PREDICTED BY IDOCK:   -2.97 KCAL/MOL
REMARK 922        TOTAL FREE ENERGY PREDICTED BY IDOCK:   -5.22 KCAL/MOL
REMARK 923 INTER-LIGAND FREE ENERGY PREDICTED BY IDOCK:   -4.32 KCAL/MOL
REMARK 924 INTRA-LIGAND FREE ENERGY PREDICTED BY IDOCK:   -0.90 KCAL/MOL
REMARK 927      BINDING AFFINITY PREDICTED BY RF-SCORE:    0.00 PKD
ROOT
HETATM    1  C   UNL     1     -10.410   5.041  71.413  1.00  0.00    -0.181 C  
HETATM    2  C   UNL     1     -11.516   6.048  71.704  1.00  0.00    -0.293 C  
HETATM    3  C   UNL     1     -10.800   7.373  71.614  1.00  0.00    -0.220 C  
HETATM    4  C   UNL     1      -8.438   5.205  72.098  1.00  0.00    -0.125 C  
HETATM    5  C   UNL     1      -9.498   7.196  71.321  1.00  0.00    -0.163 C  
HETATM    6  N   UNL     1      -9.184   5.852  71.150  1.00  0.00    -0.149 N  
HETATM    7  C   UNL     1      -9.623   4.341  72.561  1.00  0.00    -0.187 C  
HETATM    8  C   UNL     1      -8.427   8.244  71.225  1.00  0.00    -0.136 C  
HETATM    9  O   UNL     1      -7.192   7.751  70.984  1.00  0.00    -0.053 OA 
HETATM   10  O   UNL     1      -8.621   9.447  71.280  1.00  0.00    -0.299 OA 
HETATM   11  O   UNL     1      -7.293   5.414  72.417  1.00  0.00    -0.090 OA 
ENDROOT
BRANCH   3  12
HETATM   12  S   UNL     1     -11.672   8.780  72.077  1.00  0.00    -0.368 SA 
BRANCH  12  13
HETATM   13  C   UNL     1     -11.962   9.702  70.537  1.00  0.00    -0.172 C  
BRANCH  13  14
HETATM   14  C   UNL     1     -12.263  11.191  70.704  1.00  0.00    -0.397 C  
BRANCH  14  15
HETATM   15  N   UNL     1     -11.363  11.973  69.836  1.00  0.00    -0.510 NA 
HETATM   16  H   UNL     1     -11.337  12.992  69.835  1.00  0.00     0.000 HD 
BRANCH  15  17
HETATM   17  C   UNL     1     -10.615  11.254  69.080  1.00  0.00    -0.187 C  
HETATM   18  H1  UNL     1      -8.685  10.858  68.382  1.00  0.00     0.000 HD 
HETATM   19  N   UNL     1      -9.279  11.429  68.982  1.00  0.00    -0.400 NA 
HETATM   20  H2  UNL     1      -8.845  12.168  69.535  1.00  0.00     0.000 HD 
ENDBRANCH  15  17
ENDBRANCH  14  15
ENDBRANCH  13  14
ENDBRANCH  12  13
ENDBRANCH   3  12
BRANCH   7  21
HETATM   21  C   UNL     1      -9.440   2.840  72.435  1.00  0.00    -0.110 C  
HETATM   22  O   UNL     1      -8.192   2.508  73.037  1.00  0.00    -0.066 OA 
HETATM   23  C   UNL     1      -9.431   2.410  70.975  1.00  0.00    -0.219 C  
HETATM   24  H   UNL     1      -8.077   1.568  72.958  1.00  0.00     0.000 HD 
ENDBRANCH   7  21
TORSDOF 6
ENDMDL
MODEL      193
REMARK 921   NORMALIZED FREE ENERGY PREDICTED BY IDOCK:   -2.96 KCAL/MOL
REMARK 922        TOTAL FREE ENERGY PREDICTED BY IDOCK:   -5.21 KCAL/MOL
REMARK 923 INTER-LIGAND FREE ENERGY PREDICTED BY IDOCK:   -4.69 KCAL/MOL
REMARK 924 INTRA-LIGAND FREE ENERGY PREDICTED BY IDOCK:   -0.52 KCAL/MOL
REMARK 927      BINDING AFFINITY PREDICTED BY RF-SCORE:    0.00 PKD
ROOT
HETATM    1  C   UNL     1      -9.244  12.043  67.959  1.00  0.00    -0.192 C  
HETATM    2  C   UNL     1      -8.164  13.091  68.193  1.00  0.00    -0.157 C  
HETATM    3  C   UNL     1      -8.954  14.370  68.318  1.00  0.00    -0.187 C  
HETATM    4  C   UNL     1     -10.948  12.331  66.777  1.00  0.00    -0.276 C  
HETATM    5  C   UNL     1     -10.272  14.134  68.185  1.00  0.00    -0.241 C  
HETATM    6  N   UNL     1     -10.542  12.782  68.003  1.00  0.00    -0.220 N  
HETATM    7  C   UNL     1      -9.631  11.579  66.523  1.00  0.00    -0.225 C  
HETATM    8  C   UNL     1     -11.388  15.139  68.161  1.00  0.00    -0.335 C  
HETATM    9  O   UNL     1     -12.609  14.604  67.939  1.00  0.00     0.136 OA 
HETATM   10  O   UNL     1     -11.259  16.330  68.391  1.00  0.00    -0.354 OA 
HETATM   11  O   UNL     1     -11.967  12.595  66.186  1.00  0.00    -0.433 OA 
ENDROOT
BRANCH   3  12
HETATM   12  S   UNL     1      -8.072  15.844  68.399  1.00  0.00    -0.156 SA 
BRANCH  12  13
HETATM   13  C   UNL     1      -7.880  16.391  66.676  1.00  0.00    -0.281 C  
BRANCH  13  14
HETATM   14  C   UNL     1      -7.519  17.864  66.487  1.00  0.00    -0.246 C  
BRANCH  14  15
HETATM   15  N   UNL     1      -7.693  18.579  67.765  1.00  0.00    -0.231 NA 
HETATM   16  H   UNL     1      -7.263  18.271  68.637  1.00  0.00     0.000 HD 
BRANCH  15  17
HETATM   17  C   UNL     1      -8.435  19.622  67.681  1.00  0.00    -0.319 C  
HETATM   18  H1  UNL     1     -10.323  20.405  67.240  1.00  0.00     0.000 HD 
HETATM   19  N   UNL     1      -9.733  19.576  67.307  1.00  0.00    -0.327 NA 
HETATM   20  H2  UNL     1     -10.141  18.669  67.081  1.00  0.00     0.000 HD 
ENDBRANCH  15  17
ENDBRANCH  14  15
ENDBRANCH  13  14
ENDBRANCH  12  13
ENDBRANCH   3  12
BRANCH   7  21
HETATM   21  C   UNL     1      -9.753  10.082  66.307  1.00  0.00    -0.214 C  
HETATM   22  O   UNL     1      -8.984   9.439  67.320  1.00  0.00    -0.129 OA 
HETATM   23  C   UNL     1      -9.224   9.681  64.937  1.00  0.00    -0.306 C  
HETATM   24  H   UNL     1      -9.060   8.502  67.186  1.00  0.00     0.000 HD 
ENDBRANCH   7  21
TORSDOF 6
ENDMDL
MODEL      194
REMARK 921   NORMALIZED FREE ENERGY PREDICTED BY IDOCK:   -2.94 KCAL/MOL
REMARK 922        TOTAL FREE ENERGY PREDICTED BY IDOCK:   -5.19 KCAL/MOL
REMARK 923 INTER-LIGAND FREE ENERGY PREDICTED BY IDOCK:   -4.75 KCAL/MOL
REMARK 924 INTRA-LIGAND FREE ENERGY PREDICTED BY IDOCK:   -0.43 KCAL/MOL
REMARK 927      BINDING AFFINITY PREDICTED BY RF-SCORE:    0.00 PKD
ROOT
HETATM    1  C   UNL     1     -10.118   5.969  68.379  1.00  0.00    -0.164 C  
HETATM    2  C   UNL     1     -11.263   6.392  69.290  1.00  0.00    -0.440 C  
HETATM    3  C   UNL     1     -10.669   6.249  70.670  1.00  0.00    -0.264 C  
HETATM    4  C   UNL     1      -8.792   4.399  68.782  1.00  0.00    -0.099 C  
HETATM    5  C   UNL     1      -9.396   5.819  70.602  1.00  0.00    -0.159 C  
HETATM    6  N   UNL     1      -8.973   5.658  69.287  1.00  0.00    -0.113 N  
HETATM    7  C   UNL     1     -10.002   4.511  67.840  1.00  0.00    -0.116 C  
HETATM    8  C   UNL     1      -8.481   5.470  71.740  1.00  0.00    -0.127 C  
HETATM    9  O   UNL     1      -7.276   4.994  71.356  1.00  0.00    -0.060 OA 
HETATM   10  O   UNL     1      -8.734   5.653  72.920  1.00  0.00    -0.122 OA 
HETATM   11  O   UNL     1      -7.987   3.567  69.124  1.00  0.00    -0.054 OA 
ENDROOT
BRANCH   3  12
HETATM   12  S   UNL     1     -11.723   6.451  72.013  1.00  0.00    -0.323 SA 
BRANCH  12  13
HETATM   13  C   UNL     1     -13.244   7.180  71.335  1.00  0.00    -0.328 C  
BRANCH  13  14
HETATM   14  C   UNL     1     -13.668   8.515  71.947  1.00  0.00    -0.415 C  
BRANCH  14  15
HETATM   15  N   UNL     1     -13.464   9.592  70.960  1.00  0.00    -0.574 NA 
HETATM   16  H   UNL     1     -14.211   9.951  70.366  1.00  0.00     0.000 HD 
BRANCH  15  17
HETATM   17  C   UNL     1     -12.261  10.036  70.916  1.00  0.00    -0.346 C  
HETATM   18  H1  UNL     1     -10.955  11.503  70.199  1.00  0.00     0.000 HD 
HETATM   19  N   UNL     1     -11.910  11.150  70.234  1.00  0.00    -0.342 NA 
HETATM   20  H2  UNL     1     -12.636  11.660  69.732  1.00  0.00     0.000 HD 
ENDBRANCH  15  17
ENDBRANCH  14  15
ENDBRANCH  13  14
ENDBRANCH  12  13
ENDBRANCH   3  12
BRANCH   7  21
HETATM   21  C   UNL     1      -9.707   4.362  66.359  1.00  0.00    -0.215 C  
HETATM   22  O   UNL     1      -9.600   2.968  66.081  1.00  0.00    -0.378 OA 
HETATM   23  C   UNL     1      -8.405   5.056  65.987  1.00  0.00    -0.114 C  
HETATM   24  H   UNL     1      -9.415   2.875  65.154  1.00  0.00     0.000 HD 
ENDBRANCH   7  21
TORSDOF 6
ENDMDL
MODEL      195
REMARK 921   NORMALIZED FREE ENERGY PREDICTED BY IDOCK:   -2.91 KCAL/MOL
REMARK 922        TOTAL FREE ENERGY PREDICTED BY IDOCK:   -5.15 KCAL/MOL
REMARK 923 INTER-LIGAND FREE ENERGY PREDICTED BY IDOCK:   -4.36 KCAL/MOL
REMARK 924 INTRA-LIGAND FREE ENERGY PREDICTED BY IDOCK:   -0.79 KCAL/MOL
REMARK 927      BINDING AFFINITY PREDICTED BY RF-SCORE:    0.00 PKD
ROOT
HETATM    1  C   UNL     1     -10.299   9.443  67.673  1.00  0.00    -0.246 C  
HETATM    2  C   UNL     1     -10.356   8.259  68.630  1.00  0.00    -0.225 C  
HETATM    3  C   UNL     1     -11.111   8.813  69.812  1.00  0.00    -0.073 C  
HETATM    4  C   UNL     1     -10.001  11.432  68.256  1.00  0.00    -0.198 C  
HETATM    5  C   UNL     1     -11.450  10.100  69.604  1.00  0.00    -0.198 C  
HETATM    6  N   UNL     1     -11.041  10.547  68.352  1.00  0.00    -0.266 N  
HETATM    7  C   UNL     1      -9.063  10.391  67.624  1.00  0.00    -0.143 C  
HETATM    8  C   UNL     1     -12.131  11.037  70.559  1.00  0.00    -0.377 C  
HETATM    9  O   UNL     1     -12.274  12.296  70.090  1.00  0.00    -0.292 OA 
HETATM   10  O   UNL     1     -12.595  10.716  71.641  1.00  0.00    -0.395 OA 
HETATM   11  O   UNL     1      -9.949  12.568  68.659  1.00  0.00    -0.196 OA 
ENDROOT
BRANCH   3  12
HETATM   12  S   UNL     1     -11.223   7.829  71.217  1.00  0.00    -0.260 SA 
BRANCH  12  13
HETATM   13  C   UNL     1      -9.804   8.296  72.253  1.00  0.00    -0.294 C  
BRANCH  13  14
HETATM   14  C   UNL     1      -8.683   7.261  72.344  1.00  0.00    -0.119 C  
BRANCH  14  15
HETATM   15  N   UNL     1      -7.874   7.307  71.111  1.00  0.00    -0.092 NA 
HETATM   16  H   UNL     1      -7.550   8.177  70.690  1.00  0.00     0.000 HD 
BRANCH  15  17
HETATM   17  C   UNL     1      -7.615   6.152  70.615  1.00  0.00    -0.093 C  
HETATM   18  H1  UNL     1      -6.455   5.029  69.286  1.00  0.00     0.000 HD 
HETATM   19  N   UNL     1      -6.661   5.947  69.680  1.00  0.00    -0.045 NA 
HETATM   20  H2  UNL     1      -6.122   6.748  69.353  1.00  0.00     0.000 HD 
ENDBRANCH  15  17
ENDBRANCH  14  15
ENDBRANCH  13  14
ENDBRANCH  12  13
ENDBRANCH   3  12
BRANCH   7  21
HETATM   21  C   UNL     1      -8.528  10.729  66.244  1.00  0.00    -0.161 C  
HETATM   22  O   UNL     1      -8.024  12.062  66.294  1.00  0.00    -0.379 OA 
HETATM   23  C   UNL     1      -9.626  10.640  65.194  1.00  0.00    -0.304 C  
HETATM   24  H   UNL     1      -7.689  12.273  65.431  1.00  0.00     0.000 HD 
ENDBRANCH   7  21
TORSDOF 6
ENDMDL
MODEL      196
REMARK 921   NORMALIZED FREE ENERGY PREDICTED BY IDOCK:   -2.89 KCAL/MOL
REMARK 922        TOTAL FREE ENERGY PREDICTED BY IDOCK:   -5.12 KCAL/MOL
REMARK 923 INTER-LIGAND FREE ENERGY PREDICTED BY IDOCK:   -4.56 KCAL/MOL
REMARK 924 INTRA-LIGAND FREE ENERGY PREDICTED BY IDOCK:   -0.56 KCAL/MOL
REMARK 927      BINDING AFFINITY PREDICTED BY RF-SCORE:    0.00 PKD
ROOT
HETATM    1  C   UNL     1     -11.013   6.136  69.236  1.00  0.00    -0.381 C  
HETATM    2  C   UNL     1     -10.283   5.011  69.960  1.00  0.00    -0.339 C  
HETATM    3  C   UNL     1     -10.253   5.491  71.389  1.00  0.00    -0.215 C  
HETATM    4  C   UNL     1     -10.762   8.175  69.642  1.00  0.00    -0.195 C  
HETATM    5  C   UNL     1     -10.857   6.688  71.506  1.00  0.00    -0.239 C  
HETATM    6  N   UNL     1     -11.368   7.132  70.291  1.00  0.00    -0.282 N  
HETATM    7  C   UNL     1     -10.237   7.276  68.511  1.00  0.00    -0.197 C  
HETATM    8  C   UNL     1     -10.969   7.546  72.734  1.00  0.00    -0.359 C  
HETATM    9  O   UNL     1     -11.574   8.736  72.523  1.00  0.00    -0.317 OA 
HETATM   10  O   UNL     1     -10.625   7.208  73.855  1.00  0.00    -0.362 OA 
HETATM   11  O   UNL     1     -10.668   9.323  70.002  1.00  0.00    -0.215 OA 
ENDROOT
BRANCH   3  12
HETATM   12  S   UNL     1      -9.328   4.578  72.515  1.00  0.00    -0.133 SA 
BRANCH  12  13
HETATM   13  C   UNL     1      -7.591   4.968  72.149  1.00  0.00    -0.094 C  
BRANCH  13  14
HETATM   14  C   UNL     1      -6.654   3.767  72.033  1.00  0.00    -0.015 C  
BRANCH  14  15
HETATM   15  N   UNL     1      -5.961   3.810  70.731  1.00  0.00    -0.014 NA 
HETATM   16  H   UNL     1      -5.046   4.241  70.603  1.00  0.00     0.000 HD 
BRANCH  15  17
HETATM   17  C   UNL     1      -6.615   3.257  69.776  1.00  0.00    -0.033 C  
HETATM   18  H1  UNL     1      -7.605   3.504  67.950  1.00  0.00     0.000 HD 
HETATM   19  N   UNL     1      -7.085   3.943  68.710  1.00  0.00    -0.050 NA 
HETATM   20  H2  UNL     1      -6.912   4.947  68.664  1.00  0.00     0.000 HD 
ENDBRANCH  15  17
ENDBRANCH  14  15
ENDBRANCH  13  14
ENDBRANCH  12  13
ENDBRANCH   3  12
BRANCH   7  21
HETATM   21  C   UNL     1     -10.708   7.627  67.111  1.00  0.00    -0.290 C  
HETATM   22  O   UNL     1     -10.771   6.415  66.363  1.00  0.00    -0.500 OA 
HETATM   23  C   UNL     1      -9.745   8.592  66.435  1.00  0.00    -0.333 C  
HETATM   24  H   UNL     1     -11.066   6.635  65.488  1.00  0.00     0.000 HD 
ENDBRANCH   7  21
TORSDOF 6
ENDMDL
MODEL      197
REMARK 921   NORMALIZED FREE ENERGY PREDICTED BY IDOCK:   -2.89 KCAL/MOL
REMARK 922        TOTAL FREE ENERGY PREDICTED BY IDOCK:   -5.11 KCAL/MOL
REMARK 923 INTER-LIGAND FREE ENERGY PREDICTED BY IDOCK:   -4.41 KCAL/MOL
REMARK 924 INTRA-LIGAND FREE ENERGY PREDICTED BY IDOCK:   -0.70 KCAL/MOL
REMARK 927      BINDING AFFINITY PREDICTED BY RF-SCORE:    0.00 PKD
ROOT
HETATM    1  C   UNL     1      -8.977  11.498  66.413  1.00  0.00    -0.197 C  
HETATM    2  C   UNL     1      -8.843  12.801  67.191  1.00  0.00    -0.202 C  
HETATM    3  C   UNL     1      -9.971  13.640  66.643  1.00  0.00    -0.283 C  
HETATM    4  C   UNL     1      -9.477  11.367  64.384  1.00  0.00    -0.135 C  
HETATM    5  C   UNL     1     -10.660  12.963  65.705  1.00  0.00    -0.275 C  
HETATM    6  N   UNL     1     -10.165  11.676  65.526  1.00  0.00    -0.249 N  
HETATM    7  C   UNL     1      -8.138  11.228  65.128  1.00  0.00     0.459 C  
HETATM    8  C   UNL     1     -11.795  13.463  64.859  1.00  0.00    -0.372 C  
HETATM    9  O   UNL     1     -12.240  12.570  63.948  1.00  0.00    -0.433 OA 
HETATM   10  O   UNL     1     -12.346  14.543  64.998  1.00  0.00    -0.403 OA 
HETATM   11  O   UNL     1      -9.886  11.348  63.249  1.00  0.00    -0.337 OA 
ENDROOT
BRANCH   3  12
HETATM   12  S   UNL     1     -10.048  15.286  67.133  1.00  0.00    -0.243 SA 
BRANCH  12  13
HETATM   13  C   UNL     1      -8.331  15.773  67.477  1.00  0.00    -0.166 C  
BRANCH  13  14
HETATM   14  C   UNL     1      -7.604  16.484  66.336  1.00  0.00    -0.214 C  
BRANCH  14  15
HETATM   15  N   UNL     1      -8.265  17.776  66.066  1.00  0.00    -0.527 NA 
HETATM   16  H   UNL     1      -9.238  17.851  65.773  1.00  0.00     0.000 HD 
BRANCH  15  17
HETATM   17  C   UNL     1      -7.503  18.795  66.233  1.00  0.00    -0.262 C  
HETATM   18  H1  UNL     1      -6.601  20.112  67.583  1.00  0.00     0.000 HD 
HETATM   19  N   UNL     1      -7.206  19.302  67.450  1.00  0.00    -0.212 NA 
HETATM   20  H2  UNL     1      -7.606  18.854  68.274  1.00  0.00     0.000 HD 
ENDBRANCH  15  17
ENDBRANCH  14  15
ENDBRANCH  13  14
ENDBRANCH  12  13
ENDBRANCH   3  12
BRANCH   7  21
HETATM   21  C   UNL     1      -7.465   9.871  65.035  1.00  0.00    -0.134 C  
HETATM   22  O   UNL     1      -8.059   9.170  63.945  1.00  0.00    -0.138 OA 
HETATM   23  C   UNL     1      -7.658   9.074  66.317  1.00  0.00    -0.092 C  
HETATM   24  H   UNL     1      -7.638   8.321  63.887  1.00  0.00     0.000 HD 
ENDBRANCH   7  21
TORSDOF 6
ENDMDL
MODEL      198
REMARK 921   NORMALIZED FREE ENERGY PREDICTED BY IDOCK:   -2.83 KCAL/MOL
REMARK 922        TOTAL FREE ENERGY PREDICTED BY IDOCK:   -5.04 KCAL/MOL
REMARK 923 INTER-LIGAND FREE ENERGY PREDICTED BY IDOCK:   -4.69 KCAL/MOL
REMARK 924 INTRA-LIGAND FREE ENERGY PREDICTED BY IDOCK:   -0.35 KCAL/MOL
REMARK 927      BINDING AFFINITY PREDICTED BY RF-SCORE:    0.00 PKD
ROOT
HETATM    1  C   UNL     1     -11.377   6.407  69.831  1.00  0.00    -0.434 C  
HETATM    2  C   UNL     1     -11.057   6.870  68.415  1.00  0.00    -0.142 C  
HETATM    3  C   UNL     1      -9.886   6.002  68.031  1.00  0.00    -0.124 C  
HETATM    4  C   UNL     1      -9.945   5.898  71.271  1.00  0.00    -0.187 C  
HETATM    5  C   UNL     1      -9.560   5.164  69.033  1.00  0.00    -0.145 C  
HETATM    6  N   UNL     1     -10.408   5.309  70.126  1.00  0.00    -0.281 N  
HETATM    7  C   UNL     1     -10.814   7.151  71.078  1.00  0.00    -0.262 C  
HETATM    8  C   UNL     1      -8.409   4.201  69.089  1.00  0.00    -0.073 C  
HETATM    9  O   UNL     1      -8.296   3.543  70.264  1.00  0.00    -0.055 OA 
HETATM   10  O   UNL     1      -7.665   3.949  68.156  1.00  0.00    -0.066 OA 
HETATM   11  O   UNL     1      -9.082   5.502  72.016  1.00  0.00    -0.140 OA 
ENDROOT
BRANCH   3  12
HETATM   12  S   UNL     1      -9.089   6.352  66.548  1.00  0.00    -0.152 SA 
BRANCH  12  13
HETATM   13  C   UNL     1      -8.969   8.164  66.476  1.00  0.00    -0.158 C  
BRANCH  13  14
HETATM   14  C   UNL     1      -8.955   8.771  65.073  1.00  0.00    -0.060 C  
BRANCH  14  15
HETATM   15  N   UNL     1      -9.587  10.103  65.110  1.00  0.00    -0.269 NA 
HETATM   16  H   UNL     1      -9.825  10.582  65.979  1.00  0.00     0.000 HD 
BRANCH  15  17
HETATM   17  C   UNL     1      -9.812  10.605  63.951  1.00  0.00    -0.338 C  
HETATM   18  H1  UNL     1      -9.848  10.302  61.882  1.00  0.00     0.000 HD 
HETATM   19  N   UNL     1      -9.670   9.904  62.803  1.00  0.00    -0.542 NA 
HETATM   20  H2  UNL     1      -9.371   8.931  62.863  1.00  0.00     0.000 HD 
ENDBRANCH  15  17
ENDBRANCH  14  15
ENDBRANCH  13  14
ENDBRANCH  12  13
ENDBRANCH   3  12
BRANCH   7  21
HETATM   21  C   UNL     1     -11.804   7.450  72.189  1.00  0.00    -0.286 C  
HETATM   22  O   UNL     1     -12.813   6.444  72.147  1.00  0.00    -0.521 OA 
HETATM   23  C   UNL     1     -12.443   8.819  72.001  1.00  0.00    -0.452 C  
HETATM   24  H   UNL     1     -13.432   6.631  72.842  1.00  0.00     0.000 HD 
ENDBRANCH   7  21
TORSDOF 6
ENDMDL
MODEL      199
REMARK 921   NORMALIZED FREE ENERGY PREDICTED BY IDOCK:   -2.81 KCAL/MOL
REMARK 922        TOTAL FREE ENERGY PREDICTED BY IDOCK:   -5.01 KCAL/MOL
REMARK 923 INTER-LIGAND FREE ENERGY PREDICTED BY IDOCK:   -4.25 KCAL/MOL
REMARK 924 INTRA-LIGAND FREE ENERGY PREDICTED BY IDOCK:   -0.76 KCAL/MOL
REMARK 927      BINDING AFFINITY PREDICTED BY RF-SCORE:    0.00 PKD
ROOT
HETATM    1  C   UNL     1      -9.574   7.276  67.593  1.00  0.00    -0.135 C  
HETATM    2  C   UNL     1      -9.742   8.363  68.647  1.00  0.00    -0.171 C  
HETATM    3  C   UNL     1      -9.838   9.623  67.823  1.00  0.00    -0.159 C  
HETATM    4  C   UNL     1      -8.423   7.470  65.854  1.00  0.00    -0.147 C  
HETATM    5  C   UNL     1      -9.746   9.345  66.509  1.00  0.00    -0.236 C  
HETATM    6  N   UNL     1      -9.622   7.979  66.276  1.00  0.00    -0.188 N  
HETATM    7  C   UNL     1      -8.166   6.747  67.186  1.00  0.00    -0.121 C  
HETATM    8  C   UNL     1      -9.711  10.316  65.365  1.00  0.00    -0.278 C  
HETATM    9  O   UNL     1      -9.539   9.738  64.155  1.00  0.00    -0.213 OA 
HETATM   10  O   UNL     1      -9.893  11.518  65.464  1.00  0.00    -0.219 OA 
HETATM   11  O   UNL     1      -7.848   7.682  64.815  1.00  0.00    -0.115 OA 
ENDROOT
BRANCH   3  12
HETATM   12  S   UNL     1      -9.841  11.123  68.663  1.00  0.00    -0.193 SA 
BRANCH  12  13
HETATM   13  C   UNL     1     -11.564  11.701  68.619  1.00  0.00    -0.312 C  
BRANCH  13  14
HETATM   14  C   UNL     1     -12.096  12.294  69.924  1.00  0.00    -0.249 C  
BRANCH  14  15
HETATM   15  N   UNL     1     -12.003  11.284  70.994  1.00  0.00    -0.304 NA 
HETATM   16  H   UNL     1     -11.137  11.082  71.494  1.00  0.00     0.000 HD 
BRANCH  15  17
HETATM   17  C   UNL     1     -13.109  10.681  71.238  1.00  0.00    -0.359 C  
HETATM   18  H1  UNL     1     -14.097   8.856  71.490  1.00  0.00     0.000 HD 
HETATM   19  N   UNL     1     -13.218   9.335  71.296  1.00  0.00    -0.493 NA 
HETATM   20  H2  UNL     1     -12.383   8.773  71.138  1.00  0.00     0.000 HD 
ENDBRANCH  15  17
ENDBRANCH  14  15
ENDBRANCH  13  14
ENDBRANCH  12  13
ENDBRANCH   3  12
BRANCH   7  21
HETATM   21  C   UNL     1      -8.010   5.239  67.104  1.00  0.00    -0.101 C  
HETATM   22  O   UNL     1      -7.941   4.890  65.725  1.00  0.00    -0.104 OA 
HETATM   23  C   UNL     1      -9.192   4.531  67.750  1.00  0.00    -0.158 C  
HETATM   24  H   UNL     1      -7.843   3.946  65.674  1.00  0.00     0.000 HD 
ENDBRANCH   7  21
TORSDOF 6
ENDMDL
MODEL      200
REMARK 921   NORMALIZED FREE ENERGY PREDICTED BY IDOCK:   -2.77 KCAL/MOL
REMARK 922        TOTAL FREE ENERGY PREDICTED BY IDOCK:   -4.96 KCAL/MOL
REMARK 923 INTER-LIGAND FREE ENERGY PREDICTED BY IDOCK:   -4.79 KCAL/MOL
REMARK 924 INTRA-LIGAND FREE ENERGY PREDICTED BY IDOCK:   -0.16 KCAL/MOL
REMARK 927      BINDING AFFINITY PREDICTED BY RF-SCORE:    0.00 PKD
ROOT
HETATM    1  C   UNL     1     -10.117   9.375  66.422  1.00  0.00    -0.262 C  
HETATM    2  C   UNL     1     -11.152  10.469  66.190  1.00  0.00     0.192 C  
HETATM    3  C   UNL     1     -10.608  11.626  66.992  1.00  0.00    -0.237 C  
HETATM    4  C   UNL     1      -9.155   9.014  68.247  1.00  0.00    -0.133 C  
HETATM    5  C   UNL     1      -9.454  11.290  67.597  1.00  0.00    -0.167 C  
HETATM    6  N   UNL     1      -9.068   9.989  67.290  1.00  0.00    -0.138 N  
HETATM    7  C   UNL     1     -10.309   8.295  67.529  1.00  0.00    -0.333 C  
HETATM    8  C   UNL     1      -8.639  12.118  68.547  1.00  0.00    -0.079 C  
HETATM    9  O   UNL     1      -7.560  11.480  69.052  1.00  0.00    -0.119 OA 
HETATM   10  O   UNL     1      -8.853  13.290  68.812  1.00  0.00    -0.021 OA 
HETATM   11  O   UNL     1      -8.545   8.931  69.285  1.00  0.00    -0.128 OA 
ENDROOT
BRANCH   3  12
HETATM   12  S   UNL     1     -11.602  13.020  67.150  1.00  0.00    -0.375 SA 
BRANCH  12  13
HETATM   13  C   UNL     1     -10.999  14.192  65.898  1.00  0.00    -0.297 C  
BRANCH  13  14
HETATM   14  C   UNL     1      -9.676  14.885  66.224  1.00  0.00    -0.296 C  
BRANCH  14  15
HETATM   15  N   UNL     1      -9.630  16.195  65.546  1.00  0.00    -0.444 NA 
HETATM   16  H   UNL     1      -9.095  16.361  64.694  1.00  0.00     0.000 HD 
BRANCH  15  17
HETATM   17  C   UNL     1     -10.324  17.105  66.126  1.00  0.00    -0.322 C  
HETATM   18  H1  UNL     1     -11.192  19.003  65.996  1.00  0.00     0.000 HD 
HETATM   19  N   UNL     1     -10.641  18.279  65.536  1.00  0.00    -0.576 NA 
HETATM   20  H2  UNL     1     -10.313  18.449  64.586  1.00  0.00     0.000 HD 
ENDBRANCH  15  17
ENDBRANCH  14  15
ENDBRANCH  13  14
ENDBRANCH  12  13
ENDBRANCH   3  12
BRANCH   7  21
HETATM   21  C   UNL     1     -10.045   6.857  67.120  1.00  0.00    -0.209 C  
HETATM   22  O   UNL     1     -11.267   6.322  66.620  1.00  0.00    -0.724 OA 
HETATM   23  C   UNL     1      -9.575   6.028  68.307  1.00  0.00    -0.126 C  
HETATM   24  H   UNL     1     -11.102   5.423  66.364  1.00  0.00     0.000 HD 
ENDBRANCH   7  21
TORSDOF 6
ENDMDL
MODEL      201
REMARK 921   NORMALIZED FREE ENERGY PREDICTED BY IDOCK:   -2.77 KCAL/MOL
REMARK 922        TOTAL FREE ENERGY PREDICTED BY IDOCK:   -4.95 KCAL/MOL
REMARK 923 INTER-LIGAND FREE ENERGY PREDICTED BY IDOCK:   -4.30 KCAL/MOL
REMARK 924 INTRA-LIGAND FREE ENERGY PREDICTED BY IDOCK:   -0.65 KCAL/MOL
REMARK 927      BINDING AFFINITY PREDICTED BY RF-SCORE:    0.00 PKD
ROOT
HETATM    1  C   UNL     1      -8.402   5.474  67.494  1.00  0.00    -0.100 C  
HETATM    2  C   UNL     1      -7.204   6.330  67.882  1.00  0.00    -0.087 C  
HETATM    3  C   UNL     1      -7.771   7.251  68.933  1.00  0.00    -0.116 C  
HETATM    4  C   UNL     1     -10.363   6.184  67.304  1.00  0.00    -0.219 C  
HETATM    5  C   UNL     1      -9.076   6.995  69.142  1.00  0.00    -0.136 C  
HETATM    6  N   UNL     1      -9.528   5.937  68.360  1.00  0.00    -0.119 N  
HETATM    7  C   UNL     1      -9.290   5.826  66.263  1.00  0.00    -0.171 C  
HETATM    8  C   UNL     1     -10.026   7.735  70.039  1.00  0.00    -0.187 C  
HETATM    9  O   UNL     1     -11.300   7.286  69.984  1.00  0.00    -0.247 OA 
HETATM   10  O   UNL     1      -9.707   8.618  70.817  1.00  0.00    -0.174 OA 
HETATM   11  O   UNL     1     -11.487   6.622  67.329  1.00  0.00    -0.206 OA 
ENDROOT
BRANCH   3  12
HETATM   12  S   UNL     1      -6.766   8.527  69.499  1.00  0.00    -0.041 SA 
BRANCH  12  13
HETATM   13  C   UNL     1      -7.370  10.027  68.669  1.00  0.00    -0.081 C  
BRANCH  13  14
HETATM   14  C   UNL     1      -6.501  11.273  68.842  1.00  0.00    -0.063 C  
BRANCH  14  15
HETATM   15  N   UNL     1      -6.576  11.731  70.242  1.00  0.00    -0.491 NA 
HETATM   16  H   UNL     1      -7.206  11.318  70.929  1.00  0.00     0.000 HD 
BRANCH  15  17
HETATM   17  C   UNL     1      -5.776  12.695  70.517  1.00  0.00    -0.169 C  
HETATM   18  H1  UNL     1      -5.279  14.246  71.829  1.00  0.00     0.000 HD 
HETATM   19  N   UNL     1      -5.914  13.479  71.610  1.00  0.00    -0.559 NA 
HETATM   20  H2  UNL     1      -6.689  13.294  72.245  1.00  0.00     0.000 HD 
ENDBRANCH  15  17
ENDBRANCH  14  15
ENDBRANCH  13  14
ENDBRANCH  12  13
ENDBRANCH   3  12
BRANCH   7  21
HETATM   21  C   UNL     1      -9.629   4.680  65.327  1.00  0.00    -0.151 C  
HETATM   22  O   UNL     1     -11.049   4.565  65.286  1.00  0.00    -0.846 OA 
HETATM   23  C   UNL     1      -9.028   3.372  65.822  1.00  0.00    -0.143 C  
HETATM   24  H   UNL     1     -11.261   3.848  64.700  1.00  0.00     0.000 HD 
ENDBRANCH   7  21
TORSDOF 6
ENDMDL
MODEL      202
REMARK 921   NORMALIZED FREE ENERGY PREDICTED BY IDOCK:   -2.76 KCAL/MOL
REMARK 922        TOTAL FREE ENERGY PREDICTED BY IDOCK:   -4.94 KCAL/MOL
REMARK 923 INTER-LIGAND FREE ENERGY PREDICTED BY IDOCK:   -5.37 KCAL/MOL
REMARK 924 INTRA-LIGAND FREE ENERGY PREDICTED BY IDOCK:    0.43 KCAL/MOL
REMARK 927      BINDING AFFINITY PREDICTED BY RF-SCORE:    0.00 PKD
ROOT
HETATM    1  C   UNL     1      -9.588   9.295  65.713  1.00  0.00    -0.271 C  
HETATM    2  C   UNL     1      -9.461   9.137  67.222  1.00  0.00    -0.187 C  
HETATM    3  C   UNL     1     -10.339  10.243  67.754  1.00  0.00    -0.204 C  
HETATM    4  C   UNL     1      -9.669  11.130  64.708  1.00  0.00    -0.257 C  
HETATM    5  C   UNL     1     -10.896  10.940  66.746  1.00  0.00    -0.224 C  
HETATM    6  N   UNL     1     -10.536  10.430  65.503  1.00  0.00    -0.183 N  
HETATM    7  C   UNL     1      -8.541  10.101  64.887  1.00  0.00    -0.188 C  
HETATM    8  C   UNL     1     -11.761  12.163  66.842  1.00  0.00    -0.301 C  
HETATM    9  O   UNL     1     -12.113  12.686  65.646  1.00  0.00    -0.438 OA 
HETATM   10  O   UNL     1     -12.192  12.632  67.882  1.00  0.00    -0.311 OA 
HETATM   11  O   UNL     1      -9.833  12.211  64.198  1.00  0.00    -0.245 OA 
ENDROOT
BRANCH   3  12
HETATM   12  S   UNL     1     -10.315  10.532  69.448  1.00  0.00    -0.218 SA 
BRANCH  12  13
HETATM   13  C   UNL     1     -12.051  10.786  69.924  1.00  0.00    -0.337 C  
BRANCH  13  14
HETATM   14  C   UNL     1     -12.292  11.833  71.011  1.00  0.00    -0.282 C  
BRANCH  14  15
HETATM   15  N   UNL     1     -11.772  13.137  70.558  1.00  0.00    -0.525 NA 
HETATM   16  H   UNL     1     -10.907  13.237  70.029  1.00  0.00     0.000 HD 
BRANCH  15  17
HETATM   17  C   UNL     1     -12.507  14.135  70.892  1.00  0.00    -0.365 C  
HETATM   18  H1  UNL     1     -12.593  16.156  71.418  1.00  0.00     0.000 HD 
HETATM   19  N   UNL     1     -12.009  15.364  71.153  1.00  0.00    -0.324 NA 
HETATM   20  H2  UNL     1     -11.002  15.504  71.082  1.00  0.00     0.000 HD 
ENDBRANCH  15  17
ENDBRANCH  14  15
ENDBRANCH  13  14
ENDBRANCH  12  13
ENDBRANCH   3  12
BRANCH   7  21
HETATM   21  C   UNL     1      -8.034   9.444  63.616  1.00  0.00    -0.142 C  
HETATM   22  O   UNL     1      -6.884  10.168  63.188  1.00  0.00    -0.128 OA 
HETATM   23  C   UNL     1      -9.092   9.477  62.523  1.00  0.00    -0.236 C  
HETATM   24  H   UNL     1      -6.566   9.757  62.393  1.00  0.00     0.000 HD 
ENDBRANCH   7  21
TORSDOF 6
ENDMDL
MODEL      203
REMARK 921   NORMALIZED FREE ENERGY PREDICTED BY IDOCK:   -2.73 KCAL/MOL
REMARK 922        TOTAL FREE ENERGY PREDICTED BY IDOCK:   -4.91 KCAL/MOL
REMARK 923 INTER-LIGAND FREE ENERGY PREDICTED BY IDOCK:   -4.27 KCAL/MOL
REMARK 924 INTRA-LIGAND FREE ENERGY PREDICTED BY IDOCK:   -0.64 KCAL/MOL
REMARK 927      BINDING AFFINITY PREDICTED BY RF-SCORE:    0.00 PKD
ROOT
HETATM    1  C   UNL     1     -10.272   8.323  68.442  1.00  0.00    -0.209 C  
HETATM    2  C   UNL     1     -10.500   9.406  67.395  1.00  0.00    -0.343 C  
HETATM    3  C   UNL     1      -9.326  10.330  67.602  1.00  0.00    -0.144 C  
HETATM    4  C   UNL     1      -9.552   8.669  70.377  1.00  0.00    -0.173 C  
HETATM    5  C   UNL     1      -8.533   9.884  68.594  1.00  0.00    -0.114 C  
HETATM    6  N   UNL     1      -8.995   8.685  69.127  1.00  0.00    -0.141 N  
HETATM    7  C   UNL     1     -10.962   8.381  69.837  1.00  0.00    -0.166 C  
HETATM    8  C   UNL     1      -7.316  10.550  69.168  1.00  0.00    -0.109 C  
HETATM    9  O   UNL     1      -6.767   9.892  70.213  1.00  0.00    -0.094 OA 
HETATM   10  O   UNL     1      -6.793  11.556  68.718  1.00  0.00    -0.070 OA 
HETATM   11  O   UNL     1      -9.021   8.913  71.433  1.00  0.00    -0.217 OA 
ENDROOT
BRANCH   3  12
HETATM   12  S   UNL     1      -9.316  11.811  66.728  1.00  0.00    -0.199 SA 
BRANCH  12  13
HETATM   13  C   UNL     1      -9.914  13.070  67.895  1.00  0.00    -0.230 C  
BRANCH  13  14
HETATM   14  C   UNL     1     -10.650  14.255  67.270  1.00  0.00    -0.278 C  
BRANCH  14  15
HETATM   15  N   UNL     1     -10.248  15.497  67.957  1.00  0.00    -0.227 NA 
HETATM   16  H   UNL     1     -10.260  15.600  68.971  1.00  0.00     0.000 HD 
BRANCH  15  17
HETATM   17  C   UNL     1      -9.882  16.436  67.162  1.00  0.00    -0.249 C  
HETATM   18  H1  UNL     1      -9.204  16.959  65.255  1.00  0.00     0.000 HD 
HETATM   19  N   UNL     1      -9.495  16.213  65.886  1.00  0.00    -0.396 NA 
HETATM   20  H2  UNL     1      -9.495  15.255  65.539  1.00  0.00     0.000 HD 
ENDBRANCH  15  17
ENDBRANCH  14  15
ENDBRANCH  13  14
ENDBRANCH  12  13
ENDBRANCH   3  12
BRANCH   7  21
HETATM   21  C   UNL     1     -11.610   7.098  70.323  1.00  0.00    -0.217 C  
HETATM   22  O   UNL     1     -11.396   7.014  71.729  1.00  0.00    -0.243 OA 
HETATM   23  C   UNL     1     -10.996   5.882  69.642  1.00  0.00    -0.447 C  
HETATM   24  H   UNL     1     -11.802   6.211  72.033  1.00  0.00     0.000 HD 
ENDBRANCH   7  21
TORSDOF 6
ENDMDL
MODEL      204
REMARK 921   NORMALIZED FREE ENERGY PREDICTED BY IDOCK:   -2.68 KCAL/MOL
REMARK 922        TOTAL FREE ENERGY PREDICTED BY IDOCK:   -4.83 KCAL/MOL
REMARK 923 INTER-LIGAND FREE ENERGY PREDICTED BY IDOCK:   -4.00 KCAL/MOL
REMARK 924 INTRA-LIGAND FREE ENERGY PREDICTED BY IDOCK:   -0.84 KCAL/MOL
REMARK 927      BINDING AFFINITY PREDICTED BY RF-SCORE:    0.00 PKD
ROOT
HETATM    1  C   UNL     1      -9.909  13.149  65.988  1.00  0.00    -0.260 C  
HETATM    2  C   UNL     1     -10.358  14.601  66.097  1.00  0.00    -0.309 C  
HETATM    3  C   UNL     1      -9.476  15.148  67.191  1.00  0.00    -0.216 C  
HETATM    4  C   UNL     1      -9.399  11.934  67.615  1.00  0.00    -0.183 C  
HETATM    5  C   UNL     1      -8.644  14.197  67.656  1.00  0.00    -0.189 C  
HETATM    6  N   UNL     1      -8.805  12.992  66.981  1.00  0.00    -0.219 N  
HETATM    7  C   UNL     1     -10.659  12.007  66.737  1.00  0.00    -0.260 C  
HETATM    8  C   UNL     1      -7.671  14.305  68.794  1.00  0.00    -0.134 C  
HETATM    9  O   UNL     1      -7.021  13.153  69.077  1.00  0.00    -0.100 OA 
HETATM   10  O   UNL     1      -7.404  15.336  69.389  1.00  0.00    -0.176 OA 
HETATM   11  O   UNL     1      -9.001  11.322  68.576  1.00  0.00    -0.161 OA 
ENDROOT
BRANCH   3  12
HETATM   12  S   UNL     1      -9.807  16.736  67.760  1.00  0.00    -0.264 SA 
BRANCH  12  13
HETATM   13  C   UNL     1      -9.480  17.836  66.350  1.00  0.00    -0.264 C  
BRANCH  13  14
HETATM   14  C   UNL     1      -8.038  18.325  66.213  1.00  0.00    -0.223 C  
BRANCH  14  15
HETATM   15  N   UNL     1      -7.171  17.550  67.120  1.00  0.00    -0.168 NA 
HETATM   16  H   UNL     1      -7.235  17.610  68.136  1.00  0.00     0.000 HD 
BRANCH  15  17
HETATM   17  C   UNL     1      -6.329  16.795  66.515  1.00  0.00    -0.021 C  
HETATM   18  H1  UNL     1      -4.482  16.645  65.545  1.00  0.00     0.000 HD 
HETATM   19  N   UNL     1      -5.152  17.245  66.026  1.00  0.00    -0.347 NA 
HETATM   20  H2  UNL     1      -4.923  18.232  66.144  1.00  0.00     0.000 HD 
ENDBRANCH  15  17
ENDBRANCH  14  15
ENDBRANCH  13  14
ENDBRANCH  12  13
ENDBRANCH   3  12
BRANCH   7  21
HETATM   21  C   UNL     1     -10.975  10.763  65.926  1.00  0.00     0.073 C  
HETATM   22  O   UNL     1     -10.237   9.683  66.491  1.00  0.00    -0.239 OA 
HETATM   23  C   UNL     1     -10.577  10.944  64.468  1.00  0.00    -0.335 C  
HETATM   24  H   UNL     1     -10.435   8.905  65.983  1.00  0.00     0.000 HD 
ENDBRANCH   7  21
TORSDOF 6
ENDMDL
MODEL      205
REMARK 921   NORMALIZED FREE ENERGY PREDICTED BY IDOCK:   -2.61 KCAL/MOL
REMARK 922        TOTAL FREE ENERGY PREDICTED BY IDOCK:   -4.73 KCAL/MOL
REMARK 923 INTER-LIGAND FREE ENERGY PREDICTED BY IDOCK:   -3.88 KCAL/MOL
REMARK 924 INTRA-LIGAND FREE ENERGY PREDICTED BY IDOCK:   -0.86 KCAL/MOL
REMARK 927      BINDING AFFINITY PREDICTED BY RF-SCORE:    0.00 PKD
ROOT
HETATM    1  C   UNL     1     -10.382   8.747  66.590  1.00  0.00    -0.228 C  
HETATM    2  C   UNL     1     -10.467   7.291  67.030  1.00  0.00    -0.398 C  
HETATM    3  C   UNL     1     -10.836   7.398  68.488  1.00  0.00    -0.026 C  
HETATM    4  C   UNL     1      -9.587  10.297  67.752  1.00  0.00    -0.152 C  
HETATM    5  C   UNL     1     -10.953   8.686  68.860  1.00  0.00     0.120 C  
HETATM    6  N   UNL     1     -10.735   9.555  67.796  1.00  0.00    -0.262 N  
HETATM    7  C   UNL     1      -9.023   9.509  66.558  1.00  0.00    -0.173 C  
HETATM    8  C   UNL     1     -11.223   9.225  70.236  1.00  0.00    -0.231 C  
HETATM    9  O   UNL     1     -11.212  10.574  70.312  1.00  0.00    -0.295 OA 
HETATM   10  O   UNL     1     -11.504   8.545  71.209  1.00  0.00    -0.258 OA 
HETATM   11  O   UNL     1      -9.230  11.166  68.510  1.00  0.00    -0.172 OA 
ENDROOT
BRANCH   3  12
HETATM   12  S   UNL     1     -10.842   5.950  69.415  1.00  0.00    -0.334 SA 
BRANCH  12  13
HETATM   13  C   UNL     1      -9.200   5.863  70.192  1.00  0.00    -0.153 C  
BRANCH  13  14
HETATM   14  C   UNL     1      -8.011   5.983  69.239  1.00  0.00    -0.103 C  
BRANCH  14  15
HETATM   15  N   UNL     1      -8.096   4.926  68.214  1.00  0.00    -0.086 NA 
HETATM   16  H   UNL     1      -8.614   4.059  68.352  1.00  0.00     0.000 HD 
BRANCH  15  17
HETATM   17  C   UNL     1      -7.460   5.197  67.133  1.00  0.00    -0.087 C  
HETATM   18  H1  UNL     1      -7.461   5.181  65.042  1.00  0.00     0.000 HD 
HETATM   19  N   UNL     1      -7.967   4.966  65.901  1.00  0.00    -0.105 NA 
HETATM   20  H2  UNL     1      -8.898   4.557  65.828  1.00  0.00     0.000 HD 
ENDBRANCH  15  17
ENDBRANCH  14  15
ENDBRANCH  13  14
ENDBRANCH  12  13
ENDBRANCH   3  12
BRANCH   7  21
HETATM   21  C   UNL     1      -8.732  10.317  65.306  1.00  0.00    -0.172 C  
HETATM   22  O   UNL     1      -8.516  11.667  65.707  1.00  0.00    -0.386 OA 
HETATM   23  C   UNL     1      -9.901  10.256  64.332  1.00  0.00    -0.374 C  
HETATM   24  H   UNL     1      -8.334  12.172  64.924  1.00  0.00     0.000 HD 
ENDBRANCH   7  21
TORSDOF 6
ENDMDL
MODEL      206
REMARK 921   NORMALIZED FREE ENERGY PREDICTED BY IDOCK:   -2.59 KCAL/MOL
REMARK 922        TOTAL FREE ENERGY PREDICTED BY IDOCK:   -4.71 KCAL/MOL
REMARK 923 INTER-LIGAND FREE ENERGY PREDICTED BY IDOCK:   -4.13 KCAL/MOL
REMARK 924 INTRA-LIGAND FREE ENERGY PREDICTED BY IDOCK:   -0.58 KCAL/MOL
REMARK 927      BINDING AFFINITY PREDICTED BY RF-SCORE:    0.00 PKD
ROOT
HETATM    1  C   UNL     1      -8.300   8.181  71.018  1.00  0.00    -0.120 C  
HETATM    2  C   UNL     1      -7.634   8.365  69.660  1.00  0.00    -0.089 C  
HETATM    3  C   UNL     1      -8.656   7.805  68.703  1.00  0.00    -0.129 C  
HETATM    4  C   UNL     1      -9.438   6.513  71.572  1.00  0.00    -0.157 C  
HETATM    5  C   UNL     1      -9.743   7.365  69.364  1.00  0.00    -0.159 C  
HETATM    6  N   UNL     1      -9.636   7.577  70.735  1.00  0.00    -0.167 N  
HETATM    7  C   UNL     1      -8.000   6.940  71.911  1.00  0.00    -0.099 C  
HETATM    8  C   UNL     1     -10.944   6.665  68.796  1.00  0.00    -0.260 C  
HETATM    9  O   UNL     1     -11.847   6.276  69.724  1.00  0.00    -0.319 OA 
HETATM   10  O   UNL     1     -11.161   6.507  67.607  1.00  0.00    -0.324 OA 
HETATM   11  O   UNL     1     -10.181   5.587  71.791  1.00  0.00    -0.189 OA 
ENDROOT
BRANCH   3  12
HETATM   12  S   UNL     1      -8.197   7.647  67.053  1.00  0.00    -0.118 SA 
BRANCH  12  13
HETATM   13  C   UNL     1      -8.384   9.307  66.335  1.00  0.00    -0.118 C  
BRANCH  13  14
HETATM   14  C   UNL     1      -9.761   9.624  65.753  1.00  0.00    -0.280 C  
BRANCH  14  15
HETATM   15  N   UNL     1      -9.690  10.883  64.987  1.00  0.00    -0.246 NA 
HETATM   16  H   UNL     1      -9.082  11.659  65.248  1.00  0.00     0.000 HD 
BRANCH  15  17
HETATM   17  C   UNL     1     -10.463  10.913  63.963  1.00  0.00    -0.309 C  
HETATM   18  H1  UNL     1     -11.544  12.086  62.612  1.00  0.00     0.000 HD 
HETATM   19  N   UNL     1     -10.930  12.062  63.426  1.00  0.00    -0.609 NA 
HETATM   20  H2  UNL     1     -10.656  12.945  63.854  1.00  0.00     0.000 HD 
ENDBRANCH  15  17
ENDBRANCH  14  15
ENDBRANCH  13  14
ENDBRANCH  12  13
ENDBRANCH   3  12
BRANCH   7  21
HETATM   21  C   UNL     1      -7.718   7.217  73.377  1.00  0.00    -0.085 C  
HETATM   22  O   UNL     1      -8.966   7.484  74.011  1.00  0.00    -0.223 OA 
HETATM   23  C   UNL     1      -6.797   8.417  73.540  1.00  0.00    -0.127 C  
HETATM   24  H   UNL     1      -8.789   7.657  74.928  1.00  0.00     0.000 HD 
ENDBRANCH   7  21
TORSDOF 6
ENDMDL
MODEL      207
REMARK 921   NORMALIZED FREE ENERGY PREDICTED BY IDOCK:   -2.57 KCAL/MOL
REMARK 922        TOTAL FREE ENERGY PREDICTED BY IDOCK:   -4.68 KCAL/MOL
REMARK 923 INTER-LIGAND FREE ENERGY PREDICTED BY IDOCK:   -4.34 KCAL/MOL
REMARK 924 INTRA-LIGAND FREE ENERGY PREDICTED BY IDOCK:   -0.34 KCAL/MOL
REMARK 927      BINDING AFFINITY PREDICTED BY RF-SCORE:    0.00 PKD
ROOT
HETATM    1  C   UNL     1      -9.089   8.560  67.960  1.00  0.00    -0.140 C  
HETATM    2  C   UNL     1      -9.357   8.276  69.433  1.00  0.00    -0.155 C  
HETATM    3  C   UNL     1     -10.454   9.254  69.773  1.00  0.00    -0.222 C  
HETATM    4  C   UNL     1      -9.084  10.468  67.097  1.00  0.00    -0.143 C  
HETATM    5  C   UNL     1     -10.788   9.993  68.698  1.00  0.00    -0.229 C  
HETATM    6  N   UNL     1     -10.056   9.630  67.572  1.00  0.00    -0.184 N  
HETATM    7  C   UNL     1      -7.946   9.520  67.512  1.00  0.00    -0.106 C  
HETATM    8  C   UNL     1     -11.767  11.129  68.632  1.00  0.00    -0.320 C  
HETATM    9  O   UNL     1     -11.836  11.730  67.423  1.00  0.00    -0.590 OA 
HETATM   10  O   UNL     1     -12.508  11.466  69.541  1.00  0.00    -0.197 OA 
HETATM   11  O   UNL     1      -9.214  11.574  66.633  1.00  0.00    -0.176 OA 
ENDROOT
BRANCH   3  12
HETATM   12  S   UNL     1     -10.917   9.389  71.423  1.00  0.00    -0.348 SA 
BRANCH  12  13
HETATM   13  C   UNL     1     -10.067   8.029  72.279  1.00  0.00    -0.246 C  
BRANCH  13  14
HETATM   14  C   UNL     1     -10.956   6.866  72.720  1.00  0.00    -0.280 C  
BRANCH  14  15
HETATM   15  N   UNL     1     -10.575   6.448  74.082  1.00  0.00    -0.432 NA 
HETATM   16  H   UNL     1     -10.335   7.109  74.820  1.00  0.00     0.000 HD 
BRANCH  15  17
HETATM   17  C   UNL     1     -10.571   5.176  74.254  1.00  0.00    -0.245 C  
HETATM   18  H1  UNL     1      -9.433   3.443  74.523  1.00  0.00     0.000 HD 
HETATM   19  N   UNL     1      -9.437   4.453  74.387  1.00  0.00    -0.110 NA 
HETATM   20  H2  UNL     1      -8.543   4.941  74.349  1.00  0.00     0.000 HD 
ENDBRANCH  15  17
ENDBRANCH  14  15
ENDBRANCH  13  14
ENDBRANCH  12  13
ENDBRANCH   3  12
BRANCH   7  21
HETATM   21  C   UNL     1      -7.052   9.025  66.390  1.00  0.00    -0.080 C  
HETATM   22  O   UNL     1      -6.301   7.924  66.894  1.00  0.00    -0.052 OA 
HETATM   23  C   UNL     1      -6.101  10.118  65.924  1.00  0.00    -0.087 C  
HETATM   24  H   UNL     1      -5.741   7.614  66.192  1.00  0.00     0.000 HD 
ENDBRANCH   7  21
TORSDOF 6
ENDMDL
MODEL      208
REMARK 921   NORMALIZED FREE ENERGY PREDICTED BY IDOCK:   -2.56 KCAL/MOL
REMARK 922        TOTAL FREE ENERGY PREDICTED BY IDOCK:   -4.68 KCAL/MOL
REMARK 923 INTER-LIGAND FREE ENERGY PREDICTED BY IDOCK:   -4.01 KCAL/MOL
REMARK 924 INTRA-LIGAND FREE ENERGY PREDICTED BY IDOCK:   -0.67 KCAL/MOL
REMARK 927      BINDING AFFINITY PREDICTED BY RF-SCORE:    0.00 PKD
ROOT
HETATM    1  C   UNL     1      -9.506   7.654  71.476  1.00  0.00    -0.143 C  
HETATM    2  C   UNL     1      -8.873   8.922  70.917  1.00  0.00    -0.268 C  
HETATM    3  C   UNL     1      -9.306   8.909  69.472  1.00  0.00    -0.155 C  
HETATM    4  C   UNL     1      -9.637   5.835  70.447  1.00  0.00    -0.168 C  
HETATM    5  C   UNL     1     -10.065   7.829  69.209  1.00  0.00    -0.199 C  
HETATM    6  N   UNL     1     -10.264   7.047  70.341  1.00  0.00    -0.195 N  
HETATM    7  C   UNL     1      -8.707   6.320  71.571  1.00  0.00    -0.134 C  
HETATM    8  C   UNL     1     -10.623   7.399  67.883  1.00  0.00    -0.190 C  
HETATM    9  O   UNL     1     -11.289   6.223  67.919  1.00  0.00    -0.257 OA 
HETATM   10  O   UNL     1     -10.569   8.056  66.856  1.00  0.00    -0.338 OA 
HETATM   11  O   UNL     1      -9.793   4.852  69.764  1.00  0.00    -0.182 OA 
ENDROOT
BRANCH   3  12
HETATM   12  S   UNL     1      -8.628  10.094  68.427  1.00  0.00    -0.122 SA 
BRANCH  12  13
HETATM   13  C   UNL     1      -9.693  11.558  68.595  1.00  0.00    -0.165 C  
BRANCH  13  14
HETATM   14  C   UNL     1      -9.797  12.446  67.355  1.00  0.00    -0.199 C  
BRANCH  14  15
HETATM   15  N   UNL     1     -10.036  13.841  67.772  1.00  0.00    -0.236 NA 
HETATM   16  H   UNL     1     -10.790  14.412  67.393  1.00  0.00     0.000 HD 
BRANCH  15  17
HETATM   17  C   UNL     1      -9.208  14.270  68.653  1.00  0.00    -0.167 C  
HETATM   18  H1  UNL     1      -8.933  15.307  70.448  1.00  0.00     0.000 HD 
HETATM   19  N   UNL     1      -9.590  14.966  69.747  1.00  0.00    -0.443 NA 
HETATM   20  H2  UNL     1     -10.583  15.159  69.877  1.00  0.00     0.000 HD 
ENDBRANCH  15  17
ENDBRANCH  14  15
ENDBRANCH  13  14
ENDBRANCH  12  13
ENDBRANCH   3  12
BRANCH   7  21
HETATM   21  C   UNL     1      -8.805   5.568  72.886  1.00  0.00    -0.117 C  
HETATM   22  O   UNL     1      -9.605   4.410  72.659  1.00  0.00    -0.131 OA 
HETATM   23  C   UNL     1      -9.451   6.429  73.962  1.00  0.00    -0.197 C  
HETATM   24  H   UNL     1      -9.667   3.940  73.482  1.00  0.00     0.000 HD 
ENDBRANCH   7  21
TORSDOF 6
ENDMDL
MODEL      209
REMARK 921   NORMALIZED FREE ENERGY PREDICTED BY IDOCK:   -2.51 KCAL/MOL
REMARK 922        TOTAL FREE ENERGY PREDICTED BY IDOCK:   -4.60 KCAL/MOL
REMARK 923 INTER-LIGAND FREE ENERGY PREDICTED BY IDOCK:   -4.10 KCAL/MOL
REMARK 924 INTRA-LIGAND FREE ENERGY PREDICTED BY IDOCK:   -0.49 KCAL/MOL
REMARK 927      BINDING AFFINITY PREDICTED BY RF-SCORE:    0.00 PKD
ROOT
HETATM    1  C   UNL     1      -9.549  10.511  68.332  1.00  0.00    -0.160 C  
HETATM    2  C   UNL     1      -9.029   9.101  68.581  1.00  0.00    -0.136 C  
HETATM    3  C   UNL     1      -8.366   8.748  67.273  1.00  0.00    -0.104 C  
HETATM    4  C   UNL     1     -10.390  11.169  66.531  1.00  0.00    -0.243 C  
HETATM    5  C   UNL     1      -8.468   9.763  66.395  1.00  0.00    -0.124 C  
HETATM    6  N   UNL     1      -9.122  10.860  66.944  1.00  0.00    -0.153 N  
HETATM    7  C   UNL     1     -11.017  10.767  67.877  1.00  0.00    -0.344 C  
HETATM    8  C   UNL     1      -8.019   9.787  64.962  1.00  0.00    -0.131 C  
HETATM    9  O   UNL     1      -8.325  10.929  64.306  1.00  0.00    -0.009 OA 
HETATM   10  O   UNL     1      -7.370   8.908  64.419  1.00  0.00    -0.095 OA 
HETATM   11  O   UNL     1     -10.752  11.525  65.436  1.00  0.00    -0.280 OA 
ENDROOT
BRANCH   3  12
HETATM   12  S   UNL     1      -7.810   7.133  67.073  1.00  0.00    -0.110 SA 
BRANCH  12  13
HETATM   13  C   UNL     1      -9.167   6.075  67.659  1.00  0.00    -0.107 C  
BRANCH  13  14
HETATM   14  C   UNL     1     -10.436   6.094  66.806  1.00  0.00    -0.252 C  
BRANCH  14  15
HETATM   15  N   UNL     1     -10.765   4.718  66.388  1.00  0.00    -0.458 NA 
HETATM   16  H   UNL     1     -11.688   4.305  66.513  1.00  0.00     0.000 HD 
BRANCH  15  17
HETATM   17  C   UNL     1      -9.783   4.088  65.853  1.00  0.00    -0.188 C  
HETATM   18  H1  UNL     1      -9.085   2.977  64.225  1.00  0.00     0.000 HD 
HETATM   19  N   UNL     1      -9.865   3.478  64.650  1.00  0.00    -0.194 NA 
HETATM   20  H2  UNL     1     -10.749   3.521  64.144  1.00  0.00     0.000 HD 
ENDBRANCH  15  17
ENDBRANCH  14  15
ENDBRANCH  13  14
ENDBRANCH  12  13
ENDBRANCH   3  12
BRANCH   7  21
HETATM   21  C   UNL     1     -11.769  11.861  68.612  1.00  0.00    -0.323 C  
HETATM   22  O   UNL     1     -11.020  13.065  68.473  1.00  0.00    -0.243 OA 
HETATM   23  C   UNL     1     -11.921  11.525  70.089  1.00  0.00    -0.452 C  
HETATM   24  H   UNL     1     -11.491  13.750  68.933  1.00  0.00     0.000 HD 
ENDBRANCH   7  21
TORSDOF 6
ENDMDL
MODEL      210
REMARK 921   NORMALIZED FREE ENERGY PREDICTED BY IDOCK:   -2.50 KCAL/MOL
REMARK 922        TOTAL FREE ENERGY PREDICTED BY IDOCK:   -4.59 KCAL/MOL
REMARK 923 INTER-LIGAND FREE ENERGY PREDICTED BY IDOCK:   -3.54 KCAL/MOL
REMARK 924 INTRA-LIGAND FREE ENERGY PREDICTED BY IDOCK:   -1.05 KCAL/MOL
REMARK 927      BINDING AFFINITY PREDICTED BY RF-SCORE:    0.00 PKD
ROOT
HETATM    1  C   UNL     1      -8.301  16.631  67.537  1.00  0.00    -0.175 C  
HETATM    2  C   UNL     1      -9.334  16.353  66.452  1.00  0.00    -0.322 C  
HETATM    3  C   UNL     1      -9.212  14.864  66.241  1.00  0.00    -0.265 C  
HETATM    4  C   UNL     1      -6.421  15.717  67.654  1.00  0.00    -0.165 C  
HETATM    5  C   UNL     1      -8.275  14.340  67.053  1.00  0.00    -0.089 C  
HETATM    6  N   UNL     1      -7.707  15.304  67.879  1.00  0.00    -0.126 N  
HETATM    7  C   UNL     1      -6.862  17.113  67.186  1.00  0.00    -0.211 C  
HETATM    8  C   UNL     1      -7.788  12.921  67.098  1.00  0.00    -0.077 C  
HETATM    9  O   UNL     1      -6.780  12.709  67.974  1.00  0.00    -0.073 OA 
HETATM   10  O   UNL     1      -8.277  11.995  66.472  1.00  0.00    -0.112 OA 
HETATM   11  O   UNL     1      -5.405  15.071  67.740  1.00  0.00    -0.229 OA 
ENDROOT
BRANCH   3  12
HETATM   12  S   UNL     1     -10.090  14.172  64.935  1.00  0.00    -0.102 SA 
BRANCH  12  13
HETATM   13  C   UNL     1     -11.675  13.635  65.645  1.00  0.00    -0.342 C  
BRANCH  13  14
HETATM   14  C   UNL     1     -11.904  12.125  65.686  1.00  0.00    -0.276 C  
BRANCH  14  15
HETATM   15  N   UNL     1     -11.212  11.558  66.859  1.00  0.00    -0.332 NA 
HETATM   16  H   UNL     1     -10.196  11.517  66.940  1.00  0.00     0.000 HD 
BRANCH  15  17
HETATM   17  C   UNL     1     -12.004  11.119  67.769  1.00  0.00     0.167 C  
HETATM   18  H1  UNL     1     -13.030  11.518  69.546  1.00  0.00     0.000 HD 
HETATM   19  N   UNL     1     -12.401  11.866  68.823  1.00  0.00    -0.181 NA 
HETATM   20  H2  UNL     1     -12.055  12.822  68.899  1.00  0.00     0.000 HD 
ENDBRANCH  15  17
ENDBRANCH  14  15
ENDBRANCH  13  14
ENDBRANCH  12  13
ENDBRANCH   3  12
BRANCH   7  21
HETATM   21  C   UNL     1      -6.328  18.283  67.991  1.00  0.00    -0.185 C  
HETATM   22  O   UNL     1      -5.177  17.828  68.698  1.00  0.00    -0.148 OA 
HETATM   23  C   UNL     1      -7.368  18.786  68.983  1.00  0.00    -0.288 C  
HETATM   24  H   UNL     1      -4.843  18.561  69.202  1.00  0.00     0.000 HD 
ENDBRANCH   7  21
TORSDOF 6
ENDMDL
MODEL      211
REMARK 921   NORMALIZED FREE ENERGY PREDICTED BY IDOCK:   -2.50 KCAL/MOL
REMARK 922        TOTAL FREE ENERGY PREDICTED BY IDOCK:   -4.58 KCAL/MOL
REMARK 923 INTER-LIGAND FREE ENERGY PREDICTED BY IDOCK:   -4.17 KCAL/MOL
REMARK 924 INTRA-LIGAND FREE ENERGY PREDICTED BY IDOCK:   -0.42 KCAL/MOL
REMARK 927      BINDING AFFINITY PREDICTED BY RF-SCORE:    0.00 PKD
ROOT
HETATM    1  C   UNL     1     -10.876  12.232  67.988  1.00  0.00    -0.220 C  
HETATM    2  C   UNL     1     -11.100  10.918  67.250  1.00  0.00    -0.350 C  
HETATM    3  C   UNL     1      -9.776  10.211  67.406  1.00  0.00    -0.161 C  
HETATM    4  C   UNL     1      -9.097  13.336  67.944  1.00  0.00    -0.203 C  
HETATM    5  C   UNL     1      -8.911  10.963  68.113  1.00  0.00    -0.144 C  
HETATM    6  N   UNL     1      -9.484  12.160  68.528  1.00  0.00    -0.167 N  
HETATM    7  C   UNL     1     -10.447  13.527  67.234  1.00  0.00    -0.248 C  
HETATM    8  C   UNL     1      -7.472  10.665  68.418  1.00  0.00    -0.093 C  
HETATM    9  O   UNL     1      -6.835  11.650  69.091  1.00  0.00    -0.098 OA 
HETATM   10  O   UNL     1      -6.908   9.613  68.167  1.00  0.00    -0.068 OA 
HETATM   11  O   UNL     1      -8.012  13.864  67.979  1.00  0.00    -0.128 OA 
ENDROOT
BRANCH   3  12
HETATM   12  S   UNL     1      -9.549   8.748  66.533  1.00  0.00    -0.257 SA 
BRANCH  12  13
HETATM   13  C   UNL     1     -10.335   7.454  67.539  1.00  0.00    -0.251 C  
BRANCH  13  14
HETATM   14  C   UNL     1      -9.978   7.463  69.025  1.00  0.00    -0.176 C  
BRANCH  14  15
HETATM   15  N   UNL     1     -10.835   6.499  69.740  1.00  0.00    -0.265 NA 
HETATM   16  H   UNL     1     -11.273   5.699  69.284  1.00  0.00     0.000 HD 
BRANCH  15  17
HETATM   17  C   UNL     1     -10.981   6.758  70.989  1.00  0.00    -0.255 C  
HETATM   18  H1  UNL     1     -10.418   7.947  72.614  1.00  0.00     0.000 HD 
HETATM   19  N   UNL     1     -10.302   7.741  71.622  1.00  0.00    -0.195 NA 
HETATM   20  H2  UNL     1      -9.644   8.302  71.083  1.00  0.00     0.000 HD 
ENDBRANCH  15  17
ENDBRANCH  14  15
ENDBRANCH  13  14
ENDBRANCH  12  13
ENDBRANCH   3  12
BRANCH   7  21
HETATM   21  C   UNL     1     -11.208  14.793  67.584  1.00  0.00    -0.323 C  
HETATM   22  O   UNL     1     -10.783  15.812  66.683  1.00  0.00    -0.314 OA 
HETATM   23  C   UNL     1     -10.921  15.227  69.015  1.00  0.00    -0.254 C  
HETATM   24  H   UNL     1     -11.259  16.604  66.902  1.00  0.00     0.000 HD 
ENDBRANCH   7  21
TORSDOF 6
ENDMDL
MODEL      212
REMARK 921   NORMALIZED FREE ENERGY PREDICTED BY IDOCK:   -2.46 KCAL/MOL
REMARK 922        TOTAL FREE ENERGY PREDICTED BY IDOCK:   -4.53 KCAL/MOL
REMARK 923 INTER-LIGAND FREE ENERGY PREDICTED BY IDOCK:   -3.73 KCAL/MOL
REMARK 924 INTRA-LIGAND FREE ENERGY PREDICTED BY IDOCK:   -0.80 KCAL/MOL
REMARK 927      BINDING AFFINITY PREDICTED BY RF-SCORE:    0.00 PKD
ROOT
HETATM    1  C   UNL     1     -10.816  11.802  68.085  1.00  0.00    -0.217 C  
HETATM    2  C   UNL     1     -11.259  10.344  68.113  1.00  0.00    -0.333 C  
HETATM    3  C   UNL     1     -10.119   9.657  68.822  1.00  0.00    -0.179 C  
HETATM    4  C   UNL     1      -8.851  12.443  67.756  1.00  0.00    -0.176 C  
HETATM    5  C   UNL     1      -9.163  10.541  69.161  1.00  0.00    -0.171 C  
HETATM    6  N   UNL     1      -9.503  11.839  68.796  1.00  0.00    -0.092 N  
HETATM    7  C   UNL     1     -10.090  12.408  66.847  1.00  0.00    -0.230 C  
HETATM    8  C   UNL     1      -7.834  10.257  69.801  1.00  0.00    -0.139 C  
HETATM    9  O   UNL     1      -7.051  11.348  69.955  1.00  0.00    -0.002 OA 
HETATM   10  O   UNL     1      -7.483   9.170  70.227  1.00  0.00    -0.073 OA 
HETATM   11  O   UNL     1      -7.685  12.748  67.683  1.00  0.00    -0.136 OA 
ENDROOT
BRANCH   3  12
HETATM   12  S   UNL     1     -10.144   7.939  68.887  1.00  0.00    -0.200 SA 
BRANCH  12  13
HETATM   13  C   UNL     1      -9.368   7.382  67.340  1.00  0.00    -0.132 C  
BRANCH  13  14
HETATM   14  C   UNL     1      -9.193   8.454  66.265  1.00  0.00    -0.208 C  
BRANCH  14  15
HETATM   15  N   UNL     1      -7.754   8.698  66.049  1.00  0.00    -0.099 NA 
HETATM   16  H   UNL     1      -7.030   8.032  66.319  1.00  0.00     0.000 HD 
BRANCH  15  17
HETATM   17  C   UNL     1      -7.496   9.824  65.491  1.00  0.00    -0.115 C  
HETATM   18  H1  UNL     1      -6.164  11.424  65.295  1.00  0.00     0.000 HD 
HETATM   19  N   UNL     1      -6.369  10.529  65.739  1.00  0.00    -0.123 NA 
HETATM   20  H2  UNL     1      -5.694  10.148  66.400  1.00  0.00     0.000 HD 
ENDBRANCH  15  17
ENDBRANCH  14  15
ENDBRANCH  13  14
ENDBRANCH  12  13
ENDBRANCH   3  12
BRANCH   7  21
HETATM   21  C   UNL     1     -10.596  13.754  66.361  1.00  0.00    -0.284 C  
HETATM   22  O   UNL     1     -11.991  13.816  66.647  1.00  0.00    -0.388 OA 
HETATM   23  C   UNL     1     -10.377  13.914  64.863  1.00  0.00    -0.430 C  
HETATM   24  H   UNL     1     -12.307  14.659  66.343  1.00  0.00     0.000 HD 
ENDBRANCH   7  21
TORSDOF 6
ENDMDL
MODEL      213
REMARK 921   NORMALIZED FREE ENERGY PREDICTED BY IDOCK:   -2.45 KCAL/MOL
REMARK 922        TOTAL FREE ENERGY PREDICTED BY IDOCK:   -4.53 KCAL/MOL
REMARK 923 INTER-LIGAND FREE ENERGY PREDICTED BY IDOCK:   -3.11 KCAL/MOL
REMARK 924 INTRA-LIGAND FREE ENERGY PREDICTED BY IDOCK:   -1.41 KCAL/MOL
REMARK 927      BINDING AFFINITY PREDICTED BY RF-SCORE:    0.00 PKD
ROOT
HETATM    1  C   UNL     1     -10.039   4.747  66.870  1.00  0.00    -0.210 C  
HETATM    2  C   UNL     1     -10.023   4.182  68.284  1.00  0.00     0.011 C  
HETATM    3  C   UNL     1     -10.281   5.398  69.139  1.00  0.00    -0.232 C  
HETATM    4  C   UNL     1      -9.227   6.596  66.317  1.00  0.00    -0.127 C  
HETATM    5  C   UNL     1     -10.428   6.498  68.376  1.00  0.00    -0.218 C  
HETATM    6  N   UNL     1     -10.334   6.204  67.020  1.00  0.00    -0.207 N  
HETATM    7  C   UNL     1      -8.723   5.154  66.142  1.00  0.00    -0.123 C  
HETATM    8  C   UNL     1     -10.613   7.916  68.833  1.00  0.00    -0.145 C  
HETATM    9  O   UNL     1     -10.658   8.819  67.829  1.00  0.00    -0.239 OA 
HETATM   10  O   UNL     1     -10.786   8.258  69.991  1.00  0.00    -0.247 OA 
HETATM   11  O   UNL     1      -8.853   7.719  66.081  1.00  0.00    -0.151 OA 
ENDROOT
BRANCH   3  12
HETATM   12  S   UNL     1     -10.148   5.216  70.843  1.00  0.00    -0.233 SA 
BRANCH  12  13
HETATM   13  C   UNL     1      -8.519   5.895  71.279  1.00  0.00    -0.128 C  
BRANCH  13  14
HETATM   14  C   UNL     1      -7.328   5.282  70.544  1.00  0.00    -0.070 C  
BRANCH  14  15
HETATM   15  N   UNL     1      -6.969   6.138  69.396  1.00  0.00    -0.065 NA 
HETATM   16  H   UNL     1      -6.712   5.764  68.483  1.00  0.00     0.000 HD 
BRANCH  15  17
HETATM   17  C   UNL     1      -7.010   7.394  69.652  1.00  0.00    -0.053 C  
HETATM   18  H1  UNL     1      -7.091   9.340  68.891  1.00  0.00     0.000 HD 
HETATM   19  N   UNL     1      -7.059   8.342  68.689  1.00  0.00    -0.071 NA 
HETATM   20  H2  UNL     1      -7.064   8.043  67.714  1.00  0.00     0.000 HD 
ENDBRANCH  15  17
ENDBRANCH  14  15
ENDBRANCH  13  14
ENDBRANCH  12  13
ENDBRANCH   3  12
BRANCH   7  21
HETATM   21  C   UNL     1      -8.568   4.674  64.710  1.00  0.00    -0.142 C  
HETATM   22  O   UNL     1      -8.427   5.826  63.884  1.00  0.00    -0.291 OA 
HETATM   23  C   UNL     1      -9.786   3.876  64.266  1.00  0.00    -0.174 C  
HETATM   24  H   UNL     1      -8.330   5.525  62.988  1.00  0.00     0.000 HD 
ENDBRANCH   7  21
TORSDOF 6
ENDMDL
MODEL      214
REMARK 921   NORMALIZED FREE ENERGY PREDICTED BY IDOCK:   -2.34 KCAL/MOL
REMARK 922        TOTAL FREE ENERGY PREDICTED BY IDOCK:   -4.37 KCAL/MOL
REMARK 923 INTER-LIGAND FREE ENERGY PREDICTED BY IDOCK:   -4.02 KCAL/MOL
REMARK 924 INTRA-LIGAND FREE ENERGY PREDICTED BY IDOCK:   -0.36 KCAL/MOL
REMARK 927      BINDING AFFINITY PREDICTED BY RF-SCORE:    0.00 PKD
ROOT
HETATM    1  C   UNL     1      -9.296   8.543  66.571  1.00  0.00    -0.203 C  
HETATM    2  C   UNL     1     -10.308   9.474  67.226  1.00  0.00    -0.319 C  
HETATM    3  C   UNL     1      -9.524  10.749  67.416  1.00  0.00    -0.154 C  
HETATM    4  C   UNL     1      -7.265   8.448  67.074  1.00  0.00    -0.080 C  
HETATM    5  C   UNL     1      -8.266  10.611  66.957  1.00  0.00    -0.124 C  
HETATM    6  N   UNL     1      -8.050   9.351  66.409  1.00  0.00    -0.107 N  
HETATM    7  C   UNL     1      -8.455   7.535  67.410  1.00  0.00    -0.115 C  
HETATM    8  C   UNL     1      -7.145  11.607  67.033  1.00  0.00    -0.145 C  
HETATM    9  O   UNL     1      -5.968  11.153  66.548  1.00  0.00    -0.114 OA 
HETATM   10  O   UNL     1      -7.260  12.758  67.421  1.00  0.00    -0.146 OA 
HETATM   11  O   UNL     1      -6.086   8.523  67.320  1.00  0.00    -0.052 OA 
ENDROOT
BRANCH   3  12
HETATM   12  S   UNL     1     -10.265  12.011  68.318  1.00  0.00    -0.209 SA 
BRANCH  12  13
HETATM   13  C   UNL     1     -11.742  12.484  67.370  1.00  0.00    -0.366 C  
BRANCH  13  14
HETATM   14  C   UNL     1     -12.086  13.973  67.380  1.00  0.00    -0.349 C  
BRANCH  14  15
HETATM   15  N   UNL     1     -11.318  14.645  68.446  1.00  0.00    -0.278 NA 
HETATM   16  H   UNL     1     -10.412  14.310  68.774  1.00  0.00     0.000 HD 
BRANCH  15  17
HETATM   17  C   UNL     1     -11.893  15.688  68.923  1.00  0.00    -0.352 C  
HETATM   18  H1  UNL     1     -13.344  16.458  70.217  1.00  0.00     0.000 HD 
HETATM   19  N   UNL     1     -12.886  15.629  69.838  1.00  0.00    -0.596 NA 
HETATM   20  H2  UNL     1     -13.193  14.713  70.164  1.00  0.00     0.000 HD 
ENDBRANCH  15  17
ENDBRANCH  14  15
ENDBRANCH  13  14
ENDBRANCH  12  13
ENDBRANCH   3  12
BRANCH   7  21
HETATM   21  C   UNL     1      -8.375   6.116  66.876  1.00  0.00    -0.106 C  
HETATM   22  O   UNL     1      -9.679   5.547  66.973  1.00  0.00    -0.128 OA 
HETATM   23  C   UNL     1      -7.395   5.280  67.687  1.00  0.00    -0.076 C  
HETATM   24  H   UNL     1      -9.628   4.660  66.638  1.00  0.00     0.000 HD 
ENDBRANCH   7  21
TORSDOF 6
ENDMDL
MODEL      215
REMARK 921   NORMALIZED FREE ENERGY PREDICTED BY IDOCK:   -2.30 KCAL/MOL
REMARK 922        TOTAL FREE ENERGY PREDICTED BY IDOCK:   -4.32 KCAL/MOL
REMARK 923 INTER-LIGAND FREE ENERGY PREDICTED BY IDOCK:   -3.32 KCAL/MOL
REMARK 924 INTRA-LIGAND FREE ENERGY PREDICTED BY IDOCK:   -1.00 KCAL/MOL
REMARK 927      BINDING AFFINITY PREDICTED BY RF-SCORE:    0.00 PKD
ROOT
HETATM    1  C   UNL     1      -7.107   5.681  67.619  1.00  0.00    -0.071 C  
HETATM    2  C   UNL     1      -6.621   7.075  67.241  1.00  0.00    -0.051 C  
HETATM    3  C   UNL     1      -7.905   7.834  67.018  1.00  0.00    -0.112 C  
HETATM    4  C   UNL     1      -8.747   4.714  66.746  1.00  0.00    -0.111 C  
HETATM    5  C   UNL     1      -8.973   7.041  67.225  1.00  0.00    -0.119 C  
HETATM    6  N   UNL     1      -8.599   5.760  67.617  1.00  0.00    -0.103 N  
HETATM    7  C   UNL     1      -7.230   4.547  66.558  1.00  0.00    -0.080 C  
HETATM    8  C   UNL     1     -10.422   7.381  67.029  1.00  0.00    -0.333 C  
HETATM    9  O   UNL     1     -11.267   6.349  67.250  1.00  0.00    -0.364 OA 
HETATM   10  O   UNL     1     -10.849   8.493  66.766  1.00  0.00    -0.153 OA 
HETATM   11  O   UNL     1      -9.769   4.258  66.295  1.00  0.00    -0.182 OA 
ENDROOT
BRANCH   3  12
HETATM   12  S   UNL     1      -7.787   9.425  66.377  1.00  0.00    -0.100 SA 
BRANCH  12  13
HETATM   13  C   UNL     1      -7.941  10.538  67.805  1.00  0.00    -0.106 C  
BRANCH  13  14
HETATM   14  C   UNL     1      -9.353  11.042  68.102  1.00  0.00    -0.173 C  
BRANCH  14  15
HETATM   15  N   UNL     1      -9.617  10.932  69.550  1.00  0.00    -0.423 NA 
HETATM   16  H   UNL     1      -9.269  11.607  70.231  1.00  0.00     0.000 HD 
BRANCH  15  17
HETATM   17  C   UNL     1     -10.324   9.911  69.874  1.00  0.00    -0.258 C  
HETATM   18  H1  UNL     1     -12.186   8.965  69.792  1.00  0.00     0.000 HD 
HETATM   19  N   UNL     1     -11.625   9.776  69.534  1.00  0.00    -0.453 NA 
HETATM   20  H2  UNL     1     -12.065  10.520  68.994  1.00  0.00     0.000 HD 
ENDBRANCH  15  17
ENDBRANCH  14  15
ENDBRANCH  13  14
ENDBRANCH  12  13
ENDBRANCH   3  12
BRANCH   7  21
HETATM   21  C   UNL     1      -6.658   3.196  66.947  1.00  0.00    -0.037 C  
HETATM   22  O   UNL     1      -7.653   2.213  66.672  1.00  0.00    -0.064 OA 
HETATM   23  C   UNL     1      -6.301   3.157  68.427  1.00  0.00    -0.032 C  
HETATM   24  H   UNL     1      -7.295   1.368  66.915  1.00  0.00     0.000 HD 
ENDBRANCH   7  21
TORSDOF 6
ENDMDL
MODEL      216
REMARK 921   NORMALIZED FREE ENERGY PREDICTED BY IDOCK:   -2.29 KCAL/MOL
REMARK 922        TOTAL FREE ENERGY PREDICTED BY IDOCK:   -4.31 KCAL/MOL
REMARK 923 INTER-LIGAND FREE ENERGY PREDICTED BY IDOCK:   -3.83 KCAL/MOL
REMARK 924 INTRA-LIGAND FREE ENERGY PREDICTED BY IDOCK:   -0.48 KCAL/MOL
REMARK 927      BINDING AFFINITY PREDICTED BY RF-SCORE:    0.00 PKD
ROOT
HETATM    1  C   UNL     1     -10.909   7.598  68.574  1.00  0.00     0.040 C  
HETATM    2  C   UNL     1     -10.108   6.359  68.194  1.00  0.00    -0.167 C  
HETATM    3  C   UNL     1      -9.967   5.631  69.507  1.00  0.00    -0.198 C  
HETATM    4  C   UNL     1     -10.650   8.688  70.343  1.00  0.00    -0.220 C  
HETATM    5  C   UNL     1     -10.574   6.308  70.499  1.00  0.00    -0.249 C  
HETATM    6  N   UNL     1     -11.187   7.467  70.036  1.00  0.00    -0.208 N  
HETATM    7  C   UNL     1     -10.209   8.953  68.895  1.00  0.00    -0.220 C  
HETATM    8  C   UNL     1     -10.595   5.973  71.963  1.00  0.00    -0.223 C  
HETATM    9  O   UNL     1     -11.229   6.887  72.730  1.00  0.00    -0.266 OA 
HETATM   10  O   UNL     1     -10.156   4.944  72.449  1.00  0.00    -0.173 OA 
HETATM   11  O   UNL     1     -10.541   9.202  71.430  1.00  0.00    -0.289 OA 
ENDROOT
BRANCH   3  12
HETATM   12  S   UNL     1      -8.942   4.251  69.545  1.00  0.00    -0.111 SA 
BRANCH  12  13
HETATM   13  C   UNL     1      -8.471   3.947  67.815  1.00  0.00    -0.095 C  
BRANCH  13  14
HETATM   14  C   UNL     1      -9.253   2.845  67.101  1.00  0.00    -0.159 C  
BRANCH  14  15
HETATM   15  N   UNL     1      -8.974   2.907  65.654  1.00  0.00    -0.140 NA 
HETATM   16  H   UNL     1      -8.253   2.346  65.202  1.00  0.00     0.000 HD 
BRANCH  15  17
HETATM   17  C   UNL     1      -9.721   3.732  65.015  1.00  0.00    -0.183 C  
HETATM   18  H1  UNL     1      -9.823   5.398  63.756  1.00  0.00     0.000 HD 
HETATM   19  N   UNL     1      -9.230   4.743  64.264  1.00  0.00    -0.322 NA 
HETATM   20  H2  UNL     1      -8.219   4.854  64.202  1.00  0.00     0.000 HD 
ENDBRANCH  15  17
ENDBRANCH  14  15
ENDBRANCH  13  14
ENDBRANCH  12  13
ENDBRANCH   3  12
BRANCH   7  21
HETATM   21  C   UNL     1     -10.797  10.188  68.237  1.00  0.00    -0.252 C  
HETATM   22  O   UNL     1     -10.737   9.992  66.826  1.00  0.00    -0.187 OA 
HETATM   23  C   UNL     1     -10.010  11.436  68.611  1.00  0.00    -0.209 C  
HETATM   24  H   UNL     1     -11.105  10.765  66.415  1.00  0.00     0.000 HD 
ENDBRANCH   7  21
TORSDOF 6
ENDMDL
MODEL      217
REMARK 921   NORMALIZED FREE ENERGY PREDICTED BY IDOCK:   -2.24 KCAL/MOL
REMARK 922        TOTAL FREE ENERGY PREDICTED BY IDOCK:   -4.24 KCAL/MOL
REMARK 923 INTER-LIGAND FREE ENERGY PREDICTED BY IDOCK:   -3.53 KCAL/MOL
REMARK 924 INTRA-LIGAND FREE ENERGY PREDICTED BY IDOCK:   -0.70 KCAL/MOL
REMARK 927      BINDING AFFINITY PREDICTED BY RF-SCORE:    0.00 PKD
ROOT
HETATM    1  C   UNL     1      -7.824   8.872  68.152  1.00  0.00    -0.101 C  
HETATM    2  C   UNL     1      -7.330   8.155  69.402  1.00  0.00    -0.076 C  
HETATM    3  C   UNL     1      -8.057   6.834  69.345  1.00  0.00    -0.123 C  
HETATM    4  C   UNL     1      -9.791   8.799  67.436  1.00  0.00    -0.194 C  
HETATM    5  C   UNL     1      -8.846   6.767  68.257  1.00  0.00    -0.125 C  
HETATM    6  N   UNL     1      -8.748   7.913  67.474  1.00  0.00    -0.125 N  
HETATM    7  C   UNL     1      -9.013   9.878  68.208  1.00  0.00    -0.119 C  
HETATM    8  C   UNL     1      -9.794   5.668  67.875  1.00  0.00    -0.133 C  
HETATM    9  O   UNL     1     -10.509   5.918  66.756  1.00  0.00    -0.233 OA 
HETATM   10  O   UNL     1      -9.889   4.597  68.452  1.00  0.00    -0.149 OA 
HETATM   11  O   UNL     1     -10.904   8.622  67.005  1.00  0.00    -0.197 OA 
ENDROOT
BRANCH   3  12
HETATM   12  S   UNL     1      -7.917   5.791  70.704  1.00  0.00    -0.111 SA 
BRANCH  12  13
HETATM   13  C   UNL     1      -8.593   6.727  72.109  1.00  0.00    -0.117 C  
BRANCH  13  14
HETATM   14  C   UNL     1      -9.776   6.079  72.827  1.00  0.00    -0.155 C  
BRANCH  14  15
HETATM   15  N   UNL     1     -10.764   5.624  71.830  1.00  0.00    -0.241 NA 
HETATM   16  H   UNL     1     -10.755   4.688  71.426  1.00  0.00     0.000 HD 
BRANCH  15  17
HETATM   17  C   UNL     1     -11.634   6.513  71.516  1.00  0.00    -0.315 C  
HETATM   18  H1  UNL     1     -12.815   7.363  70.015  1.00  0.00     0.000 HD 
HETATM   19  N   UNL     1     -12.124   6.657  70.265  1.00  0.00    -0.574 NA 
HETATM   20  H2  UNL     1     -11.786   6.029  69.536  1.00  0.00     0.000 HD 
ENDBRANCH  15  17
ENDBRANCH  14  15
ENDBRANCH  13  14
ENDBRANCH  12  13
ENDBRANCH   3  12
BRANCH   7  21
HETATM   21  C   UNL     1      -8.814  11.197  67.485  1.00  0.00    -0.139 C  
HETATM   22  O   UNL     1      -7.453  11.582  67.662  1.00  0.00    -0.098 OA 
HETATM   23  C   UNL     1      -9.725  12.276  68.054  1.00  0.00    -0.205 C  
HETATM   24  H   UNL     1      -7.329  12.407  67.209  1.00  0.00     0.000 HD 
ENDBRANCH   7  21
TORSDOF 6
ENDMDL
MODEL      218
REMARK 921   NORMALIZED FREE ENERGY PREDICTED BY IDOCK:   -2.22 KCAL/MOL
REMARK 922        TOTAL FREE ENERGY PREDICTED BY IDOCK:   -4.22 KCAL/MOL
REMARK 923 INTER-LIGAND FREE ENERGY PREDICTED BY IDOCK:   -3.66 KCAL/MOL
REMARK 924 INTRA-LIGAND FREE ENERGY PREDICTED BY IDOCK:   -0.56 KCAL/MOL
REMARK 927      BINDING AFFINITY PREDICTED BY RF-SCORE:    0.00 PKD
ROOT
HETATM    1  C   UNL     1      -9.402   4.678  66.239  1.00  0.00    -0.151 C  
HETATM    2  C   UNL     1      -9.581   4.204  67.676  1.00  0.00    -0.213 C  
HETATM    3  C   UNL     1     -10.020   5.457  68.393  1.00  0.00    -0.161 C  
HETATM    4  C   UNL     1      -8.596   6.529  65.686  1.00  0.00    -0.126 C  
HETATM    5  C   UNL     1     -10.094   6.496  67.542  1.00  0.00    -0.155 C  
HETATM    6  N   UNL     1      -9.780   6.123  66.239  1.00  0.00    -0.111 N  
HETATM    7  C   UNL     1      -8.009   5.108  65.691  1.00  0.00    -0.108 C  
HETATM    8  C   UNL     1     -10.409   7.928  67.865  1.00  0.00    -0.221 C  
HETATM    9  O   UNL     1     -10.337   8.763  66.804  1.00  0.00    -0.279 OA 
HETATM   10  O   UNL     1     -10.773   8.334  68.956  1.00  0.00    -0.184 OA 
HETATM   11  O   UNL     1      -8.238   7.653  65.430  1.00  0.00    -0.126 OA 
ENDROOT
BRANCH   3  12
HETATM   12  S   UNL     1     -10.144   5.389  70.107  1.00  0.00    -0.274 SA 
BRANCH  12  13
HETATM   13  C   UNL     1      -8.753   6.377  70.734  1.00  0.00    -0.140 C  
BRANCH  13  14
HETATM   14  C   UNL     1      -9.133   7.598  71.572  1.00  0.00    -0.132 C  
BRANCH  14  15
HETATM   15  N   UNL     1      -9.258   7.200  72.987  1.00  0.00    -0.136 NA 
HETATM   16  H   UNL     1      -8.454   6.995  73.580  1.00  0.00     0.000 HD 
BRANCH  15  17
HETATM   17  C   UNL     1     -10.469   7.135  73.405  1.00  0.00    -0.368 C  
HETATM   18  H1  UNL     1     -12.438   7.806  73.195  1.00  0.00     0.000 HD 
HETATM   19  N   UNL     1     -11.476   7.857  72.863  1.00  0.00    -0.553 NA 
HETATM   20  H2  UNL     1     -11.262   8.482  72.086  1.00  0.00     0.000 HD 
ENDBRANCH  15  17
ENDBRANCH  14  15
ENDBRANCH  13  14
ENDBRANCH  12  13
ENDBRANCH   3  12
BRANCH   7  21
HETATM   21  C   UNL     1      -7.615   4.547  64.337  1.00  0.00    -0.072 C  
HETATM   22  O   UNL     1      -7.208   5.642  63.521  1.00  0.00    -0.048 OA 
HETATM   23  C   UNL     1      -8.785   3.830  63.679  1.00  0.00    -0.098 C  
HETATM   24  H   UNL     1      -6.961   5.291  62.673  1.00  0.00     0.000 HD 
ENDBRANCH   7  21
TORSDOF 6
ENDMDL
MODEL      219
REMARK 921   NORMALIZED FREE ENERGY PREDICTED BY IDOCK:   -2.19 KCAL/MOL
REMARK 922        TOTAL FREE ENERGY PREDICTED BY IDOCK:   -4.17 KCAL/MOL
REMARK 923 INTER-LIGAND FREE ENERGY PREDICTED BY IDOCK:   -3.49 KCAL/MOL
REMARK 924 INTRA-LIGAND FREE ENERGY PREDICTED BY IDOCK:   -0.68 KCAL/MOL
REMARK 927      BINDING AFFINITY PREDICTED BY RF-SCORE:    0.00 PKD
ROOT
HETATM    1  C   UNL     1     -10.601  11.318  68.842  1.00  0.00    -0.207 C  
HETATM    2  C   UNL     1     -10.751   9.862  68.421  1.00  0.00    -0.271 C  
HETATM    3  C   UNL     1      -9.505   9.615  67.606  1.00  0.00    -0.133 C  
HETATM    4  C   UNL     1      -9.840  12.840  67.621  1.00  0.00    -0.214 C  
HETATM    5  C   UNL     1      -8.743  10.723  67.548  1.00  0.00    -0.125 C  
HETATM    6  N   UNL     1      -9.294  11.771  68.278  1.00  0.00    -0.189 N  
HETATM    7  C   UNL     1     -11.274  12.471  68.038  1.00  0.00    -0.316 C  
HETATM    8  C   UNL     1      -7.472  10.924  66.774  1.00  0.00    -0.134 C  
HETATM    9  O   UNL     1      -6.969  12.176  66.854  1.00  0.00    -0.104 OA 
HETATM   10  O   UNL     1      -6.874  10.047  66.174  1.00  0.00    -0.091 OA 
HETATM   11  O   UNL     1      -9.283  13.647  66.918  1.00  0.00    -0.237 OA 
ENDROOT
BRANCH   3  12
HETATM   12  S   UNL     1      -9.385   8.116  66.773  1.00  0.00    -0.197 SA 
BRANCH  12  13
HETATM   13  C   UNL     1      -8.874   6.902  68.026  1.00  0.00    -0.123 C  
BRANCH  13  14
HETATM   14  C   UNL     1      -7.856   5.861  67.562  1.00  0.00    -0.098 C  
BRANCH  14  15
HETATM   15  N   UNL     1      -7.551   6.078  66.135  1.00  0.00    -0.085 NA 
HETATM   16  H   UNL     1      -8.243   6.406  65.462  1.00  0.00     0.000 HD 
BRANCH  15  17
HETATM   17  C   UNL     1      -6.335   5.816  65.818  1.00  0.00    -0.042 C  
HETATM   18  H1  UNL     1      -4.631   6.402  64.757  1.00  0.00     0.000 HD 
HETATM   19  N   UNL     1      -5.596   6.610  65.010  1.00  0.00    -0.029 NA 
HETATM   20  H2  UNL     1      -6.026   7.455  64.636  1.00  0.00     0.000 HD 
ENDBRANCH  15  17
ENDBRANCH  14  15
ENDBRANCH  13  14
ENDBRANCH  12  13
ENDBRANCH   3  12
BRANCH   7  21
HETATM   21  C   UNL     1     -12.018  13.515  68.851  1.00  0.00    -0.341 C  
HETATM   22  O   UNL     1     -11.524  14.794  68.463  1.00  0.00    -0.279 OA 
HETATM   23  C   UNL     1     -11.790  13.313  70.342  1.00  0.00    -0.270 C  
HETATM   24  H   UNL     1     -11.990  15.447  68.971  1.00  0.00     0.000 HD 
ENDBRANCH   7  21
TORSDOF 6
ENDMDL
MODEL      220
REMARK 921   NORMALIZED FREE ENERGY PREDICTED BY IDOCK:   -2.18 KCAL/MOL
REMARK 922        TOTAL FREE ENERGY PREDICTED BY IDOCK:   -4.16 KCAL/MOL
REMARK 923 INTER-LIGAND FREE ENERGY PREDICTED BY IDOCK:   -3.20 KCAL/MOL
REMARK 924 INTRA-LIGAND FREE ENERGY PREDICTED BY IDOCK:   -0.96 KCAL/MOL
REMARK 927      BINDING AFFINITY PREDICTED BY RF-SCORE:    0.00 PKD
ROOT
HETATM    1  C   UNL     1     -10.219   6.717  69.828  1.00  0.00    -0.187 C  
HETATM    2  C   UNL     1      -9.293   7.015  68.656  1.00  0.00    -0.136 C  
HETATM    3  C   UNL     1      -8.865   5.640  68.205  1.00  0.00    -0.108 C  
HETATM    4  C   UNL     1      -9.899   5.210  71.247  1.00  0.00    -0.177 C  
HETATM    5  C   UNL     1      -9.432   4.687  68.967  1.00  0.00    -0.155 C  
HETATM    6  N   UNL     1     -10.275   5.228  69.932  1.00  0.00    -0.272 N  
HETATM    7  C   UNL     1      -9.703   6.735  71.299  1.00  0.00    -0.179 C  
HETATM    8  C   UNL     1      -9.203   3.204  68.905  1.00  0.00    -0.161 C  
HETATM    9  O   UNL     1      -9.864   2.503  69.853  1.00  0.00     0.035 OA 
HETATM   10  O   UNL     1      -8.548   2.634  68.049  1.00  0.00    -0.079 OA 
HETATM   11  O   UNL     1      -9.726   4.253  71.961  1.00  0.00    -0.148 OA 
ENDROOT
BRANCH   3  12
HETATM   12  S   UNL     1      -7.641   5.545  67.001  1.00  0.00    -0.093 SA 
BRANCH  12  13
HETATM   13  C   UNL     1      -8.525   5.455  65.415  1.00  0.00    -0.144 C  
BRANCH  13  14
HETATM   14  C   UNL     1      -9.642   4.415  65.337  1.00  0.00    -0.184 C  
BRANCH  14  15
HETATM   15  N   UNL     1      -9.055   3.086  65.082  1.00  0.00    -0.144 NA 
HETATM   16  H   UNL     1      -8.388   2.642  65.713  1.00  0.00     0.000 HD 
BRANCH  15  17
HETATM   17  C   UNL     1      -9.460   2.539  63.994  1.00  0.00    -0.127 C  
HETATM   18  H1  UNL     1      -8.939   1.619  62.190  1.00  0.00     0.000 HD 
HETATM   19  N   UNL     1      -8.618   2.053  63.055  1.00  0.00    -0.076 NA 
HETATM   20  H2  UNL     1      -7.614   2.125  63.218  1.00  0.00     0.000 HD 
ENDBRANCH  15  17
ENDBRANCH  14  15
ENDBRANCH  13  14
ENDBRANCH  12  13
ENDBRANCH   3  12
BRANCH   7  21
HETATM   21  C   UNL     1     -10.560   7.481  72.305  1.00  0.00    -0.236 C  
HETATM   22  O   UNL     1     -10.537   6.740  73.522  1.00  0.00    -0.297 OA 
HETATM   23  C   UNL     1     -11.995   7.609  71.814  1.00  0.00    -0.333 C  
HETATM   24  H   UNL     1     -11.073   7.207  74.151  1.00  0.00     0.000 HD 
ENDBRANCH   7  21
TORSDOF 6
ENDMDL
MODEL      221
REMARK 921   NORMALIZED FREE ENERGY PREDICTED BY IDOCK:   -2.17 KCAL/MOL
REMARK 922        TOTAL FREE ENERGY PREDICTED BY IDOCK:   -4.15 KCAL/MOL
REMARK 923 INTER-LIGAND FREE ENERGY PREDICTED BY IDOCK:   -3.76 KCAL/MOL
REMARK 924 INTRA-LIGAND FREE ENERGY PREDICTED BY IDOCK:   -0.39 KCAL/MOL
REMARK 927      BINDING AFFINITY PREDICTED BY RF-SCORE:    0.00 PKD
ROOT
HETATM    1  C   UNL     1      -9.472   9.448  70.443  1.00  0.00    -0.268 C  
HETATM    2  C   UNL     1      -9.430   8.931  71.875  1.00  0.00    -0.301 C  
HETATM    3  C   UNL     1      -9.112   7.467  71.698  1.00  0.00    -0.130 C  
HETATM    4  C   UNL     1     -10.280   8.398  68.820  1.00  0.00    -0.207 C  
HETATM    5  C   UNL     1      -8.985   7.158  70.394  1.00  0.00    -0.155 C  
HETATM    6  N   UNL     1      -9.147   8.273  69.579  1.00  0.00    -0.153 N  
HETATM    7  C   UNL     1     -10.814   9.570  69.660  1.00  0.00    -0.255 C  
HETATM    8  C   UNL     1      -8.756   5.803  69.788  1.00  0.00    -0.127 C  
HETATM    9  O   UNL     1      -8.744   5.797  68.437  1.00  0.00    -0.112 OA 
HETATM   10  O   UNL     1      -8.523   4.786  70.421  1.00  0.00    -0.088 OA 
HETATM   11  O   UNL     1     -10.647   7.700  67.907  1.00  0.00    -0.212 OA 
ENDROOT
BRANCH   3  12
HETATM   12  S   UNL     1      -9.168   6.466  73.095  1.00  0.00    -0.127 SA 
BRANCH  12  13
HETATM   13  C   UNL     1     -10.605   5.378  72.858  1.00  0.00    -0.229 C  
BRANCH  13  14
HETATM   14  C   UNL     1     -10.711   4.201  73.827  1.00  0.00    -0.245 C  
BRANCH  14  15
HETATM   15  N   UNL     1     -10.257   2.970  73.153  1.00  0.00    -0.132 NA 
HETATM   16  H   UNL     1      -9.441   2.940  72.543  1.00  0.00     0.000 HD 
BRANCH  15  17
HETATM   17  C   UNL     1     -10.982   1.942  73.404  1.00  0.00    -0.162 C  
HETATM   18  H1  UNL     1     -12.746   1.198  74.244  1.00  0.00     0.000 HD 
HETATM   19  N   UNL     1     -12.170   2.015  74.044  1.00  0.00     0.339 NA 
HETATM   20  H2  UNL     1     -12.506   2.931  74.340  1.00  0.00     0.000 HD 
ENDBRANCH  15  17
ENDBRANCH  14  15
ENDBRANCH  13  14
ENDBRANCH  12  13
ENDBRANCH   3  12
BRANCH   7  21
HETATM   21  C   UNL     1     -11.044  10.872  68.915  1.00  0.00    -0.252 C  
HETATM   22  O   UNL     1     -12.089  10.648  67.972  1.00  0.00    -0.755 OA 
HETATM   23  C   UNL     1      -9.784  11.313  68.182  1.00  0.00    -0.188 C  
HETATM   24  H   UNL     1     -12.233  11.463  67.506  1.00  0.00     0.000 HD 
ENDBRANCH   7  21
TORSDOF 6
ENDMDL
MODEL      222
REMARK 921   NORMALIZED FREE ENERGY PREDICTED BY IDOCK:   -2.16 KCAL/MOL
REMARK 922        TOTAL FREE ENERGY PREDICTED BY IDOCK:   -4.13 KCAL/MOL
REMARK 923 INTER-LIGAND FREE ENERGY PREDICTED BY IDOCK:   -3.93 KCAL/MOL
REMARK 924 INTRA-LIGAND FREE ENERGY PREDICTED BY IDOCK:   -0.21 KCAL/MOL
REMARK 927      BINDING AFFINITY PREDICTED BY RF-SCORE:    0.00 PKD
ROOT
HETATM    1  C   UNL     1      -7.896  12.967  67.243  1.00  0.00    -0.131 C  
HETATM    2  C   UNL     1      -9.155  13.788  66.991  1.00  0.00    -0.253 C  
HETATM    3  C   UNL     1      -8.784  15.149  67.527  1.00  0.00    -0.177 C  
HETATM    4  C   UNL     1      -6.696  13.119  68.952  1.00  0.00    -0.099 C  
HETATM    5  C   UNL     1      -7.529  15.147  68.012  1.00  0.00    -0.120 C  
HETATM    6  N   UNL     1      -6.914  13.910  67.856  1.00  0.00    -0.141 N  
HETATM    7  C   UNL     1      -7.743  12.081  68.516  1.00  0.00    -0.127 C  
HETATM    8  C   UNL     1      -6.810  16.268  68.707  1.00  0.00    -0.151 C  
HETATM    9  O   UNL     1      -5.575  15.943  69.149  1.00  0.00    -0.108 OA 
HETATM   10  O   UNL     1      -7.235  17.406  68.818  1.00  0.00    -0.230 OA 
HETATM   11  O   UNL     1      -5.978  13.335  69.897  1.00  0.00    -0.119 OA 
ENDROOT
BRANCH   3  12
HETATM   12  S   UNL     1     -10.025  16.336  67.607  1.00  0.00    -0.252 SA 
BRANCH  12  13
HETATM   13  C   UNL     1      -9.522  17.645  66.450  1.00  0.00    -0.259 C  
BRANCH  13  14
HETATM   14  C   UNL     1     -10.027  19.049  66.780  1.00  0.00    -0.360 C  
BRANCH  14  15
HETATM   15  N   UNL     1     -10.640  19.046  68.121  1.00  0.00    -0.365 NA 
HETATM   16  H   UNL     1     -11.581  18.697  68.301  1.00  0.00     0.000 HD 
BRANCH  15  17
HETATM   17  C   UNL     1      -9.883  19.522  69.041  1.00  0.00    -0.418 C  
HETATM   18  H1  UNL     1      -9.693  20.838  70.655  1.00  0.00     0.000 HD 
HETATM   19  N   UNL     1     -10.294  20.459  69.924  1.00  0.00    -0.421 NA 
HETATM   20  H2  UNL     1     -11.251  20.804  69.855  1.00  0.00     0.000 HD 
ENDBRANCH  15  17
ENDBRANCH  14  15
ENDBRANCH  13  14
ENDBRANCH  12  13
ENDBRANCH   3  12
BRANCH   7  21
HETATM   21  C   UNL     1      -7.229  10.670  68.296  1.00  0.00    -0.083 C  
HETATM   22  O   UNL     1      -7.129  10.046  69.574  1.00  0.00    -0.068 OA 
HETATM   23  C   UNL     1      -5.861  10.682  67.629  1.00  0.00    -0.044 C  
HETATM   24  H   UNL     1      -6.808   9.163  69.437  1.00  0.00     0.000 HD 
ENDBRANCH   7  21
TORSDOF 6
ENDMDL
MODEL      223
REMARK 921   NORMALIZED FREE ENERGY PREDICTED BY IDOCK:   -2.15 KCAL/MOL
REMARK 922        TOTAL FREE ENERGY PREDICTED BY IDOCK:   -4.11 KCAL/MOL
REMARK 923 INTER-LIGAND FREE ENERGY PREDICTED BY IDOCK:   -3.67 KCAL/MOL
REMARK 924 INTRA-LIGAND FREE ENERGY PREDICTED BY IDOCK:   -0.44 KCAL/MOL
REMARK 927      BINDING AFFINITY PREDICTED BY RF-SCORE:    0.00 PKD
ROOT
HETATM    1  C   UNL     1      -8.969   8.649  70.225  1.00  0.00    -0.154 C  
HETATM    2  C   UNL     1      -8.657  10.054  69.725  1.00  0.00    -0.192 C  
HETATM    3  C   UNL     1      -7.696   9.805  68.590  1.00  0.00    -0.080 C  
HETATM    4  C   UNL     1      -7.570   7.098  70.371  1.00  0.00    -0.089 C  
HETATM    5  C   UNL     1      -7.470   8.487  68.434  1.00  0.00    -0.095 C  
HETATM    6  N   UNL     1      -8.206   7.724  69.334  1.00  0.00    -0.129 N  
HETATM    7  C   UNL     1      -8.199   8.023  71.426  1.00  0.00    -0.127 C  
HETATM    8  C   UNL     1      -6.519   7.824  67.479  1.00  0.00    -0.055 C  
HETATM    9  O   UNL     1      -6.457   6.480  67.605  1.00  0.00    -0.047 OA 
HETATM   10  O   UNL     1      -5.895   8.400  66.604  1.00  0.00    -0.046 OA 
HETATM   11  O   UNL     1      -6.751   6.213  70.319  1.00  0.00    -0.046 OA 
ENDROOT
BRANCH   3  12
HETATM   12  S   UNL     1      -6.942  11.173  67.872  1.00  0.00    -0.071 SA 
BRANCH  12  13
HETATM   13  C   UNL     1      -8.219  11.942  66.831  1.00  0.00    -0.157 C  
BRANCH  13  14
HETATM   14  C   UNL     1      -9.173  10.974  66.131  1.00  0.00    -0.190 C  
BRANCH  14  15
HETATM   15  N   UNL     1      -9.472  11.476  64.777  1.00  0.00    -0.376 NA 
HETATM   16  H   UNL     1      -8.874  12.140  64.286  1.00  0.00     0.000 HD 
BRANCH  15  17
HETATM   17  C   UNL     1     -10.553  11.002  64.273  1.00  0.00    -0.331 C  
HETATM   18  H1  UNL     1     -11.859  10.957  62.641  1.00  0.00     0.000 HD 
HETATM   19  N   UNL     1     -11.000  11.333  63.041  1.00  0.00    -0.836 NA 
HETATM   20  H2  UNL     1     -10.452  11.990  62.487  1.00  0.00     0.000 HD 
ENDBRANCH  15  17
ENDBRANCH  14  15
ENDBRANCH  13  14
ENDBRANCH  12  13
ENDBRANCH   3  12
BRANCH   7  21
HETATM   21  C   UNL     1      -9.044   7.341  72.487  1.00  0.00    -0.134 C  
HETATM   22  O   UNL     1     -10.411   7.510  72.120  1.00  0.00    -0.202 OA 
HETATM   23  C   UNL     1      -8.806   7.958  73.858  1.00  0.00    -0.315 C  
HETATM   24  H   UNL     1     -10.940   7.084  72.784  1.00  0.00     0.000 HD 
ENDBRANCH   7  21
TORSDOF 6
ENDMDL
MODEL      224
REMARK 921   NORMALIZED FREE ENERGY PREDICTED BY IDOCK:   -2.14 KCAL/MOL
REMARK 922        TOTAL FREE ENERGY PREDICTED BY IDOCK:   -4.10 KCAL/MOL
REMARK 923 INTER-LIGAND FREE ENERGY PREDICTED BY IDOCK:   -3.70 KCAL/MOL
REMARK 924 INTRA-LIGAND FREE ENERGY PREDICTED BY IDOCK:   -0.40 KCAL/MOL
REMARK 927      BINDING AFFINITY PREDICTED BY RF-SCORE:    0.00 PKD
ROOT
HETATM    1  C   UNL     1     -11.982  15.072  68.508  1.00  0.00    -0.225 C  
HETATM    2  C   UNL     1     -11.860  15.948  67.267  1.00  0.00     0.542 C  
HETATM    3  C   UNL     1     -10.377  15.938  66.989  1.00  0.00    -0.297 C  
HETATM    4  C   UNL     1     -10.626  15.071  70.104  1.00  0.00    -0.127 C  
HETATM    5  C   UNL     1      -9.724  15.190  67.898  1.00  0.00    -0.208 C  
HETATM    6  N   UNL     1     -10.595  14.611  68.815  1.00  0.00    -0.241 N  
HETATM    7  C   UNL     1     -12.024  15.688  69.939  1.00  0.00    -0.376 C  
HETATM    8  C   UNL     1      -8.242  14.989  68.028  1.00  0.00    -0.137 C  
HETATM    9  O   UNL     1      -7.877  14.236  69.091  1.00  0.00    -0.090 OA 
HETATM   10  O   UNL     1      -7.410  15.388  67.230  1.00  0.00    -0.194 OA 
HETATM   11  O   UNL     1      -9.750  15.025  70.933  1.00  0.00     0.761 OA 
ENDROOT
BRANCH   3  12
HETATM   12  S   UNL     1      -9.792  16.986  65.759  1.00  0.00    -0.017 SA 
BRANCH  12  13
HETATM   13  C   UNL     1      -8.926  18.326  66.631  1.00  0.00    -0.288 C  
BRANCH  13  14
HETATM   14  C   UNL     1      -9.293  19.744  66.196  1.00  0.00    -0.363 C  
BRANCH  14  15
HETATM   15  N   UNL     1      -9.819  20.490  67.355  1.00  0.00    -0.456 NA 
HETATM   16  H   UNL     1     -10.232  21.419  67.277  1.00  0.00     0.000 HD 
BRANCH  15  17
HETATM   17  C   UNL     1      -9.710  19.863  68.470  1.00  0.00    -0.318 C  
HETATM   18  H1  UNL     1     -10.546  19.447  70.340  1.00  0.00     0.000 HD 
HETATM   19  N   UNL     1     -10.632  19.945  69.455  1.00  0.00    -0.378 NA 
HETATM   20  H2  UNL     1     -11.452  20.531  69.304  1.00  0.00     0.000 HD 
ENDBRANCH  15  17
ENDBRANCH  14  15
ENDBRANCH  13  14
ENDBRANCH  12  13
ENDBRANCH   3  12
BRANCH   7  21
HETATM   21  C   UNL     1     -13.099  15.157  70.869  1.00  0.00    -0.441 C  
HETATM   22  O   UNL     1     -13.035  15.915  72.075  1.00  0.00    -0.449 OA 
HETATM   23  C   UNL     1     -12.874  13.685  71.182  1.00  0.00    -0.399 C  
HETATM   24  H   UNL     1     -13.708  15.583  72.657  1.00  0.00     0.000 HD 
ENDBRANCH   7  21
TORSDOF 6
ENDMDL
MODEL      225
REMARK 921   NORMALIZED FREE ENERGY PREDICTED BY IDOCK:   -2.10 KCAL/MOL
REMARK 922        TOTAL FREE ENERGY PREDICTED BY IDOCK:   -4.05 KCAL/MOL
REMARK 923 INTER-LIGAND FREE ENERGY PREDICTED BY IDOCK:   -3.41 KCAL/MOL
REMARK 924 INTRA-LIGAND FREE ENERGY PREDICTED BY IDOCK:   -0.63 KCAL/MOL
REMARK 927      BINDING AFFINITY PREDICTED BY RF-SCORE:    0.00 PKD
ROOT
HETATM    1  C   UNL     1      -9.091  10.443  69.136  1.00  0.00    -0.187 C  
HETATM    2  C   UNL     1      -8.085   9.433  69.672  1.00  0.00    -0.123 C  
HETATM    3  C   UNL     1      -7.553   8.787  68.418  1.00  0.00    -0.095 C  
HETATM    4  C   UNL     1     -10.377  10.101  67.519  1.00  0.00    -0.230 C  
HETATM    5  C   UNL     1      -8.133   9.313  67.323  1.00  0.00    -0.113 C  
HETATM    6  N   UNL     1      -9.032  10.323  67.648  1.00  0.00    -0.134 N  
HETATM    7  C   UNL     1     -10.610  10.106  69.039  1.00  0.00    -0.245 C  
HETATM    8  C   UNL     1      -7.948   8.894  65.893  1.00  0.00    -0.107 C  
HETATM    9  O   UNL     1      -8.727   9.566  65.016  1.00  0.00    -0.154 OA 
HETATM   10  O   UNL     1      -7.129   8.079  65.505  1.00  0.00    -0.059 OA 
HETATM   11  O   UNL     1     -11.004   9.893  66.509  1.00  0.00     0.015 OA 
ENDROOT
BRANCH   3  12
HETATM   12  S   UNL     1      -6.512   7.430  68.602  1.00  0.00    -0.045 SA 
BRANCH  12  13
HETATM   13  C   UNL     1      -7.587   5.970  68.473  1.00  0.00    -0.091 C  
BRANCH  13  14
HETATM   14  C   UNL     1      -7.809   5.195  69.771  1.00  0.00    -0.072 C  
BRANCH  14  15
HETATM   15  N   UNL     1      -8.509   6.057  70.742  1.00  0.00    -0.129 NA 
HETATM   16  H   UNL     1      -8.033   6.763  71.303  1.00  0.00     0.000 HD 
BRANCH  15  17
HETATM   17  C   UNL     1      -9.771   5.838  70.817  1.00  0.00    -0.174 C  
HETATM   18  H1  UNL     1     -11.651   6.565  71.373  1.00  0.00     0.000 HD 
HETATM   19  N   UNL     1     -10.648   6.739  71.313  1.00  0.00    -0.217 NA 
HETATM   20  H2  UNL     1     -10.290   7.634  71.643  1.00  0.00     0.000 HD 
ENDBRANCH  15  17
ENDBRANCH  14  15
ENDBRANCH  13  14
ENDBRANCH  12  13
ENDBRANCH   3  12
BRANCH   7  21
HETATM   21  C   UNL     1     -11.569  11.160  69.560  1.00  0.00    -0.321 C  
HETATM   22  O   UNL     1     -10.811  12.338  69.823  1.00  0.00    -0.435 OA 
HETATM   23  C   UNL     1     -12.248  10.696  70.841  1.00  0.00    -0.497 C  
HETATM   24  H   UNL     1     -11.412  12.997  70.149  1.00  0.00     0.000 HD 
ENDBRANCH   7  21
TORSDOF 6
ENDMDL
MODEL      226
REMARK 921   NORMALIZED FREE ENERGY PREDICTED BY IDOCK:   -1.95 KCAL/MOL
REMARK 922        TOTAL FREE ENERGY PREDICTED BY IDOCK:   -3.85 KCAL/MOL
REMARK 923 INTER-LIGAND FREE ENERGY PREDICTED BY IDOCK:   -3.14 KCAL/MOL
REMARK 924 INTRA-LIGAND FREE ENERGY PREDICTED BY IDOCK:   -0.71 KCAL/MOL
REMARK 927      BINDING AFFINITY PREDICTED BY RF-SCORE:    0.00 PKD
ROOT
HETATM    1  C   UNL     1      -8.337   6.204  67.596  1.00  0.00    -0.112 C  
HETATM    2  C   UNL     1      -8.810   7.511  68.220  1.00  0.00    -0.125 C  
HETATM    3  C   UNL     1      -8.848   8.454  67.043  1.00  0.00    -0.134 C  
HETATM    4  C   UNL     1      -6.881   6.057  66.098  1.00  0.00    -0.061 C  
HETATM    5  C   UNL     1      -8.469   7.828  65.914  1.00  0.00    -0.142 C  
HETATM    6  N   UNL     1      -8.180   6.486  66.137  1.00  0.00    -0.117 N  
HETATM    7  C   UNL     1      -6.834   5.792  67.612  1.00  0.00    -0.060 C  
HETATM    8  C   UNL     1      -8.290   8.425  64.548  1.00  0.00    -0.116 C  
HETATM    9  O   UNL     1      -7.826   7.556  63.622  1.00  0.00    -0.121 OA 
HETATM   10  O   UNL     1      -8.593   9.565  64.239  1.00  0.00    -0.173 OA 
HETATM   11  O   UNL     1      -6.128   6.043  65.155  1.00  0.00    -0.028 OA 
ENDROOT
BRANCH   3  12
HETATM   12  S   UNL     1      -9.154  10.115  67.365  1.00  0.00    -0.137 SA 
BRANCH  12  13
HETATM   13  C   UNL     1     -10.955  10.247  67.580  1.00  0.00    -0.294 C  
BRANCH  13  14
HETATM   14  C   UNL     1     -11.426  11.305  68.577  1.00  0.00    -0.306 C  
BRANCH  14  15
HETATM   15  N   UNL     1     -11.020  10.910  69.939  1.00  0.00    -0.423 NA 
HETATM   16  H   UNL     1     -10.394  11.470  70.516  1.00  0.00     0.000 HD 
BRANCH  15  17
HETATM   17  C   UNL     1     -11.525   9.797  70.330  1.00  0.00    -0.280 C  
HETATM   18  H1  UNL     1     -12.374   8.709  71.900  1.00  0.00     0.000 HD 
HETATM   19  N   UNL     1     -11.973   9.593  71.589  1.00  0.00    -0.392 NA 
HETATM   20  H2  UNL     1     -11.907  10.359  72.258  1.00  0.00     0.000 HD 
ENDBRANCH  15  17
ENDBRANCH  14  15
ENDBRANCH  13  14
ENDBRANCH  12  13
ENDBRANCH   3  12
BRANCH   7  21
HETATM   21  C   UNL     1      -6.532   4.363  68.027  1.00  0.00    -0.038 C  
HETATM   22  O   UNL     1      -6.087   3.665  66.867  1.00  0.00    -0.023 OA 
HETATM   23  C   UNL     1      -7.773   3.681  68.586  1.00  0.00    -0.056 C  
HETATM   24  H   UNL     1      -5.898   2.771  67.127  1.00  0.00     0.000 HD 
ENDBRANCH   7  21
TORSDOF 6
ENDMDL
MODEL      227
REMARK 921   NORMALIZED FREE ENERGY PREDICTED BY IDOCK:   -1.93 KCAL/MOL
REMARK 922        TOTAL FREE ENERGY PREDICTED BY IDOCK:   -3.82 KCAL/MOL
REMARK 923 INTER-LIGAND FREE ENERGY PREDICTED BY IDOCK:   -3.44 KCAL/MOL
REMARK 924 INTRA-LIGAND FREE ENERGY PREDICTED BY IDOCK:   -0.38 KCAL/MOL
REMARK 927      BINDING AFFINITY PREDICTED BY RF-SCORE:    0.00 PKD
ROOT
HETATM    1  C   UNL     1      -9.138  11.148  68.299  1.00  0.00    -0.162 C  
HETATM    2  C   UNL     1      -7.928  10.227  68.194  1.00  0.00    -0.109 C  
HETATM    3  C   UNL     1      -7.751  10.068  66.705  1.00  0.00    -0.104 C  
HETATM    4  C   UNL     1     -10.821  11.050  67.058  1.00  0.00    -0.279 C  
HETATM    5  C   UNL     1      -8.685  10.768  66.033  1.00  0.00    -0.183 C  
HETATM    6  N   UNL     1      -9.527  11.465  66.893  1.00  0.00    -0.177 N  
HETATM    7  C   UNL     1     -10.576  10.583  68.502  1.00  0.00    -0.234 C  
HETATM    8  C   UNL     1      -8.911  10.811  64.550  1.00  0.00    -0.131 C  
HETATM    9  O   UNL     1      -9.978  11.551  64.174  1.00  0.00    -0.253 OA 
HETATM   10  O   UNL     1      -8.180  10.300  63.717  1.00  0.00    -0.157 OA 
HETATM   11  O   UNL     1     -11.707  11.025  66.238  1.00  0.00     0.001 OA 
ENDROOT
BRANCH   3  12
HETATM   12  S   UNL     1      -6.587   8.926  66.160  1.00  0.00    -0.066 SA 
BRANCH  12  13
HETATM   13  C   UNL     1      -7.381   7.300  66.332  1.00  0.00    -0.080 C  
BRANCH  13  14
HETATM   14  C   UNL     1      -6.566   6.241  67.074  1.00  0.00    -0.059 C  
BRANCH  14  15
HETATM   15  N   UNL     1      -7.391   5.033  67.265  1.00  0.00    -0.081 NA 
HETATM   16  H   UNL     1      -7.580   4.366  66.517  1.00  0.00     0.000 HD 
BRANCH  15  17
HETATM   17  C   UNL     1      -7.850   4.899  68.455  1.00  0.00    -0.081 C  
HETATM   18  H1  UNL     1      -7.556   5.227  70.499  1.00  0.00     0.000 HD 
HETATM   19  N   UNL     1      -7.192   5.334  69.553  1.00  0.00    -0.059 NA 
HETATM   20  H2  UNL     1      -6.289   5.790  69.429  1.00  0.00     0.000 HD 
ENDBRANCH  15  17
ENDBRANCH  14  15
ENDBRANCH  13  14
ENDBRANCH  12  13
ENDBRANCH   3  12
BRANCH   7  21
HETATM   21  C   UNL     1     -11.419  11.255  69.570  1.00  0.00    -0.307 C  
HETATM   22  O   UNL     1     -12.607  10.483  69.726  1.00  0.00    -0.542 OA 
HETATM   23  C   UNL     1     -11.785  12.676  69.165  1.00  0.00    -0.375 C  
HETATM   24  H   UNL     1     -13.135  10.904  70.395  1.00  0.00     0.000 HD 
ENDBRANCH   7  21
TORSDOF 6
ENDMDL
MODEL      228
REMARK 921   NORMALIZED FREE ENERGY PREDICTED BY IDOCK:   -1.87 KCAL/MOL
REMARK 922        TOTAL FREE ENERGY PREDICTED BY IDOCK:   -3.74 KCAL/MOL
REMARK 923 INTER-LIGAND FREE ENERGY PREDICTED BY IDOCK:   -3.05 KCAL/MOL
REMARK 924 INTRA-LIGAND FREE ENERGY PREDICTED BY IDOCK:   -0.68 KCAL/MOL
REMARK 927      BINDING AFFINITY PREDICTED BY RF-SCORE:    0.00 PKD
ROOT
HETATM    1  C   UNL     1     -11.692  15.651  68.884  1.00  0.00    -0.384 C  
HETATM    2  C   UNL     1     -11.774  16.641  67.728  1.00  0.00     0.559 C  
HETATM    3  C   UNL     1     -10.424  16.503  67.068  1.00  0.00    -0.289 C  
HETATM    4  C   UNL     1      -9.989  15.328  70.059  1.00  0.00    -0.107 C  
HETATM    5  C   UNL     1      -9.667  15.593  67.710  1.00  0.00    -0.218 C  
HETATM    6  N   UNL     1     -10.346  15.013  68.775  1.00  0.00    -0.233 N  
HETATM    7  C   UNL     1     -11.290  16.106  70.319  1.00  0.00    -0.363 C  
HETATM    8  C   UNL     1      -8.240  15.222  67.427  1.00  0.00    -0.184 C  
HETATM    9  O   UNL     1      -7.722  14.322  68.293  1.00  0.00    -0.117 OA 
HETATM   10  O   UNL     1      -7.592  15.616  66.472  1.00  0.00    -0.091 OA 
HETATM   11  O   UNL     1      -8.947  15.098  70.621  1.00  0.00     0.896 OA 
ENDROOT
BRANCH   3  12
HETATM   12  S   UNL     1     -10.036  17.612  65.813  1.00  0.00     0.023 SA 
BRANCH  12  13
HETATM   13  C   UNL     1      -8.799  18.739  66.524  1.00  0.00    -0.312 C  
BRANCH  13  14
HETATM   14  C   UNL     1      -8.811  20.165  65.975  1.00  0.00    -0.126 C  
BRANCH  14  15
HETATM   15  N   UNL     1      -7.425  20.659  65.869  1.00  0.00    -0.514 NA 
HETATM   16  H   UNL     1      -7.112  21.532  66.293  1.00  0.00     0.000 HD 
BRANCH  15  17
HETATM   17  C   UNL     1      -6.649  19.892  65.194  1.00  0.00    -0.290 C  
HETATM   18  H1  UNL     1      -4.739  19.066  64.989  1.00  0.00     0.000 HD 
HETATM   19  N   UNL     1      -5.356  19.675  65.525  1.00  0.00    -0.158 NA 
HETATM   20  H2  UNL     1      -4.981  20.143  66.349  1.00  0.00     0.000 HD 
ENDBRANCH  15  17
ENDBRANCH  14  15
ENDBRANCH  13  14
ENDBRANCH  12  13
ENDBRANCH   3  12
BRANCH   7  21
HETATM   21  C   UNL     1     -12.155  15.594  71.456  1.00  0.00    -0.425 C  
HETATM   22  O   UNL     1     -11.460  14.511  72.069  1.00  0.00    -0.290 OA 
HETATM   23  C   UNL     1     -13.503  15.107  70.942  1.00  0.00    -0.432 C  
HETATM   24  H   UNL     1     -12.001  14.190  72.780  1.00  0.00     0.000 HD 
ENDBRANCH   7  21
TORSDOF 6
ENDMDL
MODEL      229
REMARK 921   NORMALIZED FREE ENERGY PREDICTED BY IDOCK:   -1.87 KCAL/MOL
REMARK 922        TOTAL FREE ENERGY PREDICTED BY IDOCK:   -3.74 KCAL/MOL
REMARK 923 INTER-LIGAND FREE ENERGY PREDICTED BY IDOCK:   -3.09 KCAL/MOL
REMARK 924 INTRA-LIGAND FREE ENERGY PREDICTED BY IDOCK:   -0.64 KCAL/MOL
REMARK 927      BINDING AFFINITY PREDICTED BY RF-SCORE:    0.00 PKD
ROOT
HETATM    1  C   UNL     1      -7.271   5.367  67.830  1.00  0.00    -0.072 C  
HETATM    2  C   UNL     1      -6.567   6.612  67.305  1.00  0.00    -0.054 C  
HETATM    3  C   UNL     1      -7.712   7.532  66.965  1.00  0.00    -0.111 C  
HETATM    4  C   UNL     1      -9.039   4.574  67.035  1.00  0.00    -0.125 C  
HETATM    5  C   UNL     1      -8.894   6.947  67.237  1.00  0.00    -0.118 C  
HETATM    6  N   UNL     1      -8.731   5.679  67.783  1.00  0.00    -0.108 N  
HETATM    7  C   UNL     1      -7.567   4.149  66.905  1.00  0.00    -0.084 C  
HETATM    8  C   UNL     1     -10.270   7.486  66.967  1.00  0.00    -0.298 C  
HETATM    9  O   UNL     1     -11.269   6.633  67.286  1.00  0.00    -0.366 OA 
HETATM   10  O   UNL     1     -10.512   8.613  66.568  1.00  0.00    -0.249 OA 
HETATM   11  O   UNL     1     -10.118   4.235  66.616  1.00  0.00    -0.221 OA 
ENDROOT
BRANCH   3  12
HETATM   12  S   UNL     1      -7.339   8.998  66.147  1.00  0.00    -0.091 SA 
BRANCH  12  13
HETATM   13  C   UNL     1      -7.469  10.304  67.405  1.00  0.00    -0.094 C  
BRANCH  13  14
HETATM   14  C   UNL     1      -8.130  11.602  66.945  1.00  0.00    -0.164 C  
BRANCH  14  15
HETATM   15  N   UNL     1      -7.092  12.626  66.716  1.00  0.00    -0.338 NA 
HETATM   16  H   UNL     1      -6.512  12.651  65.879  1.00  0.00     0.000 HD 
BRANCH  15  17
HETATM   17  C   UNL     1      -6.986  13.480  67.668  1.00  0.00    -0.167 C  
HETATM   18  H1  UNL     1      -7.642  14.101  69.554  1.00  0.00     0.000 HD 
HETATM   19  N   UNL     1      -7.726  13.422  68.798  1.00  0.00    -0.286 NA 
HETATM   20  H2  UNL     1      -8.399  12.663  68.898  1.00  0.00     0.000 HD 
ENDBRANCH  15  17
ENDBRANCH  14  15
ENDBRANCH  13  14
ENDBRANCH  12  13
ENDBRANCH   3  12
BRANCH   7  21
HETATM   21  C   UNL     1      -7.220   2.780  67.461  1.00  0.00    -0.053 C  
HETATM   22  O   UNL     1      -8.440   2.145  67.832  1.00  0.00    -0.064 OA 
HETATM   23  C   UNL     1      -6.317   2.898  68.681  1.00  0.00    -0.029 C  
HETATM   24  H   UNL     1      -8.223   1.289  68.180  1.00  0.00     0.000 HD 
ENDBRANCH   7  21
TORSDOF 6
ENDMDL
MODEL      230
REMARK 921   NORMALIZED FREE ENERGY PREDICTED BY IDOCK:   -1.54 KCAL/MOL
REMARK 922        TOTAL FREE ENERGY PREDICTED BY IDOCK:   -3.30 KCAL/MOL
REMARK 923 INTER-LIGAND FREE ENERGY PREDICTED BY IDOCK:   -2.59 KCAL/MOL
REMARK 924 INTRA-LIGAND FREE ENERGY PREDICTED BY IDOCK:   -0.71 KCAL/MOL
REMARK 927      BINDING AFFINITY PREDICTED BY RF-SCORE:    0.00 PKD
ROOT
HETATM    1  C   UNL     1      -8.561   5.469  70.039  1.00  0.00    -0.120 C  
HETATM    2  C   UNL     1      -7.610   6.313  69.200  1.00  0.00    -0.099 C  
HETATM    3  C   UNL     1      -7.496   5.523  67.920  1.00  0.00    -0.080 C  
HETATM    4  C   UNL     1      -8.554   3.376  70.107  1.00  0.00    -0.062 C  
HETATM    5  C   UNL     1      -8.245   4.406  67.977  1.00  0.00    -0.094 C  
HETATM    6  N   UNL     1      -8.937   4.307  69.179  1.00  0.00    -0.098 N  
HETATM    7  C   UNL     1      -8.031   4.441  71.084  1.00  0.00    -0.081 C  
HETATM    8  C   UNL     1      -8.344   3.312  66.953  1.00  0.00    -0.097 C  
HETATM    9  O   UNL     1      -9.127   2.275  67.325  1.00  0.00    -0.141 OA 
HETATM   10  O   UNL     1      -7.841   3.349  65.842  1.00  0.00    -0.084 OA 
HETATM   11  O   UNL     1      -8.582   2.173  70.012  1.00  0.00    -0.046 OA 
ENDROOT
BRANCH   3  12
HETATM   12  S   UNL     1      -6.341   6.050  66.761  1.00  0.00    -0.043 SA 
BRANCH  12  13
HETATM   13  C   UNL     1      -7.258   7.112  65.606  1.00  0.00    -0.070 C  
BRANCH  13  14
HETATM   14  C   UNL     1      -8.665   7.513  66.051  1.00  0.00    -0.158 C  
BRANCH  14  15
HETATM   15  N   UNL     1      -9.224   8.482  65.090  1.00  0.00    -0.418 NA 
HETATM   16  H   UNL     1      -9.212   8.334  64.081  1.00  0.00     0.000 HD 
BRANCH  15  17
HETATM   17  C   UNL     1      -9.726   9.528  65.638  1.00  0.00    -0.290 C  
HETATM   18  H1  UNL     1     -10.875  10.314  67.198  1.00  0.00     0.000 HD 
HETATM   19  N   UNL     1     -10.475   9.484  66.763  1.00  0.00    -0.222 NA 
HETATM   20  H2  UNL     1     -10.648   8.577  67.195  1.00  0.00     0.000 HD 
ENDBRANCH  15  17
ENDBRANCH  14  15
ENDBRANCH  13  14
ENDBRANCH  12  13
ENDBRANCH   3  12
BRANCH   7  21
HETATM   21  C   UNL     1      -8.691   4.469  72.451  1.00  0.00    -0.117 C  
HETATM   22  O   UNL     1      -9.382   3.234  72.619  1.00  0.00    -0.097 OA 
HETATM   23  C   UNL     1      -9.678   5.623  72.560  1.00  0.00    -0.171 C  
HETATM   24  H   UNL     1      -9.795   3.252  73.475  1.00  0.00     0.000 HD 
ENDBRANCH   7  21
TORSDOF 6
ENDMDL
MODEL      231
REMARK 921   NORMALIZED FREE ENERGY PREDICTED BY IDOCK:   -1.47 KCAL/MOL
REMARK 922        TOTAL FREE ENERGY PREDICTED BY IDOCK:   -3.20 KCAL/MOL
REMARK 923 INTER-LIGAND FREE ENERGY PREDICTED BY IDOCK:   -2.81 KCAL/MOL
REMARK 924 INTRA-LIGAND FREE ENERGY PREDICTED BY IDOCK:   -0.39 KCAL/MOL
REMARK 927      BINDING AFFINITY PREDICTED BY RF-SCORE:    0.00 PKD
ROOT
HETATM    1  C   UNL     1      -9.306   8.683  70.165  1.00  0.00    -0.164 C  
HETATM    2  C   UNL     1      -8.940   9.996  69.485  1.00  0.00    -0.220 C  
HETATM    3  C   UNL     1      -8.318   9.545  68.187  1.00  0.00    -0.118 C  
HETATM    4  C   UNL     1      -8.128   6.952  70.125  1.00  0.00    -0.127 C  
HETATM    5  C   UNL     1      -8.312   8.201  68.100  1.00  0.00    -0.129 C  
HETATM    6  N   UNL     1      -8.906   7.608  69.209  1.00  0.00    -0.136 N  
HETATM    7  C   UNL     1      -8.360   8.017  71.210  1.00  0.00    -0.130 C  
HETATM    8  C   UNL     1      -7.712   7.353  67.016  1.00  0.00    -0.111 C  
HETATM    9  O   UNL     1      -7.799   6.024  67.243  1.00  0.00    -0.100 OA 
HETATM   10  O   UNL     1      -7.244   7.781  65.974  1.00  0.00    -0.070 OA 
HETATM   11  O   UNL     1      -7.470   5.953  69.965  1.00  0.00    -0.075 OA 
ENDROOT
BRANCH   3  12
HETATM   12  S   UNL     1      -7.585  10.744  67.197  1.00  0.00    -0.110 SA 
BRANCH  12  13
HETATM   13  C   UNL     1      -8.587  12.244  67.426  1.00  0.00    -0.178 C  
BRANCH  13  14
HETATM   14  C   UNL     1      -7.837  13.568  67.284  1.00  0.00    -0.091 C  
BRANCH  14  15
HETATM   15  N   UNL     1      -6.668  13.566  68.183  1.00  0.00    -0.103 NA 
HETATM   16  H   UNL     1      -6.240  12.711  68.538  1.00  0.00     0.000 HD 
BRANCH  15  17
HETATM   17  C   UNL     1      -6.237  14.738  68.480  1.00  0.00    -0.088 C  
HETATM   18  H1  UNL     1      -6.388  16.398  69.742  1.00  0.00     0.000 HD 
HETATM   19  N   UNL     1      -6.729  15.466  69.507  1.00  0.00    -0.161 NA 
HETATM   20  H2  UNL     1      -7.476  15.065  70.072  1.00  0.00     0.000 HD 
ENDBRANCH  15  17
ENDBRANCH  14  15
ENDBRANCH  13  14
ENDBRANCH  12  13
ENDBRANCH   3  12
BRANCH   7  21
HETATM   21  C   UNL     1      -9.010   7.528  72.491  1.00  0.00    -0.134 C  
HETATM   22  O   UNL     1     -10.359   7.985  72.490  1.00  0.00    -0.256 OA 
HETATM   23  C   UNL     1      -8.289   8.076  73.715  1.00  0.00    -0.311 C  
HETATM   24  H   UNL     1     -10.766   7.679  73.292  1.00  0.00     0.000 HD 
ENDBRANCH   7  21
TORSDOF 6
ENDMDL
MODEL      232
REMARK 921   NORMALIZED FREE ENERGY PREDICTED BY IDOCK:   -1.04 KCAL/MOL
REMARK 922        TOTAL FREE ENERGY PREDICTED BY IDOCK:   -2.61 KCAL/MOL
REMARK 923 INTER-LIGAND FREE ENERGY PREDICTED BY IDOCK:   -2.51 KCAL/MOL
REMARK 924 INTRA-LIGAND FREE ENERGY PREDICTED BY IDOCK:   -0.10 KCAL/MOL
REMARK 927      BINDING AFFINITY PREDICTED BY RF-SCORE:    0.00 PKD
ROOT
HETATM    1  C   UNL     1      -6.339  13.554  69.441  1.00  0.00    -0.110 C  
HETATM    2  C   UNL     1      -7.098  12.259  69.178  1.00  0.00    -0.003 C  
HETATM    3  C   UNL     1      -8.169  12.685  68.206  1.00  0.00    -0.164 C  
HETATM    4  C   UNL     1      -7.231  15.438  69.638  1.00  0.00    -0.174 C  
HETATM    5  C   UNL     1      -8.073  14.000  67.932  1.00  0.00    -0.156 C  
HETATM    6  N   UNL     1      -6.999  14.589  68.590  1.00  0.00    -0.096 N  
HETATM    7  C   UNL     1      -6.664  14.452  70.673  1.00  0.00     0.232 C  
HETATM    8  C   UNL     1      -8.991  14.832  67.084  1.00  0.00    -0.224 C  
HETATM    9  O   UNL     1      -8.676  16.146  67.053  1.00  0.00    -0.180 OA 
HETATM   10  O   UNL     1      -9.906  14.392  66.407  1.00  0.00    -0.271 OA 
HETATM   11  O   UNL     1      -7.785  16.510  69.622  1.00  0.00    -0.003 OA 
ENDROOT
BRANCH   3  12
HETATM   12  S   UNL     1      -9.380  11.533  67.801  1.00  0.00    -0.173 SA 
BRANCH  12  13
HETATM   13  C   UNL     1      -9.231  10.214  69.043  1.00  0.00    -0.185 C  
BRANCH  13  14
HETATM   14  C   UNL     1     -10.538   9.528  69.440  1.00  0.00    -0.219 C  
BRANCH  14  15
HETATM   15  N   UNL     1     -11.233  10.348  70.451  1.00  0.00    -0.314 NA 
HETATM   16  H   UNL     1     -10.988  10.335  71.440  1.00  0.00     0.000 HD 
BRANCH  15  17
HETATM   17  C   UNL     1     -12.174  11.077  69.972  1.00  0.00    -0.343 C  
HETATM   18  H1  UNL     1     -13.116  12.944  69.958  1.00  0.00     0.000 HD 
HETATM   19  N   UNL     1     -12.368  12.364  70.337  1.00  0.00    -0.274 NA 
HETATM   20  H2  UNL     1     -11.737  12.774  71.025  1.00  0.00     0.000 HD 
ENDBRANCH  15  17
ENDBRANCH  14  15
ENDBRANCH  13  14
ENDBRANCH  12  13
ENDBRANCH   3  12
BRANCH   7  21
HETATM   21  C   UNL     1      -5.476  14.944  71.479  1.00  0.00    -0.016 C  
HETATM   22  O   UNL     1      -5.799  14.789  72.858  1.00  0.00     0.239 OA 
HETATM   23  C   UNL     1      -5.185  16.410  71.187  1.00  0.00    -0.076 C  
HETATM   24  H   UNL     1      -5.056  15.097  73.363  1.00  0.00     0.000 HD 
ENDBRANCH   7  21
TORSDOF 6
ENDMDL
MODEL      233
REMARK 921   NORMALIZED FREE ENERGY PREDICTED BY IDOCK:   -0.27 KCAL/MOL
REMARK 922        TOTAL FREE ENERGY PREDICTED BY IDOCK:   -1.58 KCAL/MOL
REMARK 923 INTER-LIGAND FREE ENERGY PREDICTED BY IDOCK:   -1.10 KCAL/MOL
REMARK 924 INTRA-LIGAND FREE ENERGY PREDICTED BY IDOCK:   -0.47 KCAL/MOL
REMARK 927      BINDING AFFINITY PREDICTED BY RF-SCORE:    0.00 PKD
ROOT
HETATM    1  C   UNL     1      -6.484  13.557  69.537  1.00  0.00    -0.089 C  
HETATM    2  C   UNL     1      -6.948  12.124  69.309  1.00  0.00    -0.010 C  
HETATM    3  C   UNL     1      -7.835  12.244  68.095  1.00  0.00    -0.148 C  
HETATM    4  C   UNL     1      -7.688  15.253  69.293  1.00  0.00    -0.214 C  
HETATM    5  C   UNL     1      -7.893  13.519  67.667  1.00  0.00    -0.175 C  
HETATM    6  N   UNL     1      -7.099  14.361  68.438  1.00  0.00    -0.097 N  
HETATM    7  C   UNL     1      -7.210  14.498  70.545  1.00  0.00     0.636 C  
HETATM    8  C   UNL     1      -8.725  14.076  66.548  1.00  0.00     0.079 C  
HETATM    9  O   UNL     1      -8.627  15.416  66.401  1.00  0.00    -0.287 OA 
HETATM   10  O   UNL     1      -9.386  13.408  65.771  1.00  0.00    -0.025 OA 
HETATM   11  O   UNL     1      -8.390  16.196  69.020  1.00  0.00    -0.227 OA 
ENDROOT
BRANCH   3  12
HETATM   12  S   UNL     1      -8.725  10.852  67.620  1.00  0.00    -0.128 SA 
BRANCH  12  13
HETATM   13  C   UNL     1      -8.001  10.326  66.038  1.00  0.00    -0.138 C  
BRANCH  13  14
HETATM   14  C   UNL     1      -7.843   8.817  65.853  1.00  0.00    -0.102 C  
BRANCH  14  15
HETATM   15  N   UNL     1      -8.690   8.372  64.730  1.00  0.00    -0.401 NA 
HETATM   16  H   UNL     1      -9.699   8.244  64.811  1.00  0.00     0.000 HD 
BRANCH  15  17
HETATM   17  C   UNL     1      -8.043   8.160  63.642  1.00  0.00    -0.115 C  
HETATM   18  H1  UNL     1      -8.036   8.262  61.554  1.00  0.00     0.000 HD 
HETATM   19  N   UNL     1      -8.549   8.430  62.418  1.00  0.00    -0.395 NA 
HETATM   20  H2  UNL     1      -9.489   8.819  62.357  1.00  0.00     0.000 HD 
ENDBRANCH  15  17
ENDBRANCH  14  15
ENDBRANCH  13  14
ENDBRANCH  12  13
ENDBRANCH   3  12
BRANCH   7  21
HETATM   21  C   UNL     1      -6.324  15.281  71.495  1.00  0.00     1.014 C  
HETATM   22  O   UNL     1      -5.595  16.229  70.719  1.00  0.00    -0.110 OA 
HETATM   23  C   UNL     1      -5.350  14.362  72.220  1.00  0.00    -0.170 C  
HETATM   24  H   UNL     1      -5.040  16.719  71.314  1.00  0.00     0.000 HD 
ENDBRANCH   7  21
TORSDOF 6
ENDMDL
MODEL      234
REMARK 921   NORMALIZED FREE ENERGY PREDICTED BY IDOCK:    0.07 KCAL/MOL
REMARK 922        TOTAL FREE ENERGY PREDICTED BY IDOCK:   -1.12 KCAL/MOL
REMARK 923 INTER-LIGAND FREE ENERGY PREDICTED BY IDOCK:   -1.43 KCAL/MOL
REMARK 924 INTRA-LIGAND FREE ENERGY PREDICTED BY IDOCK:    0.31 KCAL/MOL
REMARK 927      BINDING AFFINITY PREDICTED BY RF-SCORE:    0.00 PKD
ROOT
HETATM    1  C   UNL     1      -9.407  13.908  68.944  1.00  0.00     0.070 C  
HETATM    2  C   UNL     1      -8.134  13.072  68.883  1.00  0.00     0.206 C  
HETATM    3  C   UNL     1      -7.171  13.973  68.152  1.00  0.00    -0.129 C  
HETATM    4  C   UNL     1     -10.103  15.132  67.394  1.00  0.00    -0.229 C  
HETATM    5  C   UNL     1      -7.757  15.142  67.830  1.00  0.00    -0.135 C  
HETATM    6  N   UNL     1      -9.069  15.206  68.288  1.00  0.00    -0.179 N  
HETATM    7  C   UNL     1     -10.540  13.742  67.886  1.00  0.00    -0.257 C  
HETATM    8  C   UNL     1      -7.176  16.272  67.031  1.00  0.00    -0.227 C  
HETATM    9  O   UNL     1      -8.036  17.291  66.809  1.00  0.00    -0.211 OA 
HETATM   10  O   UNL     1      -6.017  16.340  66.658  1.00  0.00    -0.286 OA 
HETATM   11  O   UNL     1     -10.389  15.911  66.518  1.00  0.00    -0.284 OA 
ENDROOT
BRANCH   3  12
HETATM   12  S   UNL     1      -5.649  13.312  67.702  1.00  0.00    -0.009 SA 
BRANCH  12  13
HETATM   13  C   UNL     1      -5.994  11.605  67.181  1.00  0.00    -0.127 C  
BRANCH  13  14
HETATM   14  C   UNL     1      -6.445  11.435  65.730  1.00  0.00     0.457 C  
BRANCH  14  15
HETATM   15  N   UNL     1      -5.590  10.432  65.067  1.00  0.00    -0.127 NA 
HETATM   16  H   UNL     1      -5.057  10.628  64.220  1.00  0.00     0.000 HD 
BRANCH  15  17
HETATM   17  C   UNL     1      -5.578   9.290  65.652  1.00  0.00    -0.045 C  
HETATM   18  H1  UNL     1      -6.444   8.044  67.091  1.00  0.00     0.000 HD 
HETATM   19  N   UNL     1      -6.453   8.951  66.626  1.00  0.00    -0.062 NA 
HETATM   20  H2  UNL     1      -7.154   9.634  66.908  1.00  0.00     0.000 HD 
ENDBRANCH  15  17
ENDBRANCH  14  15
ENDBRANCH  13  14
ENDBRANCH  12  13
ENDBRANCH   3  12
BRANCH   7  21
HETATM   21  C   UNL     1     -11.955  13.644  68.426  1.00  0.00    -0.356 C  
HETATM   22  O   UNL     1     -11.942  14.142  69.761  1.00  0.00    -0.297 OA 
HETATM   23  C   UNL     1     -12.442  12.201  68.426  1.00  0.00     0.793 C  
HETATM   24  H   UNL     1     -12.827  14.080  70.098  1.00  0.00     0.000 HD 
ENDBRANCH   7  21
TORSDOF 6
ENDMDL
MODEL      235
REMARK 921   NORMALIZED FREE ENERGY PREDICTED BY IDOCK:    0.14 KCAL/MOL
REMARK 922        TOTAL FREE ENERGY PREDICTED BY IDOCK:   -1.03 KCAL/MOL
REMARK 923 INTER-LIGAND FREE ENERGY PREDICTED BY IDOCK:   -0.76 KCAL/MOL
REMARK 924 INTRA-LIGAND FREE ENERGY PREDICTED BY IDOCK:   -0.27 KCAL/MOL
REMARK 927      BINDING AFFINITY PREDICTED BY RF-SCORE:    0.00 PKD
ROOT
HETATM    1  C   UNL     1      -6.198  13.535  69.403  1.00  0.00    -0.107 C  
HETATM    2  C   UNL     1      -6.567  12.076  69.638  1.00  0.00    -0.043 C  
HETATM    3  C   UNL     1      -7.733  11.866  68.704  1.00  0.00    -0.113 C  
HETATM    4  C   UNL     1      -7.579  15.080  69.102  1.00  0.00    -0.176 C  
HETATM    5  C   UNL     1      -8.014  12.995  68.027  1.00  0.00    -0.155 C  
HETATM    6  N   UNL     1      -7.138  14.025  68.350  1.00  0.00    -0.092 N  
HETATM    7  C   UNL     1      -6.739  14.671  70.323  1.00  0.00    -0.050 C  
HETATM    8  C   UNL     1      -9.145  13.234  67.068  1.00  0.00    -0.232 C  
HETATM    9  O   UNL     1      -9.212  14.500  66.598  1.00  0.00    -0.253 OA 
HETATM   10  O   UNL     1      -9.911  12.375  66.665  1.00  0.00    -0.217 OA 
HETATM   11  O   UNL     1      -8.413  15.904  68.814  1.00  0.00    -0.177 OA 
ENDROOT
BRANCH   3  12
HETATM   12  S   UNL     1      -8.578  10.373  68.811  1.00  0.00    -0.149 SA 
BRANCH  12  13
HETATM   13  C   UNL     1      -7.686   9.396  70.057  1.00  0.00    -0.123 C  
BRANCH  13  14
HETATM   14  C   UNL     1      -8.535   8.404  70.852  1.00  0.00    -0.140 C  
BRANCH  14  15
HETATM   15  N   UNL     1      -9.454   7.703  69.936  1.00  0.00    -0.161 NA 
HETATM   16  H   UNL     1     -10.338   8.104  69.622  1.00  0.00     0.000 HD 
BRANCH  15  17
HETATM   17  C   UNL     1      -9.042   6.545  69.570  1.00  0.00    -0.140 C  
HETATM   18  H1  UNL     1      -8.754   5.198  67.997  1.00  0.00     0.000 HD 
HETATM   19  N   UNL     1      -9.081   6.118  68.288  1.00  0.00    -0.114 NA 
HETATM   20  H2  UNL     1      -9.457   6.747  67.579  1.00  0.00     0.000 HD 
ENDBRANCH  15  17
ENDBRANCH  14  15
ENDBRANCH  13  14
ENDBRANCH  12  13
ENDBRANCH   3  12
BRANCH   7  21
HETATM   21  C   UNL     1      -5.723  15.691  70.803  1.00  0.00     0.024 C  
HETATM   22  O   UNL     1      -5.189  15.217  72.036  1.00  0.00    -0.114 OA 
HETATM   23  C   UNL     1      -6.373  17.051  71.020  1.00  0.00     1.773 C  
HETATM   24  H   UNL     1      -4.553  15.855  72.336  1.00  0.00     0.000 HD 
ENDBRANCH   7  21
TORSDOF 6
ENDMDL
MODEL      236
REMARK 921   NORMALIZED FREE ENERGY PREDICTED BY IDOCK:   24.57 KCAL/MOL
REMARK 922        TOTAL FREE ENERGY PREDICTED BY IDOCK:   31.97 KCAL/MOL
REMARK 923 INTER-LIGAND FREE ENERGY PREDICTED BY IDOCK:   32.37 KCAL/MOL
REMARK 924 INTRA-LIGAND FREE ENERGY PREDICTED BY IDOCK:   -0.40 KCAL/MOL
REMARK 927      BINDING AFFINITY PREDICTED BY RF-SCORE:    0.00 PKD
ROOT
HETATM    1  C   UNL     1      -8.135  13.867  71.163  1.00  0.00     5.441 C  
HETATM    2  C   UNL     1      -9.395  13.017  71.062  1.00  0.00    10.128 C  
HETATM    3  C   UNL     1      -8.934  11.823  70.263  1.00  0.00     4.021 C  
HETATM    4  C   UNL     1      -6.743  14.124  69.620  1.00  0.00    -0.092 C  
HETATM    5  C   UNL     1      -7.632  11.934  69.943  1.00  0.00     1.240 C  
HETATM    6  N   UNL     1      -7.067  13.094  70.461  1.00  0.00     1.511 N  
HETATM    7  C   UNL     1      -7.857  15.032  70.167  1.00  0.00     0.422 C  
HETATM    8  C   UNL     1      -6.813  11.008  69.089  1.00  0.00    -0.094 C  
HETATM    9  O   UNL     1      -5.543  11.423  68.885  1.00  0.00    -0.043 OA 
HETATM   10  O   UNL     1      -7.197   9.933  68.659  1.00  0.00    -0.070 OA 
HETATM   11  O   UNL     1      -5.917  14.137  68.741  1.00  0.00    -0.080 OA 
ENDROOT
BRANCH   3  12
HETATM   12  S   UNL     1     -10.130  10.696  69.756  1.00  0.00     0.121 SA 
BRANCH  12  13
HETATM   13  C   UNL     1     -11.499  11.699  69.106  1.00  0.00    -0.300 C  
BRANCH  13  14
HETATM   14  C   UNL     1     -12.815  11.603  69.878  1.00  0.00     0.383 C  
BRANCH  14  15
HETATM   15  N   UNL     1     -13.022  10.210  70.319  1.00  0.00    -0.577 NA 
HETATM   16  H   UNL     1     -12.505   9.788  71.089  1.00  0.00     0.000 HD 
BRANCH  15  17
HETATM   17  C   UNL     1     -13.913   9.579  69.644  1.00  0.00     3.410 C  
HETATM   18  H1  UNL     1     -15.034   7.828  69.421  1.00  0.00     0.000 HD 
HETATM   19  N   UNL     1     -14.327   8.330  69.957  1.00  0.00     1.914 NA 
HETATM   20  H2  UNL     1     -13.911   7.869  70.766  1.00  0.00     0.000 HD 
ENDBRANCH  15  17
ENDBRANCH  14  15
ENDBRANCH  13  14
ENDBRANCH  12  13
ENDBRANCH   3  12
BRANCH   7  21
HETATM   21  C   UNL     1      -7.403  16.346  70.776  1.00  0.00     2.899 C  
HETATM   22  O   UNL     1      -6.979  17.190  69.709  1.00  0.00    -0.020 OA 
HETATM   23  C   UNL     1      -6.249  16.132  71.744  1.00  0.00     2.156 C  
HETATM   24  H   UNL     1      -6.696  18.013  70.090  1.00  0.00     0.000 HD 
ENDBRANCH   7  21
TORSDOF 6
ENDMDL
