MODEL        1
REMARK 921   NORMALIZED FREE ENERGY PREDICTED BY IDOCK:   -7.09 KCAL/MOL
REMARK 922        TOTAL FREE ENERGY PREDICTED BY IDOCK:   -7.74 KCAL/MOL
REMARK 923 INTER-LIGAND FREE ENERGY PREDICTED BY IDOCK:   -7.51 KCAL/MOL
REMARK 924 INTRA-LIGAND FREE ENERGY PREDICTED BY IDOCK:   -0.24 KCAL/MOL
REMARK 927      BINDING AFFINITY PREDICTED BY RF-SCORE:    0.00 PKD
ROOT
HETATM    1  C   UNL     1     -11.758  15.536  72.732  1.00  0.00    -0.545 C  
HETATM    2  C   UNL     1     -11.872  15.120  71.263  1.00  0.00    -0.403 C  
HETATM    3  C   UNL     1     -10.735  15.772  70.453  1.00  0.00    -0.289 C  
HETATM    4  C   UNL     1     -13.277  15.456  70.757  1.00  0.00    -0.440 C  
ENDROOT
BRANCH   3   5
HETATM    5  N   UNL     1     -10.725  15.429  69.045  1.00  0.00    -0.231 NA 
HETATM    6  C   UNL     1     -10.820  14.130  68.611  1.00  0.00    -0.255 A  
HETATM    7  N   UNL     1     -10.881  14.052  67.307  1.00  0.00    -0.281 NA 
HETATM    8  C   UNL     1     -10.777  15.355  66.867  1.00  0.00    -0.314 A  
HETATM    9  C   UNL     1     -10.621  16.247  67.937  1.00  0.00    -0.318 A  
HETATM   10  C   UNL     1     -10.428  17.638  67.690  1.00  0.00    -0.372 A  
HETATM   11  C   UNL     1     -10.248  18.631  68.682  1.00  0.00    -0.359 A  
HETATM   12  C   UNL     1     -10.042  19.962  68.325  1.00  0.00    -0.571 A  
HETATM   13  C   UNL     1     -10.010  20.316  66.984  1.00  0.00    -0.601 A  
HETATM   14  C   UNL     1     -10.196  19.338  66.004  1.00  0.00    -0.512 A  
HETATM   15  C   UNL     1     -10.409  18.005  66.321  1.00  0.00    -0.382 A  
HETATM   16  N   UNL     1     -10.586  17.147  65.304  1.00  0.00    -0.662 NA 
HETATM   17  C   UNL     1     -10.795  15.836  65.541  1.00  0.00    -0.332 A  
HETATM   18  N   UNL     1     -10.998  15.005  64.445  1.00  0.00    -0.635 NA 
HETATM   19  H2  UNL     1     -11.870  14.498  64.600  1.00  0.00     0.000 HD 
HETATM   20  H1  UNL     1     -11.011  15.352  63.487  1.00  0.00     0.000 HD 
ENDBRANCH   3   5
TORSDOF 1
ENDMDL
MODEL        2
REMARK 921   NORMALIZED FREE ENERGY PREDICTED BY IDOCK:   -6.83 KCAL/MOL
REMARK 922        TOTAL FREE ENERGY PREDICTED BY IDOCK:   -7.47 KCAL/MOL
REMARK 923 INTER-LIGAND FREE ENERGY PREDICTED BY IDOCK:   -7.10 KCAL/MOL
REMARK 924 INTRA-LIGAND FREE ENERGY PREDICTED BY IDOCK:   -0.37 KCAL/MOL
REMARK 927      BINDING AFFINITY PREDICTED BY RF-SCORE:    0.00 PKD
ROOT
HETATM    1  C   UNL     1     -11.614  10.623  69.732  1.00  0.00    -0.385 C  
HETATM    2  C   UNL     1     -11.897  11.791  68.783  1.00  0.00    -0.380 C  
HETATM    3  C   UNL     1     -11.040  11.641  67.511  1.00  0.00    -0.276 C  
HETATM    4  C   UNL     1     -11.680  13.107  69.534  1.00  0.00    -0.382 C  
ENDROOT
BRANCH   3   5
HETATM    5  N   UNL     1     -11.243  12.682  66.523  1.00  0.00    -0.281 NA 
HETATM    6  C   UNL     1     -12.242  12.610  65.584  1.00  0.00    -0.411 A  
HETATM    7  N   UNL     1     -12.303  13.691  64.850  1.00  0.00    -0.480 NA 
HETATM    8  C   UNL     1     -11.269  14.485  65.300  1.00  0.00    -0.352 A  
HETATM    9  C   UNL     1     -10.543  13.855  66.319  1.00  0.00    -0.289 A  
HETATM   10  C   UNL     1      -9.390  14.484  66.874  1.00  0.00    -0.258 A  
HETATM   11  C   UNL     1      -8.572  13.944  67.896  1.00  0.00    -0.180 A  
HETATM   12  C   UNL     1      -7.451  14.637  68.347  1.00  0.00    -0.117 A  
HETATM   13  C   UNL     1      -7.132  15.866  67.787  1.00  0.00    -0.168 A  
HETATM   14  C   UNL     1      -7.943  16.403  66.785  1.00  0.00    -0.295 A  
HETATM   15  C   UNL     1      -9.070  15.746  66.315  1.00  0.00    -0.338 A  
HETATM   16  N   UNL     1      -9.787  16.354  65.357  1.00  0.00    -0.494 NA 
HETATM   17  C   UNL     1     -10.893  15.769  64.853  1.00  0.00    -0.413 A  
HETATM   18  N   UNL     1     -11.605  16.464  63.881  1.00  0.00    -1.602 NA 
HETATM   19  H2  UNL     1     -12.575  16.519  64.192  1.00  0.00     0.000 HD 
HETATM   20  H1  UNL     1     -11.333  17.392  63.558  1.00  0.00     0.000 HD 
ENDBRANCH   3   5
TORSDOF 1
ENDMDL
MODEL        3
REMARK 921   NORMALIZED FREE ENERGY PREDICTED BY IDOCK:   -6.71 KCAL/MOL
REMARK 922        TOTAL FREE ENERGY PREDICTED BY IDOCK:   -7.34 KCAL/MOL
REMARK 923 INTER-LIGAND FREE ENERGY PREDICTED BY IDOCK:   -7.03 KCAL/MOL
REMARK 924 INTRA-LIGAND FREE ENERGY PREDICTED BY IDOCK:   -0.31 KCAL/MOL
REMARK 927      BINDING AFFINITY PREDICTED BY RF-SCORE:    0.00 PKD
ROOT
HETATM    1  C   UNL     1      -9.717   9.241  67.342  1.00  0.00    -0.208 C  
HETATM    2  C   UNL     1      -9.827  10.443  66.399  1.00  0.00    -0.266 C  
HETATM    3  C   UNL     1     -11.098  11.246  66.733  1.00  0.00    -0.250 C  
HETATM    4  C   UNL     1      -9.758   9.948  64.953  1.00  0.00    -0.332 C  
ENDROOT
BRANCH   3   5
HETATM    5  N   UNL     1     -11.296  12.427  65.917  1.00  0.00    -0.339 NA 
HETATM    6  C   UNL     1     -12.276  12.494  64.957  1.00  0.00    -0.456 A  
HETATM    7  N   UNL     1     -12.337  13.676  64.402  1.00  0.00    -0.592 NA 
HETATM    8  C   UNL     1     -11.323  14.400  64.992  1.00  0.00    -0.373 A  
HETATM    9  C   UNL     1     -10.608  13.624  65.915  1.00  0.00    -0.289 A  
HETATM   10  C   UNL     1      -9.474  14.169  66.585  1.00  0.00    -0.303 A  
HETATM   11  C   UNL     1      -8.668  13.484  67.526  1.00  0.00    -0.208 A  
HETATM   12  C   UNL     1      -7.565  14.108  68.103  1.00  0.00    -0.136 A  
HETATM   13  C   UNL     1      -7.251  15.413  67.751  1.00  0.00    -0.182 A  
HETATM   14  C   UNL     1      -8.051  16.093  66.829  1.00  0.00    -0.305 A  
HETATM   15  C   UNL     1      -9.160  15.507  66.238  1.00  0.00    -0.334 A  
HETATM   16  N   UNL     1      -9.866  16.251  65.373  1.00  0.00    -0.483 NA 
HETATM   17  C   UNL     1     -10.954  15.742  64.760  1.00  0.00    -0.393 A  
HETATM   18  N   UNL     1     -11.657  16.574  63.896  1.00  0.00    -1.578 NA 
HETATM   19  H2  UNL     1     -12.634  16.570  64.191  1.00  0.00     0.000 HD 
HETATM   20  H1  UNL     1     -11.392  17.544  63.728  1.00  0.00     0.000 HD 
ENDBRANCH   3   5
TORSDOF 1
ENDMDL
MODEL        4
REMARK 921   NORMALIZED FREE ENERGY PREDICTED BY IDOCK:   -6.70 KCAL/MOL
REMARK 922        TOTAL FREE ENERGY PREDICTED BY IDOCK:   -7.33 KCAL/MOL
REMARK 923 INTER-LIGAND FREE ENERGY PREDICTED BY IDOCK:   -7.03 KCAL/MOL
REMARK 924 INTRA-LIGAND FREE ENERGY PREDICTED BY IDOCK:   -0.31 KCAL/MOL
REMARK 927      BINDING AFFINITY PREDICTED BY RF-SCORE:    0.00 PKD
ROOT
HETATM    1  C   UNL     1     -10.869  15.712  66.258  1.00  0.00    -0.262 C  
HETATM    2  C   UNL     1     -11.604  14.534  66.904  1.00  0.00    -0.399 C  
HETATM    3  C   UNL     1     -10.597  13.655  67.670  1.00  0.00    -0.241 C  
HETATM    4  C   UNL     1     -12.396  13.789  65.827  1.00  0.00    -0.523 C  
ENDROOT
BRANCH   3   5
HETATM    5  N   UNL     1     -11.185  12.516  68.347  1.00  0.00    -0.251 NA 
HETATM    6  C   UNL     1     -11.110  11.245  67.835  1.00  0.00    -0.267 A  
HETATM    7  N   UNL     1     -11.626  10.359  68.645  1.00  0.00    -0.210 NA 
HETATM    8  C   UNL     1     -12.100  11.089  69.716  1.00  0.00    -0.353 A  
HETATM    9  C   UNL     1     -11.888  12.462  69.535  1.00  0.00    -0.303 A  
HETATM   10  C   UNL     1     -12.366  13.396  70.500  1.00  0.00    -0.401 A  
HETATM   11  C   UNL     1     -12.224  14.802  70.423  1.00  0.00    -0.395 A  
HETATM   12  C   UNL     1     -12.755  15.624  71.414  1.00  0.00    -0.535 A  
HETATM   13  C   UNL     1     -13.432  15.059  72.486  1.00  0.00    -0.547 A  
HETATM   14  C   UNL     1     -13.565  13.671  72.567  1.00  0.00    -0.675 A  
HETATM   15  C   UNL     1     -13.046  12.821  71.603  1.00  0.00    -0.331 A  
HETATM   16  N   UNL     1     -13.221  11.502  71.781  1.00  0.00    -0.432 NA 
HETATM   17  C   UNL     1     -12.744  10.619  70.880  1.00  0.00    -0.404 A  
HETATM   18  N   UNL     1     -12.935   9.266  71.137  1.00  0.00    -0.496 NA 
HETATM   19  H2  UNL     1     -12.023   8.811  71.086  1.00  0.00     0.000 HD 
HETATM   20  H1  UNL     1     -13.400   8.927  71.978  1.00  0.00     0.000 HD 
ENDBRANCH   3   5
TORSDOF 1
ENDMDL
MODEL        5
REMARK 921   NORMALIZED FREE ENERGY PREDICTED BY IDOCK:   -6.66 KCAL/MOL
REMARK 922        TOTAL FREE ENERGY PREDICTED BY IDOCK:   -7.29 KCAL/MOL
REMARK 923 INTER-LIGAND FREE ENERGY PREDICTED BY IDOCK:   -6.88 KCAL/MOL
REMARK 924 INTRA-LIGAND FREE ENERGY PREDICTED BY IDOCK:   -0.41 KCAL/MOL
REMARK 927      BINDING AFFINITY PREDICTED BY RF-SCORE:    0.00 PKD
ROOT
HETATM    1  C   UNL     1     -11.309  10.774  69.917  1.00  0.00    -0.385 C  
HETATM    2  C   UNL     1     -11.682  11.812  68.855  1.00  0.00    -0.384 C  
HETATM    3  C   UNL     1     -10.548  11.917  67.817  1.00  0.00    -0.203 C  
HETATM    4  C   UNL     1     -12.024  13.133  69.547  1.00  0.00    -0.354 C  
ENDROOT
BRANCH   3   5
HETATM    5  N   UNL     1     -10.801  12.857  66.743  1.00  0.00    -0.264 NA 
HETATM    6  C   UNL     1     -11.549  12.520  65.642  1.00  0.00    -0.389 A  
HETATM    7  N   UNL     1     -11.727  13.537  64.840  1.00  0.00    -0.343 NA 
HETATM    8  C   UNL     1     -11.025  14.574  65.420  1.00  0.00    -0.342 A  
HETATM    9  C   UNL     1     -10.381  14.164  66.595  1.00  0.00    -0.277 A  
HETATM   10  C   UNL     1      -9.547  15.071  67.311  1.00  0.00    -0.208 A  
HETATM   11  C   UNL     1      -8.837  14.773  68.499  1.00  0.00    -0.176 A  
HETATM   12  C   UNL     1      -8.028  15.732  69.103  1.00  0.00    -0.231 A  
HETATM   13  C   UNL     1      -7.914  16.992  68.532  1.00  0.00    -0.249 A  
HETATM   14  C   UNL     1      -8.621  17.291  67.365  1.00  0.00    -0.213 A  
HETATM   15  C   UNL     1      -9.440  16.364  66.739  1.00  0.00    -0.247 A  
HETATM   16  N   UNL     1     -10.082  16.756  65.627  1.00  0.00    -0.580 NA 
HETATM   17  C   UNL     1     -10.892  15.903  64.967  1.00  0.00    -0.426 A  
HETATM   18  N   UNL     1     -11.548  16.379  63.837  1.00  0.00    -1.602 NA 
HETATM   19  H2  UNL     1     -12.545  16.195  63.960  1.00  0.00     0.000 HD 
HETATM   20  H1  UNL     1     -11.452  17.340  63.510  1.00  0.00     0.000 HD 
ENDBRANCH   3   5
TORSDOF 1
ENDMDL
MODEL        6
REMARK 921   NORMALIZED FREE ENERGY PREDICTED BY IDOCK:   -6.65 KCAL/MOL
REMARK 922        TOTAL FREE ENERGY PREDICTED BY IDOCK:   -7.28 KCAL/MOL
REMARK 923 INTER-LIGAND FREE ENERGY PREDICTED BY IDOCK:   -6.91 KCAL/MOL
REMARK 924 INTRA-LIGAND FREE ENERGY PREDICTED BY IDOCK:   -0.36 KCAL/MOL
REMARK 927      BINDING AFFINITY PREDICTED BY RF-SCORE:    0.00 PKD
ROOT
HETATM    1  C   UNL     1      -9.592  16.318  66.318  1.00  0.00    -0.336 C  
HETATM    2  C   UNL     1      -9.785  14.924  66.921  1.00  0.00    -0.248 C  
HETATM    3  C   UNL     1     -11.258  14.742  67.337  1.00  0.00    -0.339 C  
HETATM    4  C   UNL     1      -8.782  14.731  68.060  1.00  0.00    -0.168 C  
ENDROOT
BRANCH   3   5
HETATM    5  N   UNL     1     -11.567  13.443  67.901  1.00  0.00    -0.317 NA 
HETATM    6  C   UNL     1     -11.438  12.284  67.175  1.00  0.00    -0.352 A  
HETATM    7  N   UNL     1     -11.683  11.223  67.899  1.00  0.00    -0.592 NA 
HETATM    8  C   UNL     1     -12.032  11.712  69.141  1.00  0.00    -0.313 A  
HETATM    9  C   UNL     1     -12.024  13.114  69.162  1.00  0.00    -0.281 A  
HETATM   10  C   UNL     1     -12.421  13.817  70.337  1.00  0.00    -0.384 A  
HETATM   11  C   UNL     1     -12.466  15.225  70.476  1.00  0.00    -0.454 A  
HETATM   12  C   UNL     1     -12.896  15.807  71.666  1.00  0.00    -0.514 A  
HETATM   13  C   UNL     1     -13.287  14.999  72.724  1.00  0.00    -0.580 A  
HETATM   14  C   UNL     1     -13.236  13.609  72.590  1.00  0.00    -0.533 A  
HETATM   15  C   UNL     1     -12.808  12.994  71.424  1.00  0.00    -0.292 A  
HETATM   16  N   UNL     1     -12.787  11.652  71.404  1.00  0.00    -0.399 NA 
HETATM   17  C   UNL     1     -12.385  10.989  70.300  1.00  0.00    -0.328 A  
HETATM   18  N   UNL     1     -12.361   9.600  70.353  1.00  0.00    -0.482 NA 
HETATM   19  H2  UNL     1     -11.427   9.297  70.075  1.00  0.00     0.000 HD 
HETATM   20  H1  UNL     1     -12.616   9.077  71.190  1.00  0.00     0.000 HD 
ENDBRANCH   3   5
TORSDOF 1
ENDMDL
MODEL        7
REMARK 921   NORMALIZED FREE ENERGY PREDICTED BY IDOCK:   -6.62 KCAL/MOL
REMARK 922        TOTAL FREE ENERGY PREDICTED BY IDOCK:   -7.24 KCAL/MOL
REMARK 923 INTER-LIGAND FREE ENERGY PREDICTED BY IDOCK:   -6.99 KCAL/MOL
REMARK 924 INTRA-LIGAND FREE ENERGY PREDICTED BY IDOCK:   -0.25 KCAL/MOL
REMARK 927      BINDING AFFINITY PREDICTED BY RF-SCORE:    0.00 PKD
ROOT
HETATM    1  C   UNL     1     -12.909  15.586  73.728  1.00  0.00    -0.680 C  
HETATM    2  C   UNL     1     -13.057  14.739  72.462  1.00  0.00    -0.492 C  
HETATM    3  C   UNL     1     -11.792  14.882  71.595  1.00  0.00    -0.366 C  
HETATM    4  C   UNL     1     -14.354  15.131  71.749  1.00  0.00    -0.696 C  
ENDROOT
BRANCH   3   5
HETATM    5  N   UNL     1     -11.806  14.101  70.374  1.00  0.00    -0.305 NA 
HETATM    6  C   UNL     1     -12.115  12.763  70.369  1.00  0.00    -0.302 A  
HETATM    7  N   UNL     1     -12.156  12.275  69.157  1.00  0.00    -0.225 NA 
HETATM    8  C   UNL     1     -11.815  13.330  68.336  1.00  0.00    -0.360 A  
HETATM    9  C   UNL     1     -11.532  14.486  69.076  1.00  0.00    -0.290 A  
HETATM   10  C   UNL     1     -11.093  15.671  68.417  1.00  0.00    -0.326 A  
HETATM   11  C   UNL     1     -10.767  16.893  69.054  1.00  0.00    -0.308 A  
HETATM   12  C   UNL     1     -10.323  17.984  68.312  1.00  0.00    -0.389 A  
HETATM   13  C   UNL     1     -10.195  17.871  66.934  1.00  0.00    -0.358 A  
HETATM   14  C   UNL     1     -10.525  16.669  66.304  1.00  0.00    -0.272 A  
HETATM   15  C   UNL     1     -10.975  15.564  67.009  1.00  0.00    -0.283 A  
HETATM   16  N   UNL     1     -11.274  14.460  66.305  1.00  0.00    -0.332 NA 
HETATM   17  C   UNL     1     -11.715  13.348  66.929  1.00  0.00    -0.389 A  
HETATM   18  N   UNL     1     -12.032  12.248  66.140  1.00  0.00    -0.618 NA 
HETATM   19  H2  UNL     1     -12.983  11.963  66.377  1.00  0.00     0.000 HD 
HETATM   20  H1  UNL     1     -11.961  12.261  65.123  1.00  0.00     0.000 HD 
ENDBRANCH   3   5
TORSDOF 1
ENDMDL
MODEL        8
REMARK 921   NORMALIZED FREE ENERGY PREDICTED BY IDOCK:   -6.56 KCAL/MOL
REMARK 922        TOTAL FREE ENERGY PREDICTED BY IDOCK:   -7.18 KCAL/MOL
REMARK 923 INTER-LIGAND FREE ENERGY PREDICTED BY IDOCK:   -6.76 KCAL/MOL
REMARK 924 INTRA-LIGAND FREE ENERGY PREDICTED BY IDOCK:   -0.42 KCAL/MOL
REMARK 927      BINDING AFFINITY PREDICTED BY RF-SCORE:    0.00 PKD
ROOT
HETATM    1  C   UNL     1      -9.949  14.043  65.988  1.00  0.00    -0.331 C  
HETATM    2  C   UNL     1     -10.875  14.592  67.076  1.00  0.00    -0.304 C  
HETATM    3  C   UNL     1     -10.254  14.331  68.462  1.00  0.00    -0.245 C  
HETATM    4  C   UNL     1     -12.271  13.993  66.891  1.00  0.00    -0.415 C  
ENDROOT
BRANCH   3   5
HETATM    5  N   UNL     1     -11.034  14.832  69.576  1.00  0.00    -0.263 NA 
HETATM    6  C   UNL     1     -11.048  16.163  69.916  1.00  0.00    -0.357 A  
HETATM    7  N   UNL     1     -11.883  16.411  70.891  1.00  0.00    -0.145 NA 
HETATM    8  C   UNL     1     -12.405  15.181  71.233  1.00  0.00    -0.336 A  
HETATM    9  C   UNL     1     -11.849  14.153  70.460  1.00  0.00    -0.282 A  
HETATM   10  C   UNL     1     -12.208  12.795  70.705  1.00  0.00    -0.374 A  
HETATM   11  C   UNL     1     -11.707  11.673  70.001  1.00  0.00    -0.402 A  
HETATM   12  C   UNL     1     -12.109  10.384  70.342  1.00  0.00    -0.402 A  
HETATM   13  C   UNL     1     -13.007  10.198  71.384  1.00  0.00    -0.528 A  
HETATM   14  C   UNL     1     -13.507  11.305  72.074  1.00  0.00    -0.289 A  
HETATM   15  C   UNL     1     -13.135  12.603  71.759  1.00  0.00    -0.360 A  
HETATM   16  N   UNL     1     -13.683  13.595  72.477  1.00  0.00    -0.687 NA 
HETATM   17  C   UNL     1     -13.362  14.881  72.225  1.00  0.00    -0.390 A  
HETATM   18  N   UNL     1     -13.984  15.864  72.988  1.00  0.00    -0.649 NA 
HETATM   19  H2  UNL     1     -14.410  16.530  72.343  1.00  0.00     0.000 HD 
HETATM   20  H1  UNL     1     -14.676  15.647  73.705  1.00  0.00     0.000 HD 
ENDBRANCH   3   5
TORSDOF 1
ENDMDL
MODEL        9
REMARK 921   NORMALIZED FREE ENERGY PREDICTED BY IDOCK:   -6.54 KCAL/MOL
REMARK 922        TOTAL FREE ENERGY PREDICTED BY IDOCK:   -7.16 KCAL/MOL
REMARK 923 INTER-LIGAND FREE ENERGY PREDICTED BY IDOCK:   -6.81 KCAL/MOL
REMARK 924 INTRA-LIGAND FREE ENERGY PREDICTED BY IDOCK:   -0.35 KCAL/MOL
REMARK 927      BINDING AFFINITY PREDICTED BY RF-SCORE:    0.00 PKD
ROOT
HETATM    1  C   UNL     1     -10.296  13.769  65.266  1.00  0.00    -0.378 C  
HETATM    2  C   UNL     1     -11.214  14.330  66.356  1.00  0.00    -0.337 C  
HETATM    3  C   UNL     1     -10.638  13.985  67.742  1.00  0.00    -0.242 C  
HETATM    4  C   UNL     1     -12.637  13.817  66.121  1.00  0.00    -0.423 C  
ENDROOT
BRANCH   3   5
HETATM    5  N   UNL     1     -11.414  14.489  68.859  1.00  0.00    -0.282 NA 
HETATM    6  C   UNL     1     -11.630  15.831  69.048  1.00  0.00    -0.400 A  
HETATM    7  N   UNL     1     -12.426  16.061  70.060  1.00  0.00    -0.153 NA 
HETATM    8  C   UNL     1     -12.705  14.816  70.583  1.00  0.00    -0.358 A  
HETATM    9  C   UNL     1     -12.037  13.803  69.882  1.00  0.00    -0.348 A  
HETATM   10  C   UNL     1     -12.140  12.447  70.308  1.00  0.00    -0.377 A  
HETATM   11  C   UNL     1     -11.506  11.341  69.692  1.00  0.00    -0.380 A  
HETATM   12  C   UNL     1     -11.657  10.057  70.210  1.00  0.00    -0.354 A  
HETATM   13  C   UNL     1     -12.435   9.860  71.342  1.00  0.00    -0.495 A  
HETATM   14  C   UNL     1     -13.068  10.949  71.946  1.00  0.00    -0.537 A  
HETATM   15  C   UNL     1     -12.945  12.240  71.456  1.00  0.00    -0.289 A  
HETATM   16  N   UNL     1     -13.604  13.213  72.105  1.00  0.00    -0.542 NA 
HETATM   17  C   UNL     1     -13.526  14.493  71.684  1.00  0.00    -0.373 A  
HETATM   18  N   UNL     1     -14.253  15.449  72.384  1.00  0.00    -0.543 NA 
HETATM   19  H2  UNL     1     -14.829  15.952  71.709  1.00  0.00     0.000 HD 
HETATM   20  H1  UNL     1     -14.846  15.215  73.180  1.00  0.00     0.000 HD 
ENDBRANCH   3   5
TORSDOF 1
ENDMDL
MODEL       10
REMARK 921   NORMALIZED FREE ENERGY PREDICTED BY IDOCK:   -6.44 KCAL/MOL
REMARK 922        TOTAL FREE ENERGY PREDICTED BY IDOCK:   -7.05 KCAL/MOL
REMARK 923 INTER-LIGAND FREE ENERGY PREDICTED BY IDOCK:   -6.75 KCAL/MOL
REMARK 924 INTRA-LIGAND FREE ENERGY PREDICTED BY IDOCK:   -0.30 KCAL/MOL
REMARK 927      BINDING AFFINITY PREDICTED BY RF-SCORE:    0.00 PKD
ROOT
HETATM    1  C   UNL     1      -6.480  15.258  70.173  1.00  0.00    -0.089 C  
HETATM    2  C   UNL     1      -7.072  15.474  68.777  1.00  0.00    -0.124 C  
HETATM    3  C   UNL     1      -8.514  14.934  68.740  1.00  0.00    -0.172 C  
HETATM    4  C   UNL     1      -6.140  14.846  67.738  1.00  0.00    -0.149 C  
ENDROOT
BRANCH   3   5
HETATM    5  N   UNL     1      -9.189  15.107  67.470  1.00  0.00    -0.184 NA 
HETATM    6  C   UNL     1      -9.481  14.045  66.649  1.00  0.00    -0.287 A  
HETATM    7  N   UNL     1     -10.168  14.411  65.599  1.00  0.00    -0.332 NA 
HETATM    8  C   UNL     1     -10.292  15.780  65.715  1.00  0.00    -0.369 A  
HETATM    9  C   UNL     1      -9.637  16.260  66.857  1.00  0.00    -0.232 A  
HETATM   10  C   UNL     1      -9.590  17.660  67.123  1.00  0.00    -0.278 A  
HETATM   11  C   UNL     1      -8.952  18.265  68.233  1.00  0.00    -0.318 A  
HETATM   12  C   UNL     1      -8.946  19.650  68.380  1.00  0.00    -0.372 A  
HETATM   13  C   UNL     1      -9.571  20.444  67.429  1.00  0.00    -0.584 A  
HETATM   14  C   UNL     1     -10.208  19.848  66.338  1.00  0.00    -0.617 A  
HETATM   15  C   UNL     1     -10.239  18.474  66.161  1.00  0.00    -0.398 A  
HETATM   16  N   UNL     1     -10.887  18.003  65.084  1.00  0.00    -0.611 NA 
HETATM   17  C   UNL     1     -10.953  16.676  64.849  1.00  0.00    -0.150 A  
HETATM   18  N   UNL     1     -11.662  16.253  63.730  1.00  0.00    -1.488 NA 
HETATM   19  H2  UNL     1     -12.349  15.566  64.043  1.00  0.00     0.000 HD 
HETATM   20  H1  UNL     1     -12.140  16.900  63.104  1.00  0.00     0.000 HD 
ENDBRANCH   3   5
TORSDOF 1
ENDMDL
MODEL       11
REMARK 921   NORMALIZED FREE ENERGY PREDICTED BY IDOCK:   -6.32 KCAL/MOL
REMARK 922        TOTAL FREE ENERGY PREDICTED BY IDOCK:   -6.93 KCAL/MOL
REMARK 923 INTER-LIGAND FREE ENERGY PREDICTED BY IDOCK:   -6.50 KCAL/MOL
REMARK 924 INTRA-LIGAND FREE ENERGY PREDICTED BY IDOCK:   -0.42 KCAL/MOL
REMARK 927      BINDING AFFINITY PREDICTED BY RF-SCORE:    0.00 PKD
ROOT
HETATM    1  C   UNL     1      -7.775  19.257  68.714  1.00  0.00    -0.397 C  
HETATM    2  C   UNL     1      -8.276  17.944  68.107  1.00  0.00    -0.269 C  
HETATM    3  C   UNL     1      -9.810  17.991  67.971  1.00  0.00    -0.323 C  
HETATM    4  C   UNL     1      -7.756  16.776  68.947  1.00  0.00    -0.242 C  
ENDROOT
BRANCH   3   5
HETATM    5  N   UNL     1     -10.399  16.806  67.380  1.00  0.00    -0.297 NA 
HETATM    6  C   UNL     1     -10.396  16.589  66.024  1.00  0.00    -0.345 A  
HETATM    7  N   UNL     1     -10.897  15.422  65.714  1.00  0.00    -0.339 NA 
HETATM    8  C   UNL     1     -11.286  14.870  66.917  1.00  0.00    -0.343 A  
HETATM    9  C   UNL     1     -11.036  15.741  67.986  1.00  0.00    -0.337 A  
HETATM   10  C   UNL     1     -11.428  15.384  69.309  1.00  0.00    -0.344 A  
HETATM   11  C   UNL     1     -11.242  16.182  70.464  1.00  0.00    -0.381 A  
HETATM   12  C   UNL     1     -11.689  15.743  71.709  1.00  0.00    -0.562 A  
HETATM   13  C   UNL     1     -12.325  14.514  71.816  1.00  0.00    -0.408 A  
HETATM   14  C   UNL     1     -12.502  13.723  70.679  1.00  0.00    -0.429 A  
HETATM   15  C   UNL     1     -12.066  14.124  69.425  1.00  0.00    -0.328 A  
HETATM   16  N   UNL     1     -12.276  13.284  68.399  1.00  0.00    -0.186 NA 
HETATM   17  C   UNL     1     -11.880  13.612  67.152  1.00  0.00    -0.396 A  
HETATM   18  N   UNL     1     -12.104  12.687  66.138  1.00  0.00    -0.579 NA 
HETATM   19  H2  UNL     1     -11.213  12.522  65.670  1.00  0.00     0.000 HD 
HETATM   20  H1  UNL     1     -12.533  11.778  66.308  1.00  0.00     0.000 HD 
ENDBRANCH   3   5
TORSDOF 1
ENDMDL
MODEL       12
REMARK 921   NORMALIZED FREE ENERGY PREDICTED BY IDOCK:   -6.32 KCAL/MOL
REMARK 922        TOTAL FREE ENERGY PREDICTED BY IDOCK:   -6.92 KCAL/MOL
REMARK 923 INTER-LIGAND FREE ENERGY PREDICTED BY IDOCK:   -6.54 KCAL/MOL
REMARK 924 INTRA-LIGAND FREE ENERGY PREDICTED BY IDOCK:   -0.38 KCAL/MOL
REMARK 927      BINDING AFFINITY PREDICTED BY RF-SCORE:    0.00 PKD
ROOT
HETATM    1  C   UNL     1     -10.111  12.125  63.933  1.00  0.00    -0.387 C  
HETATM    2  C   UNL     1     -10.886  12.983  64.937  1.00  0.00    -0.343 C  
HETATM    3  C   UNL     1     -10.162  12.967  66.297  1.00  0.00    -0.278 C  
HETATM    4  C   UNL     1     -12.336  12.498  64.992  1.00  0.00    -0.522 C  
ENDROOT
BRANCH   3   5
HETATM    5  N   UNL     1     -10.794  13.770  67.325  1.00  0.00    -0.283 NA 
HETATM    6  C   UNL     1     -10.885  15.136  67.228  1.00  0.00    -0.316 A  
HETATM    7  N   UNL     1     -11.568  15.653  68.216  1.00  0.00    -0.353 NA 
HETATM    8  C   UNL     1     -11.899  14.581  69.019  1.00  0.00    -0.318 A  
HETATM    9  C   UNL     1     -11.377  13.382  68.515  1.00  0.00    -0.289 A  
HETATM   10  C   UNL     1     -11.550  12.164  69.235  1.00  0.00    -0.377 A  
HETATM   11  C   UNL     1     -11.062  10.897  68.836  1.00  0.00    -0.307 A  
HETATM   12  C   UNL     1     -11.269   9.773  69.633  1.00  0.00    -0.216 A  
HETATM   13  C   UNL     1     -11.957   9.899  70.832  1.00  0.00    -0.434 A  
HETATM   14  C   UNL     1     -12.446  11.147  71.223  1.00  0.00    -0.466 A  
HETATM   15  C   UNL     1     -12.265  12.286  70.453  1.00  0.00    -0.288 A  
HETATM   16  N   UNL     1     -12.785  13.435  70.915  1.00  0.00    -0.306 NA 
HETATM   17  C   UNL     1     -12.642  14.581  70.217  1.00  0.00    -0.323 A  
HETATM   18  N   UNL     1     -13.226  15.730  70.738  1.00  0.00    -0.739 NA 
HETATM   19  H2  UNL     1     -13.818  16.131  70.010  1.00  0.00     0.000 HD 
HETATM   20  H1  UNL     1     -13.764  15.730  71.604  1.00  0.00     0.000 HD 
ENDBRANCH   3   5
TORSDOF 1
ENDMDL
MODEL       13
REMARK 921   NORMALIZED FREE ENERGY PREDICTED BY IDOCK:   -6.30 KCAL/MOL
REMARK 922        TOTAL FREE ENERGY PREDICTED BY IDOCK:   -6.91 KCAL/MOL
REMARK 923 INTER-LIGAND FREE ENERGY PREDICTED BY IDOCK:   -6.60 KCAL/MOL
REMARK 924 INTRA-LIGAND FREE ENERGY PREDICTED BY IDOCK:   -0.31 KCAL/MOL
REMARK 927      BINDING AFFINITY PREDICTED BY RF-SCORE:    0.00 PKD
ROOT
HETATM    1  C   UNL     1     -12.492   8.803  71.940  1.00  0.00    -0.434 C  
HETATM    2  C   UNL     1     -11.801   9.982  71.249  1.00  0.00    -0.471 C  
HETATM    3  C   UNL     1     -12.674  10.478  70.081  1.00  0.00    -0.127 C  
HETATM    4  C   UNL     1     -10.387   9.561  70.841  1.00  0.00    -0.372 C  
ENDROOT
BRANCH   3   5
HETATM    5  N   UNL     1     -12.131  11.614  69.364  1.00  0.00    -0.293 NA 
HETATM    6  C   UNL     1     -11.507  11.478  68.148  1.00  0.00    -0.315 A  
HETATM    7  N   UNL     1     -11.172  12.634  67.637  1.00  0.00    -0.266 NA 
HETATM    8  C   UNL     1     -11.554  13.564  68.581  1.00  0.00    -0.330 A  
HETATM    9  C   UNL     1     -12.112  12.951  69.710  1.00  0.00    -0.245 A  
HETATM   10  C   UNL     1     -12.509  13.736  70.831  1.00  0.00    -0.451 A  
HETATM   11  C   UNL     1     -13.073  13.233  72.029  1.00  0.00    -0.475 A  
HETATM   12  C   UNL     1     -13.402  14.093  73.074  1.00  0.00    -0.374 A  
HETATM   13  C   UNL     1     -13.172  15.455  72.942  1.00  0.00    -0.622 A  
HETATM   14  C   UNL     1     -12.624  15.954  71.757  1.00  0.00    -0.489 A  
HETATM   15  C   UNL     1     -12.289  15.130  70.693  1.00  0.00    -0.368 A  
HETATM   16  N   UNL     1     -11.779  15.711  69.597  1.00  0.00    -0.342 NA 
HETATM   17  C   UNL     1     -11.428  14.968  68.527  1.00  0.00    -0.317 A  
HETATM   18  N   UNL     1     -10.930  15.635  67.413  1.00  0.00    -0.312 NA 
HETATM   19  H2  UNL     1     -11.485  15.345  66.607  1.00  0.00     0.000 HD 
HETATM   20  H1  UNL     1     -10.839  16.649  67.374  1.00  0.00     0.000 HD 
ENDBRANCH   3   5
TORSDOF 1
ENDMDL
MODEL       14
REMARK 921   NORMALIZED FREE ENERGY PREDICTED BY IDOCK:   -6.26 KCAL/MOL
REMARK 922        TOTAL FREE ENERGY PREDICTED BY IDOCK:   -6.87 KCAL/MOL
REMARK 923 INTER-LIGAND FREE ENERGY PREDICTED BY IDOCK:   -6.59 KCAL/MOL
REMARK 924 INTRA-LIGAND FREE ENERGY PREDICTED BY IDOCK:   -0.28 KCAL/MOL
REMARK 927      BINDING AFFINITY PREDICTED BY RF-SCORE:    0.00 PKD
ROOT
HETATM    1  C   UNL     1      -8.960   7.369  66.800  1.00  0.00    -0.159 C  
HETATM    2  C   UNL     1     -10.194   7.496  67.697  1.00  0.00    -0.275 C  
HETATM    3  C   UNL     1      -9.754   7.565  69.172  1.00  0.00    -0.166 C  
HETATM    4  C   UNL     1     -11.159   6.351  67.382  1.00  0.00    -0.412 C  
ENDROOT
BRANCH   3   5
HETATM    5  N   UNL     1     -10.842   7.712  70.118  1.00  0.00    -0.248 NA 
HETATM    6  C   UNL     1     -11.373   6.639  70.791  1.00  0.00    -0.336 A  
HETATM    7  N   UNL     1     -12.280   7.005  71.658  1.00  0.00    -0.339 NA 
HETATM    8  C   UNL     1     -12.379   8.373  71.514  1.00  0.00    -0.309 A  
HETATM    9  C   UNL     1     -11.524   8.847  70.510  1.00  0.00    -0.200 A  
HETATM   10  C   UNL     1     -11.525  10.229  70.158  1.00  0.00    -0.383 A  
HETATM   11  C   UNL     1     -10.719  10.822  69.158  1.00  0.00    -0.265 A  
HETATM   12  C   UNL     1     -10.820  12.183  68.880  1.00  0.00    -0.241 A  
HETATM   13  C   UNL     1     -11.723  12.964  69.589  1.00  0.00    -0.367 A  
HETATM   14  C   UNL     1     -12.513  12.381  70.582  1.00  0.00    -0.320 A  
HETATM   15  C   UNL     1     -12.436  11.031  70.890  1.00  0.00    -0.410 A  
HETATM   16  N   UNL     1     -13.232  10.573  71.869  1.00  0.00    -0.452 NA 
HETATM   17  C   UNL     1     -13.209   9.270  72.218  1.00  0.00    -0.460 A  
HETATM   18  N   UNL     1     -14.039   8.865  73.257  1.00  0.00    -1.248 NA 
HETATM   19  H2  UNL     1     -13.460   8.381  73.943  1.00  0.00     0.000 HD 
HETATM   20  H1  UNL     1     -14.640   9.514  73.767  1.00  0.00     0.000 HD 
ENDBRANCH   3   5
TORSDOF 1
ENDMDL
MODEL       15
REMARK 921   NORMALIZED FREE ENERGY PREDICTED BY IDOCK:   -6.21 KCAL/MOL
REMARK 922        TOTAL FREE ENERGY PREDICTED BY IDOCK:   -6.81 KCAL/MOL
REMARK 923 INTER-LIGAND FREE ENERGY PREDICTED BY IDOCK:   -6.40 KCAL/MOL
REMARK 924 INTRA-LIGAND FREE ENERGY PREDICTED BY IDOCK:   -0.41 KCAL/MOL
REMARK 927      BINDING AFFINITY PREDICTED BY RF-SCORE:    0.00 PKD
ROOT
HETATM    1  C   UNL     1      -6.086  15.659  69.849  1.00  0.00    -0.162 C  
HETATM    2  C   UNL     1      -6.842  15.854  68.531  1.00  0.00    -0.124 C  
HETATM    3  C   UNL     1      -8.329  16.129  68.826  1.00  0.00    -0.231 C  
HETATM    4  C   UNL     1      -6.595  14.642  67.631  1.00  0.00    -0.177 C  
ENDROOT
BRANCH   3   5
HETATM    5  N   UNL     1      -9.145  16.356  67.650  1.00  0.00    -0.198 NA 
HETATM    6  C   UNL     1      -9.204  17.580  67.030  1.00  0.00    -0.248 A  
HETATM    7  N   UNL     1      -9.926  17.542  65.940  1.00  0.00    -0.551 NA 
HETATM    8  C   UNL     1     -10.395  16.247  65.869  1.00  0.00    -0.365 A  
HETATM    9  C   UNL     1      -9.967  15.485  66.964  1.00  0.00    -0.239 A  
HETATM   10  C   UNL     1     -10.401  14.135  67.112  1.00  0.00    -0.265 A  
HETATM   11  C   UNL     1     -10.047  13.271  68.176  1.00  0.00    -0.241 A  
HETATM   12  C   UNL     1     -10.551  11.974  68.235  1.00  0.00    -0.233 A  
HETATM   13  C   UNL     1     -11.410  11.525  67.242  1.00  0.00    -0.359 A  
HETATM   14  C   UNL     1     -11.754  12.374  66.187  1.00  0.00    -0.460 A  
HETATM   15  C   UNL     1     -11.267  13.670  66.092  1.00  0.00    -0.302 A  
HETATM   16  N   UNL     1     -11.651  14.399  65.033  1.00  0.00    -0.357 NA 
HETATM   17  C   UNL     1     -11.218  15.667  64.881  1.00  0.00    -0.369 A  
HETATM   18  N   UNL     1     -11.631  16.359  63.748  1.00  0.00    -1.515 NA 
HETATM   19  H2  UNL     1     -10.796  16.714  63.282  1.00  0.00     0.000 HD 
HETATM   20  H1  UNL     1     -12.226  15.940  63.033  1.00  0.00     0.000 HD 
ENDBRANCH   3   5
TORSDOF 1
ENDMDL
MODEL       16
REMARK 921   NORMALIZED FREE ENERGY PREDICTED BY IDOCK:   -6.19 KCAL/MOL
REMARK 922        TOTAL FREE ENERGY PREDICTED BY IDOCK:   -6.79 KCAL/MOL
REMARK 923 INTER-LIGAND FREE ENERGY PREDICTED BY IDOCK:   -6.50 KCAL/MOL
REMARK 924 INTRA-LIGAND FREE ENERGY PREDICTED BY IDOCK:   -0.29 KCAL/MOL
REMARK 927      BINDING AFFINITY PREDICTED BY RF-SCORE:    0.00 PKD
ROOT
HETATM    1  C   UNL     1     -12.535  12.629  71.029  1.00  0.00    -0.354 C  
HETATM    2  C   UNL     1     -12.508  13.873  70.137  1.00  0.00    -0.355 C  
HETATM    3  C   UNL     1     -11.050  14.224  69.785  1.00  0.00    -0.128 C  
HETATM    4  C   UNL     1     -13.276  15.001  70.830  1.00  0.00    -0.453 C  
ENDROOT
BRANCH   3   5
HETATM    5  N   UNL     1     -10.900  15.376  68.919  1.00  0.00    -0.239 NA 
HETATM    6  C   UNL     1     -10.571  16.617  69.407  1.00  0.00    -0.333 A  
HETATM    7  N   UNL     1     -10.400  17.490  68.449  1.00  0.00    -0.361 NA 
HETATM    8  C   UNL     1     -10.673  16.801  67.286  1.00  0.00    -0.213 A  
HETATM    9  C   UNL     1     -11.048  15.477  67.550  1.00  0.00    -0.305 A  
HETATM   10  C   UNL     1     -11.437  14.614  66.483  1.00  0.00    -0.354 A  
HETATM   11  C   UNL     1     -11.844  13.266  66.624  1.00  0.00    -0.447 A  
HETATM   12  C   UNL     1     -12.229  12.521  65.512  1.00  0.00    -0.442 A  
HETATM   13  C   UNL     1     -12.215  13.107  64.254  1.00  0.00    -0.463 A  
HETATM   14  C   UNL     1     -11.805  14.436  64.113  1.00  0.00    -0.316 A  
HETATM   15  C   UNL     1     -11.410  15.206  65.196  1.00  0.00    -0.357 A  
HETATM   16  N   UNL     1     -11.024  16.468  64.949  1.00  0.00    -0.639 NA 
HETATM   17  C   UNL     1     -10.631  17.274  65.958  1.00  0.00    -0.217 A  
HETATM   18  N   UNL     1     -10.219  18.561  65.632  1.00  0.00    -0.522 NA 
HETATM   19  H2  UNL     1      -9.292  18.699  66.037  1.00  0.00     0.000 HD 
HETATM   20  H1  UNL     1     -10.188  18.903  64.672  1.00  0.00     0.000 HD 
ENDBRANCH   3   5
TORSDOF 1
ENDMDL
MODEL       17
REMARK 921   NORMALIZED FREE ENERGY PREDICTED BY IDOCK:   -6.01 KCAL/MOL
REMARK 922        TOTAL FREE ENERGY PREDICTED BY IDOCK:   -6.60 KCAL/MOL
REMARK 923 INTER-LIGAND FREE ENERGY PREDICTED BY IDOCK:   -6.19 KCAL/MOL
REMARK 924 INTRA-LIGAND FREE ENERGY PREDICTED BY IDOCK:   -0.41 KCAL/MOL
REMARK 927      BINDING AFFINITY PREDICTED BY RF-SCORE:    0.00 PKD
ROOT
HETATM    1  C   UNL     1     -12.375   8.050  71.420  1.00  0.00    -0.328 C  
HETATM    2  C   UNL     1     -12.072   9.533  71.650  1.00  0.00    -0.474 C  
HETATM    3  C   UNL     1     -13.146  10.393  70.956  1.00  0.00    -0.362 C  
HETATM    4  C   UNL     1     -10.641   9.826  71.193  1.00  0.00    -0.215 C  
ENDROOT
BRANCH   3   5
HETATM    5  N   UNL     1     -12.976  11.822  71.127  1.00  0.00    -0.264 NA 
HETATM    6  C   UNL     1     -13.409  12.478  72.253  1.00  0.00    -0.370 A  
HETATM    7  N   UNL     1     -13.079  13.742  72.242  1.00  0.00    -0.400 NA 
HETATM    8  C   UNL     1     -12.440  13.932  71.033  1.00  0.00    -0.377 A  
HETATM    9  C   UNL     1     -12.408  12.752  70.279  1.00  0.00    -0.204 A  
HETATM   10  C   UNL     1     -11.850  12.753  68.967  1.00  0.00    -0.344 A  
HETATM   11  C   UNL     1     -11.770  11.631  68.107  1.00  0.00    -0.365 A  
HETATM   12  C   UNL     1     -11.226  11.753  66.831  1.00  0.00    -0.387 A  
HETATM   13  C   UNL     1     -10.759  12.986  66.397  1.00  0.00    -0.295 A  
HETATM   14  C   UNL     1     -10.830  14.092  67.248  1.00  0.00    -0.288 A  
HETATM   15  C   UNL     1     -11.360  14.008  68.527  1.00  0.00    -0.277 A  
HETATM   16  N   UNL     1     -11.371  15.128  69.267  1.00  0.00    -0.281 NA 
HETATM   17  C   UNL     1     -11.875  15.117  70.518  1.00  0.00    -0.318 A  
HETATM   18  N   UNL     1     -11.833  16.304  71.241  1.00  0.00    -0.636 NA 
HETATM   19  H2  UNL     1     -11.374  16.107  72.131  1.00  0.00     0.000 HD 
HETATM   20  H1  UNL     1     -11.424  17.161  70.869  1.00  0.00     0.000 HD 
ENDBRANCH   3   5
TORSDOF 1
ENDMDL
MODEL       18
REMARK 921   NORMALIZED FREE ENERGY PREDICTED BY IDOCK:   -5.98 KCAL/MOL
REMARK 922        TOTAL FREE ENERGY PREDICTED BY IDOCK:   -6.57 KCAL/MOL
REMARK 923 INTER-LIGAND FREE ENERGY PREDICTED BY IDOCK:   -6.14 KCAL/MOL
REMARK 924 INTRA-LIGAND FREE ENERGY PREDICTED BY IDOCK:   -0.42 KCAL/MOL
REMARK 927      BINDING AFFINITY PREDICTED BY RF-SCORE:    0.00 PKD
ROOT
HETATM    1  C   UNL     1     -11.300  11.867  63.733  1.00  0.00    -0.532 C  
HETATM    2  C   UNL     1     -11.318  13.204  64.478  1.00  0.00    -0.383 C  
HETATM    3  C   UNL     1     -10.201  13.219  65.539  1.00  0.00    -0.290 C  
HETATM    4  C   UNL     1     -12.722  13.442  65.040  1.00  0.00    -0.420 C  
ENDROOT
BRANCH   3   5
HETATM    5  N   UNL     1     -10.105  14.452  66.294  1.00  0.00    -0.286 NA 
HETATM    6  C   UNL     1      -9.482  15.568  65.792  1.00  0.00    -0.299 A  
HETATM    7  N   UNL     1      -9.587  16.592  66.598  1.00  0.00    -0.245 NA 
HETATM    8  C   UNL     1     -10.269  16.112  67.697  1.00  0.00    -0.265 A  
HETATM    9  C   UNL     1     -10.563  14.748  67.563  1.00  0.00    -0.259 A  
HETATM   10  C   UNL     1     -11.207  14.045  68.623  1.00  0.00    -0.294 A  
HETATM   11  C   UNL     1     -11.545  12.670  68.611  1.00  0.00    -0.356 A  
HETATM   12  C   UNL     1     -12.152  12.079  69.716  1.00  0.00    -0.317 A  
HETATM   13  C   UNL     1     -12.426  12.845  70.841  1.00  0.00    -0.383 A  
HETATM   14  C   UNL     1     -12.100  14.203  70.851  1.00  0.00    -0.416 A  
HETATM   15  C   UNL     1     -11.501  14.828  69.767  1.00  0.00    -0.291 A  
HETATM   16  N   UNL     1     -11.239  16.140  69.876  1.00  0.00    -0.347 NA 
HETATM   17  C   UNL     1     -10.654  16.808  68.861  1.00  0.00    -0.350 A  
HETATM   18  N   UNL     1     -10.434  18.171  69.027  1.00  0.00    -0.410 NA 
HETATM   19  H2  UNL     1     -10.855  18.650  68.230  1.00  0.00     0.000 HD 
HETATM   20  H1  UNL     1     -10.713  18.675  69.869  1.00  0.00     0.000 HD 
ENDBRANCH   3   5
TORSDOF 1
ENDMDL
MODEL       19
REMARK 921   NORMALIZED FREE ENERGY PREDICTED BY IDOCK:   -5.97 KCAL/MOL
REMARK 922        TOTAL FREE ENERGY PREDICTED BY IDOCK:   -6.55 KCAL/MOL
REMARK 923 INTER-LIGAND FREE ENERGY PREDICTED BY IDOCK:   -6.28 KCAL/MOL
REMARK 924 INTRA-LIGAND FREE ENERGY PREDICTED BY IDOCK:   -0.28 KCAL/MOL
REMARK 927      BINDING AFFINITY PREDICTED BY RF-SCORE:    0.00 PKD
ROOT
HETATM    1  C   UNL     1      -8.240   8.334  67.109  1.00  0.00    -0.119 C  
HETATM    2  C   UNL     1      -8.641   9.702  66.550  1.00  0.00    -0.135 C  
HETATM    3  C   UNL     1      -9.870   9.546  65.635  1.00  0.00    -0.272 C  
HETATM    4  C   UNL     1      -7.427  10.336  65.867  1.00  0.00    -0.135 C  
ENDROOT
BRANCH   3   5
HETATM    5  N   UNL     1     -10.359  10.786  65.066  1.00  0.00    -0.303 NA 
HETATM    6  C   UNL     1     -10.292  11.045  63.719  1.00  0.00    -0.364 A  
HETATM    7  N   UNL     1     -10.866  12.178  63.409  1.00  0.00    -0.438 NA 
HETATM    8  C   UNL     1     -11.288  12.704  64.612  1.00  0.00    -0.318 A  
HETATM    9  C   UNL     1     -10.934  11.877  65.687  1.00  0.00    -0.304 A  
HETATM   10  C   UNL     1     -11.220  12.276  67.025  1.00  0.00    -0.367 A  
HETATM   11  C   UNL     1     -10.902  11.535  68.189  1.00  0.00    -0.259 A  
HETATM   12  C   UNL     1     -11.207  12.035  69.453  1.00  0.00    -0.263 A  
HETATM   13  C   UNL     1     -11.825  13.271  69.572  1.00  0.00    -0.388 A  
HETATM   14  C   UNL     1     -12.146  14.000  68.424  1.00  0.00    -0.318 A  
HETATM   15  C   UNL     1     -11.863  13.532  67.149  1.00  0.00    -0.387 A  
HETATM   16  N   UNL     1     -12.223  14.306  66.113  1.00  0.00    -0.430 NA 
HETATM   17  C   UNL     1     -11.975  13.913  64.846  1.00  0.00    -0.395 A  
HETATM   18  N   UNL     1     -12.397  14.748  63.817  1.00  0.00    -1.082 NA 
HETATM   19  H2  UNL     1     -12.967  14.189  63.181  1.00  0.00     0.000 HD 
HETATM   20  H1  UNL     1     -12.894  15.622  63.986  1.00  0.00     0.000 HD 
ENDBRANCH   3   5
TORSDOF 1
ENDMDL
MODEL       20
REMARK 921   NORMALIZED FREE ENERGY PREDICTED BY IDOCK:   -5.92 KCAL/MOL
REMARK 922        TOTAL FREE ENERGY PREDICTED BY IDOCK:   -6.51 KCAL/MOL
REMARK 923 INTER-LIGAND FREE ENERGY PREDICTED BY IDOCK:   -6.37 KCAL/MOL
REMARK 924 INTRA-LIGAND FREE ENERGY PREDICTED BY IDOCK:   -0.14 KCAL/MOL
REMARK 927      BINDING AFFINITY PREDICTED BY RF-SCORE:    0.00 PKD
ROOT
HETATM    1  C   UNL     1     -10.247   9.824  70.271  1.00  0.00    -0.346 C  
HETATM    2  C   UNL     1     -11.070  10.470  69.153  1.00  0.00    -0.302 C  
HETATM    3  C   UNL     1     -10.305  11.679  68.582  1.00  0.00    -0.215 C  
HETATM    4  C   UNL     1     -12.464  10.805  69.689  1.00  0.00    -0.166 C  
ENDROOT
BRANCH   3   5
HETATM    5  N   UNL     1     -10.979  12.359  67.493  1.00  0.00    -0.242 NA 
HETATM    6  C   UNL     1     -11.881  13.370  67.714  1.00  0.00    -0.358 A  
HETATM    7  N   UNL     1     -12.302  13.903  66.597  1.00  0.00    -0.418 NA 
HETATM    8  C   UNL     1     -11.682  13.178  65.600  1.00  0.00    -0.364 A  
HETATM    9  C   UNL     1     -10.882  12.157  66.131  1.00  0.00    -0.282 A  
HETATM   10  C   UNL     1     -10.207  11.249  65.263  1.00  0.00    -0.328 A  
HETATM   11  C   UNL     1      -9.383  10.176  65.678  1.00  0.00    -0.250 A  
HETATM   12  C   UNL     1      -8.791   9.333  64.740  1.00  0.00    -0.225 A  
HETATM   13  C   UNL     1      -9.013   9.546  63.387  1.00  0.00    -0.205 A  
HETATM   14  C   UNL     1      -9.819  10.610  62.977  1.00  0.00    -0.318 A  
HETATM   15  C   UNL     1     -10.421  11.473  63.880  1.00  0.00    -0.385 A  
HETATM   16  N   UNL     1     -11.168  12.470  63.380  1.00  0.00    -0.458 NA 
HETATM   17  C   UNL     1     -11.784  13.344  64.203  1.00  0.00    -0.419 A  
HETATM   18  N   UNL     1     -12.521  14.369  63.622  1.00  0.00    -1.086 NA 
HETATM   19  H2  UNL     1     -12.185  15.250  64.012  1.00  0.00     0.000 HD 
HETATM   20  H1  UNL     1     -12.594  14.490  62.612  1.00  0.00     0.000 HD 
ENDBRANCH   3   5
TORSDOF 1
ENDMDL
MODEL       21
REMARK 921   NORMALIZED FREE ENERGY PREDICTED BY IDOCK:   -5.92 KCAL/MOL
REMARK 922        TOTAL FREE ENERGY PREDICTED BY IDOCK:   -6.50 KCAL/MOL
REMARK 923 INTER-LIGAND FREE ENERGY PREDICTED BY IDOCK:   -6.24 KCAL/MOL
REMARK 924 INTRA-LIGAND FREE ENERGY PREDICTED BY IDOCK:   -0.27 KCAL/MOL
REMARK 927      BINDING AFFINITY PREDICTED BY RF-SCORE:    0.00 PKD
ROOT
HETATM    1  C   UNL     1      -9.451  19.085  66.397  1.00  0.00    -0.375 C  
HETATM    2  C   UNL     1      -9.462  17.748  67.144  1.00  0.00    -0.265 C  
HETATM    3  C   UNL     1     -10.848  17.523  67.778  1.00  0.00    -0.249 C  
HETATM    4  C   UNL     1      -8.304  17.727  68.144  1.00  0.00    -0.264 C  
ENDROOT
BRANCH   3   5
HETATM    5  N   UNL     1     -10.987  16.271  68.494  1.00  0.00    -0.329 NA 
HETATM    6  C   UNL     1     -10.822  16.188  69.855  1.00  0.00    -0.355 A  
HETATM    7  N   UNL     1     -11.078  14.988  70.307  1.00  0.00    -0.246 NA 
HETATM    8  C   UNL     1     -11.381  14.243  69.186  1.00  0.00    -0.276 A  
HETATM    9  C   UNL     1     -11.278  15.008  68.017  1.00  0.00    -0.316 A  
HETATM   10  C   UNL     1     -11.486  14.404  66.743  1.00  0.00    -0.381 A  
HETATM   11  C   UNL     1     -11.400  15.068  65.495  1.00  0.00    -0.312 A  
HETATM   12  C   UNL     1     -11.598  14.371  64.305  1.00  0.00    -0.279 A  
HETATM   13  C   UNL     1     -11.881  13.013  64.344  1.00  0.00    -0.443 A  
HETATM   14  C   UNL     1     -11.974  12.359  65.574  1.00  0.00    -0.453 A  
HETATM   15  C   UNL     1     -11.789  13.020  66.779  1.00  0.00    -0.388 A  
HETATM   16  N   UNL     1     -11.911  12.301  67.905  1.00  0.00    -0.480 NA 
HETATM   17  C   UNL     1     -11.740  12.881  69.111  1.00  0.00    -0.324 A  
HETATM   18  N   UNL     1     -11.907  12.086  70.240  1.00  0.00    -0.502 NA 
HETATM   19  H2  UNL     1     -12.585  12.549  70.845  1.00  0.00     0.000 HD 
HETATM   20  H1  UNL     1     -12.167  11.102  70.186  1.00  0.00     0.000 HD 
ENDBRANCH   3   5
TORSDOF 1
ENDMDL
MODEL       22
REMARK 921   NORMALIZED FREE ENERGY PREDICTED BY IDOCK:   -5.90 KCAL/MOL
REMARK 922        TOTAL FREE ENERGY PREDICTED BY IDOCK:   -6.48 KCAL/MOL
REMARK 923 INTER-LIGAND FREE ENERGY PREDICTED BY IDOCK:   -6.19 KCAL/MOL
REMARK 924 INTRA-LIGAND FREE ENERGY PREDICTED BY IDOCK:   -0.30 KCAL/MOL
REMARK 927      BINDING AFFINITY PREDICTED BY RF-SCORE:    0.00 PKD
ROOT
HETATM    1  C   UNL     1      -8.831  12.771  66.784  1.00  0.00    -0.161 C  
HETATM    2  C   UNL     1      -9.422  13.268  68.106  1.00  0.00    -0.222 C  
HETATM    3  C   UNL     1     -10.890  13.684  67.890  1.00  0.00    -0.250 C  
HETATM    4  C   UNL     1      -8.531  14.380  68.664  1.00  0.00    -0.156 C  
ENDROOT
BRANCH   3   5
HETATM    5  N   UNL     1     -11.566  14.150  69.084  1.00  0.00    -0.285 NA 
HETATM    6  C   UNL     1     -11.743  15.487  69.346  1.00  0.00    -0.367 A  
HETATM    7  N   UNL     1     -12.452  15.684  70.426  1.00  0.00    -0.410 NA 
HETATM    8  C   UNL     1     -12.712  14.422  70.917  1.00  0.00    -0.355 A  
HETATM    9  C   UNL     1     -12.119  13.430  70.124  1.00  0.00    -0.344 A  
HETATM   10  C   UNL     1     -12.213  12.058  70.500  1.00  0.00    -0.414 A  
HETATM   11  C   UNL     1     -11.649  10.971  69.790  1.00  0.00    -0.401 A  
HETATM   12  C   UNL     1     -11.782   9.668  70.264  1.00  0.00    -0.213 A  
HETATM   13  C   UNL     1     -12.472   9.434  71.446  1.00  0.00    -0.435 A  
HETATM   14  C   UNL     1     -13.036  10.505  72.143  1.00  0.00    -0.413 A  
HETATM   15  C   UNL     1     -12.929  11.815  71.699  1.00  0.00    -0.362 A  
HETATM   16  N   UNL     1     -13.517  12.769  72.438  1.00  0.00    -0.520 NA 
HETATM   17  C   UNL     1     -13.449  14.063  72.066  1.00  0.00    -0.439 A  
HETATM   18  N   UNL     1     -14.101  14.999  72.861  1.00  0.00    -0.440 NA 
HETATM   19  H2  UNL     1     -14.720  15.540  72.255  1.00  0.00     0.000 HD 
HETATM   20  H1  UNL     1     -14.634  14.741  73.690  1.00  0.00     0.000 HD 
ENDBRANCH   3   5
TORSDOF 1
ENDMDL
MODEL       23
REMARK 921   NORMALIZED FREE ENERGY PREDICTED BY IDOCK:   -5.89 KCAL/MOL
REMARK 922        TOTAL FREE ENERGY PREDICTED BY IDOCK:   -6.48 KCAL/MOL
REMARK 923 INTER-LIGAND FREE ENERGY PREDICTED BY IDOCK:   -6.21 KCAL/MOL
REMARK 924 INTRA-LIGAND FREE ENERGY PREDICTED BY IDOCK:   -0.27 KCAL/MOL
REMARK 927      BINDING AFFINITY PREDICTED BY RF-SCORE:    0.00 PKD
ROOT
HETATM    1  C   UNL     1     -13.954  15.907  72.811  1.00  0.00    -0.461 C  
HETATM    2  C   UNL     1     -12.875  15.470  71.817  1.00  0.00    -0.512 C  
HETATM    3  C   UNL     1     -13.328  14.185  71.097  1.00  0.00    -0.265 C  
HETATM    4  C   UNL     1     -11.541  15.339  72.555  1.00  0.00    -0.498 C  
ENDROOT
BRANCH   3   5
HETATM    5  N   UNL     1     -12.393  13.688  70.107  1.00  0.00    -0.326 NA 
HETATM    6  C   UNL     1     -11.892  14.489  69.111  1.00  0.00    -0.319 A  
HETATM    7  N   UNL     1     -11.000  13.868  68.385  1.00  0.00    -0.244 NA 
HETATM    8  C   UNL     1     -10.950  12.589  68.900  1.00  0.00    -0.227 A  
HETATM    9  C   UNL     1     -11.858  12.424  69.954  1.00  0.00    -0.305 A  
HETATM   10  C   UNL     1     -12.009  11.153  70.580  1.00  0.00    -0.459 A  
HETATM   11  C   UNL     1     -12.898  10.860  71.643  1.00  0.00    -0.554 A  
HETATM   12  C   UNL     1     -12.981   9.571  72.163  1.00  0.00    -0.497 A  
HETATM   13  C   UNL     1     -12.187   8.563  71.634  1.00  0.00    -0.371 A  
HETATM   14  C   UNL     1     -11.303   8.853  70.591  1.00  0.00    -0.299 A  
HETATM   15  C   UNL     1     -11.189  10.125  70.051  1.00  0.00    -0.299 A  
HETATM   16  N   UNL     1     -10.302  10.298  69.059  1.00  0.00    -0.198 NA 
HETATM   17  C   UNL     1     -10.142  11.509  68.486  1.00  0.00    -0.207 A  
HETATM   18  N   UNL     1      -9.189  11.628  67.481  1.00  0.00    -0.169 NA 
HETATM   19  H2  UNL     1      -8.567  12.396  67.736  1.00  0.00     0.000 HD 
HETATM   20  H1  UNL     1      -8.605  10.848  67.182  1.00  0.00     0.000 HD 
ENDBRANCH   3   5
TORSDOF 1
ENDMDL
MODEL       24
REMARK 921   NORMALIZED FREE ENERGY PREDICTED BY IDOCK:   -5.82 KCAL/MOL
REMARK 922        TOTAL FREE ENERGY PREDICTED BY IDOCK:   -6.40 KCAL/MOL
REMARK 923 INTER-LIGAND FREE ENERGY PREDICTED BY IDOCK:   -5.98 KCAL/MOL
REMARK 924 INTRA-LIGAND FREE ENERGY PREDICTED BY IDOCK:   -0.42 KCAL/MOL
REMARK 927      BINDING AFFINITY PREDICTED BY RF-SCORE:    0.00 PKD
ROOT
HETATM    1  C   UNL     1     -11.661  15.983  68.998  1.00  0.00    -0.350 C  
HETATM    2  C   UNL     1     -11.149  15.315  67.719  1.00  0.00    -0.318 C  
HETATM    3  C   UNL     1     -12.117  14.190  67.302  1.00  0.00    -0.372 C  
HETATM    4  C   UNL     1      -9.708  14.852  67.941  1.00  0.00    -0.206 C  
ENDROOT
BRANCH   3   5
HETATM    5  N   UNL     1     -11.747  13.498  66.084  1.00  0.00    -0.348 NA 
HETATM    6  C   UNL     1     -11.914  14.065  64.845  1.00  0.00    -0.404 A  
HETATM    7  N   UNL     1     -11.435  13.310  63.891  1.00  0.00    -0.388 NA 
HETATM    8  C   UNL     1     -10.975  12.178  64.532  1.00  0.00    -0.314 A  
HETATM    9  C   UNL     1     -11.207  12.239  65.913  1.00  0.00    -0.340 A  
HETATM   10  C   UNL     1     -10.865  11.136  66.748  1.00  0.00    -0.322 A  
HETATM   11  C   UNL     1     -11.060  11.074  68.149  1.00  0.00    -0.329 A  
HETATM   12  C   UNL     1     -10.711   9.931  68.864  1.00  0.00    -0.244 A  
HETATM   13  C   UNL     1     -10.169   8.842  68.197  1.00  0.00    -0.250 A  
HETATM   14  C   UNL     1      -9.968   8.905  66.816  1.00  0.00    -0.338 A  
HETATM   15  C   UNL     1     -10.298  10.027  66.071  1.00  0.00    -0.152 A  
HETATM   16  N   UNL     1     -10.054   9.988  64.752  1.00  0.00    -0.207 NA 
HETATM   17  C   UNL     1     -10.354  11.044  63.968  1.00  0.00    -0.371 A  
HETATM   18  N   UNL     1     -10.053  10.949  62.614  1.00  0.00    -0.727 NA 
HETATM   19  H2  UNL     1      -9.489  11.762  62.366  1.00  0.00     0.000 HD 
HETATM   20  H1  UNL     1      -9.605  10.129  62.206  1.00  0.00     0.000 HD 
ENDBRANCH   3   5
TORSDOF 1
ENDMDL
MODEL       25
REMARK 921   NORMALIZED FREE ENERGY PREDICTED BY IDOCK:   -5.82 KCAL/MOL
REMARK 922        TOTAL FREE ENERGY PREDICTED BY IDOCK:   -6.40 KCAL/MOL
REMARK 923 INTER-LIGAND FREE ENERGY PREDICTED BY IDOCK:   -6.11 KCAL/MOL
REMARK 924 INTRA-LIGAND FREE ENERGY PREDICTED BY IDOCK:   -0.29 KCAL/MOL
REMARK 927      BINDING AFFINITY PREDICTED BY RF-SCORE:    0.00 PKD
ROOT
HETATM    1  C   UNL     1     -10.821   8.581  70.299  1.00  0.00    -0.249 C  
HETATM    2  C   UNL     1     -10.434  10.034  70.011  1.00  0.00    -0.337 C  
HETATM    3  C   UNL     1     -11.315  10.586  68.873  1.00  0.00    -0.251 C  
HETATM    4  C   UNL     1      -8.931  10.102  69.730  1.00  0.00    -0.159 C  
ENDROOT
BRANCH   3   5
HETATM    5  N   UNL     1     -11.055  11.969  68.528  1.00  0.00    -0.226 NA 
HETATM    6  C   UNL     1     -10.270  12.317  67.456  1.00  0.00    -0.204 A  
HETATM    7  N   UNL     1     -10.239  13.611  67.271  1.00  0.00    -0.244 NA 
HETATM    8  C   UNL     1     -11.001  14.135  68.295  1.00  0.00    -0.251 A  
HETATM    9  C   UNL     1     -11.486  13.129  69.141  1.00  0.00    -0.305 A  
HETATM   10  C   UNL     1     -12.241  13.468  70.301  1.00  0.00    -0.417 A  
HETATM   11  C   UNL     1     -12.773  12.546  71.234  1.00  0.00    -0.350 A  
HETATM   12  C   UNL     1     -13.477  12.992  72.350  1.00  0.00    -0.615 A  
HETATM   13  C   UNL     1     -13.656  14.354  72.551  1.00  0.00    -0.598 A  
HETATM   14  C   UNL     1     -13.139  15.264  71.626  1.00  0.00    -0.507 A  
HETATM   15  C   UNL     1     -12.438  14.858  70.501  1.00  0.00    -0.363 A  
HETATM   16  N   UNL     1     -11.993  15.813  69.670  1.00  0.00    -0.350 NA 
HETATM   17  C   UNL     1     -11.301  15.488  68.559  1.00  0.00    -0.351 A  
HETATM   18  N   UNL     1     -10.890  16.523  67.726  1.00  0.00    -0.332 NA 
HETATM   19  H2  UNL     1     -11.225  16.313  66.786  1.00  0.00     0.000 HD 
HETATM   20  H1  UNL     1     -11.108  17.501  67.917  1.00  0.00     0.000 HD 
ENDBRANCH   3   5
TORSDOF 1
ENDMDL
MODEL       26
REMARK 921   NORMALIZED FREE ENERGY PREDICTED BY IDOCK:   -5.73 KCAL/MOL
REMARK 922        TOTAL FREE ENERGY PREDICTED BY IDOCK:   -6.30 KCAL/MOL
REMARK 923 INTER-LIGAND FREE ENERGY PREDICTED BY IDOCK:   -5.96 KCAL/MOL
REMARK 924 INTRA-LIGAND FREE ENERGY PREDICTED BY IDOCK:   -0.34 KCAL/MOL
REMARK 927      BINDING AFFINITY PREDICTED BY RF-SCORE:    0.00 PKD
ROOT
HETATM    1  C   UNL     1     -13.845  15.701  72.628  1.00  0.00    -0.648 C  
HETATM    2  C   UNL     1     -12.814  15.526  71.509  1.00  0.00    -0.519 C  
HETATM    3  C   UNL     1     -13.220  14.339  70.615  1.00  0.00    -0.116 C  
HETATM    4  C   UNL     1     -11.422  15.396  72.131  1.00  0.00    -0.525 C  
ENDROOT
BRANCH   3   5
HETATM    5  N   UNL     1     -12.327  14.091  69.501  1.00  0.00    -0.299 NA 
HETATM    6  C   UNL     1     -12.081  15.040  68.540  1.00  0.00    -0.142 A  
HETATM    7  N   UNL     1     -11.180  14.644  67.678  1.00  0.00    -0.307 NA 
HETATM    8  C   UNL     1     -10.857  13.360  68.068  1.00  0.00    -0.247 A  
HETATM    9  C   UNL     1     -11.604  12.958  69.183  1.00  0.00    -0.322 A  
HETATM   10  C   UNL     1     -11.466  11.637  69.701  1.00  0.00    -0.359 A  
HETATM   11  C   UNL     1     -12.171  11.113  70.811  1.00  0.00    -0.484 A  
HETATM   12  C   UNL     1     -11.976   9.795  71.217  1.00  0.00    -0.471 A  
HETATM   13  C   UNL     1     -11.084   8.988  70.526  1.00  0.00    -0.297 A  
HETATM   14  C   UNL     1     -10.382   9.507  69.435  1.00  0.00    -0.225 A  
HETATM   15  C   UNL     1     -10.545  10.815  69.006  1.00  0.00    -0.219 A  
HETATM   16  N   UNL     1      -9.814  11.217  67.954  1.00  0.00    -0.172 NA 
HETATM   17  C   UNL     1      -9.927  12.476  67.482  1.00  0.00    -0.201 A  
HETATM   18  N   UNL     1      -9.122  12.837  66.407  1.00  0.00    -0.411 NA 
HETATM   19  H2  UNL     1      -8.617  13.683  66.672  1.00  0.00     0.000 HD 
HETATM   20  H1  UNL     1      -8.450  12.198  65.984  1.00  0.00     0.000 HD 
ENDBRANCH   3   5
TORSDOF 1
ENDMDL
MODEL       27
REMARK 921   NORMALIZED FREE ENERGY PREDICTED BY IDOCK:   -5.72 KCAL/MOL
REMARK 922        TOTAL FREE ENERGY PREDICTED BY IDOCK:   -6.30 KCAL/MOL
REMARK 923 INTER-LIGAND FREE ENERGY PREDICTED BY IDOCK:   -6.22 KCAL/MOL
REMARK 924 INTRA-LIGAND FREE ENERGY PREDICTED BY IDOCK:   -0.08 KCAL/MOL
REMARK 927      BINDING AFFINITY PREDICTED BY RF-SCORE:    0.00 PKD
ROOT
HETATM    1  C   UNL     1     -10.958  16.413  69.777  1.00  0.00    -0.341 C  
HETATM    2  C   UNL     1     -11.248  15.249  70.729  1.00  0.00    -0.353 C  
HETATM    3  C   UNL     1     -12.440  14.432  70.197  1.00  0.00    -0.339 C  
HETATM    4  C   UNL     1     -11.445  15.799  72.144  1.00  0.00    -0.444 C  
ENDROOT
BRANCH   3   5
HETATM    5  N   UNL     1     -12.793  13.283  71.007  1.00  0.00    -0.275 NA 
HETATM    6  C   UNL     1     -13.613  13.389  72.103  1.00  0.00    -0.567 A  
HETATM    7  N   UNL     1     -13.872  12.223  72.635  1.00  0.00     0.042 NA 
HETATM    8  C   UNL     1     -13.153  11.319  71.880  1.00  0.00    -0.405 A  
HETATM    9  C   UNL     1     -12.415  11.961  70.876  1.00  0.00    -0.300 A  
HETATM   10  C   UNL     1     -11.552  11.209  70.028  1.00  0.00    -0.421 A  
HETATM   11  C   UNL     1     -10.750  11.743  68.990  1.00  0.00    -0.209 A  
HETATM   12  C   UNL     1      -9.921  10.916  68.237  1.00  0.00    -0.187 A  
HETATM   13  C   UNL     1      -9.878   9.555  68.507  1.00  0.00    -0.172 A  
HETATM   14  C   UNL     1     -10.675   9.026  69.525  1.00  0.00    -0.215 A  
HETATM   15  C   UNL     1     -11.517   9.817  70.292  1.00  0.00    -0.255 A  
HETATM   16  N   UNL     1     -12.248   9.207  71.238  1.00  0.00    -0.317 NA 
HETATM   17  C   UNL     1     -13.085   9.918  72.022  1.00  0.00    -0.448 A  
HETATM   18  N   UNL     1     -13.833   9.222  72.965  1.00  0.00    -1.013 NA 
HETATM   19  H2  UNL     1     -14.813   9.468  72.823  1.00  0.00     0.000 HD 
HETATM   20  H1  UNL     1     -13.783   8.209  73.069  1.00  0.00     0.000 HD 
ENDBRANCH   3   5
TORSDOF 1
ENDMDL
MODEL       28
REMARK 921   NORMALIZED FREE ENERGY PREDICTED BY IDOCK:   -5.71 KCAL/MOL
REMARK 922        TOTAL FREE ENERGY PREDICTED BY IDOCK:   -6.28 KCAL/MOL
REMARK 923 INTER-LIGAND FREE ENERGY PREDICTED BY IDOCK:   -6.40 KCAL/MOL
REMARK 924 INTRA-LIGAND FREE ENERGY PREDICTED BY IDOCK:    0.11 KCAL/MOL
REMARK 927      BINDING AFFINITY PREDICTED BY RF-SCORE:    0.00 PKD
ROOT
HETATM    1  C   UNL     1     -13.076  12.533  71.641  1.00  0.00    -0.414 C  
HETATM    2  C   UNL     1     -12.296  11.498  70.825  1.00  0.00    -0.472 C  
HETATM    3  C   UNL     1     -11.906  12.104  69.463  1.00  0.00    -0.321 C  
HETATM    4  C   UNL     1     -13.124  10.215  70.726  1.00  0.00    -0.351 C  
ENDROOT
BRANCH   3   5
HETATM    5  N   UNL     1     -11.138  11.221  68.608  1.00  0.00    -0.211 NA 
HETATM    6  C   UNL     1     -10.404  10.176  69.113  1.00  0.00    -0.219 A  
HETATM    7  N   UNL     1      -9.862   9.455  68.166  1.00  0.00    -0.155 NA 
HETATM    8  C   UNL     1     -10.222  10.083  66.991  1.00  0.00    -0.237 A  
HETATM    9  C   UNL     1     -10.982  11.235  67.236  1.00  0.00    -0.286 A  
HETATM   10  C   UNL     1     -11.396  12.065  66.155  1.00  0.00    -0.407 A  
HETATM   11  C   UNL     1     -12.154  13.255  66.276  1.00  0.00    -0.472 A  
HETATM   12  C   UNL     1     -12.483  14.005  65.149  1.00  0.00    -0.472 A  
HETATM   13  C   UNL     1     -12.062  13.583  63.896  1.00  0.00    -0.493 A  
HETATM   14  C   UNL     1     -11.321  12.405  63.774  1.00  0.00    -0.536 A  
HETATM   15  C   UNL     1     -10.979  11.630  64.872  1.00  0.00    -0.284 A  
HETATM   16  N   UNL     1     -10.274  10.510  64.644  1.00  0.00    -0.340 NA 
HETATM   17  C   UNL     1      -9.906   9.712  65.668  1.00  0.00    -0.299 A  
HETATM   18  N   UNL     1      -9.199   8.554  65.362  1.00  0.00    -0.427 NA 
HETATM   19  H2  UNL     1      -9.692   7.771  65.791  1.00  0.00     0.000 HD 
HETATM   20  H1  UNL     1      -8.971   8.286  64.405  1.00  0.00     0.000 HD 
ENDBRANCH   3   5
TORSDOF 1
ENDMDL
MODEL       29
REMARK 921   NORMALIZED FREE ENERGY PREDICTED BY IDOCK:   -5.66 KCAL/MOL
REMARK 922        TOTAL FREE ENERGY PREDICTED BY IDOCK:   -6.23 KCAL/MOL
REMARK 923 INTER-LIGAND FREE ENERGY PREDICTED BY IDOCK:   -5.94 KCAL/MOL
REMARK 924 INTRA-LIGAND FREE ENERGY PREDICTED BY IDOCK:   -0.29 KCAL/MOL
REMARK 927      BINDING AFFINITY PREDICTED BY RF-SCORE:    0.00 PKD
ROOT
HETATM    1  C   UNL     1     -10.048  18.645  67.962  1.00  0.00    -0.413 C  
HETATM    2  C   UNL     1      -9.815  17.386  67.122  1.00  0.00    -0.278 C  
HETATM    3  C   UNL     1     -11.036  16.454  67.240  1.00  0.00    -0.118 C  
HETATM    4  C   UNL     1      -8.492  16.744  67.543  1.00  0.00    -0.203 C  
ENDROOT
BRANCH   3   5
HETATM    5  N   UNL     1     -10.940  15.234  66.463  1.00  0.00    -0.313 NA 
HETATM    6  C   UNL     1     -10.672  15.248  65.116  1.00  0.00    -0.436 A  
HETATM    7  N   UNL     1     -10.541  14.041  64.631  1.00  0.00    -0.422 NA 
HETATM    8  C   UNL     1     -10.778  13.200  65.698  1.00  0.00    -0.280 A  
HETATM    9  C   UNL     1     -11.089  13.920  66.860  1.00  0.00    -0.301 A  
HETATM   10  C   UNL     1     -11.433  13.233  68.060  1.00  0.00    -0.344 A  
HETATM   11  C   UNL     1     -11.776  13.847  69.289  1.00  0.00    -0.381 A  
HETATM   12  C   UNL     1     -12.121  13.075  70.396  1.00  0.00    -0.391 A  
HETATM   13  C   UNL     1     -12.133  11.691  70.292  1.00  0.00    -0.443 A  
HETATM   14  C   UNL     1     -11.787  11.084  69.082  1.00  0.00    -0.407 A  
HETATM   15  C   UNL     1     -11.432  11.819  67.961  1.00  0.00    -0.319 A  
HETATM   16  N   UNL     1     -11.107  11.137  66.851  1.00  0.00    -0.280 NA 
HETATM   17  C   UNL     1     -10.756  11.790  65.724  1.00  0.00    -0.280 A  
HETATM   18  N   UNL     1     -10.405  11.025  64.618  1.00  0.00    -0.330 NA 
HETATM   19  H2  UNL     1      -9.487  11.341  64.303  1.00  0.00     0.000 HD 
HETATM   20  H1  UNL     1     -10.389  10.006  64.636  1.00  0.00     0.000 HD 
ENDBRANCH   3   5
TORSDOF 1
ENDMDL
MODEL       30
REMARK 921   NORMALIZED FREE ENERGY PREDICTED BY IDOCK:   -5.64 KCAL/MOL
REMARK 922        TOTAL FREE ENERGY PREDICTED BY IDOCK:   -6.21 KCAL/MOL
REMARK 923 INTER-LIGAND FREE ENERGY PREDICTED BY IDOCK:   -5.80 KCAL/MOL
REMARK 924 INTRA-LIGAND FREE ENERGY PREDICTED BY IDOCK:   -0.41 KCAL/MOL
REMARK 927      BINDING AFFINITY PREDICTED BY RF-SCORE:    0.00 PKD
ROOT
HETATM    1  C   UNL     1     -11.189   8.770  69.978  1.00  0.00    -0.113 C  
HETATM    2  C   UNL     1     -10.911  10.276  69.971  1.00  0.00    -0.364 C  
HETATM    3  C   UNL     1     -12.129  11.022  69.394  1.00  0.00    -0.318 C  
HETATM    4  C   UNL     1      -9.602  10.537  69.222  1.00  0.00    -0.199 C  
ENDROOT
BRANCH   3   5
HETATM    5  N   UNL     1     -11.991  12.465  69.361  1.00  0.00    -0.289 NA 
HETATM    6  C   UNL     1     -12.242  13.246  70.462  1.00  0.00    -0.340 A  
HETATM    7  N   UNL     1     -11.971  14.506  70.240  1.00  0.00    -0.294 NA 
HETATM    8  C   UNL     1     -11.568  14.557  68.922  1.00  0.00    -0.309 A  
HETATM    9  C   UNL     1     -11.622  13.292  68.319  1.00  0.00    -0.334 A  
HETATM   10  C   UNL     1     -11.308  13.142  66.937  1.00  0.00    -0.355 A  
HETATM   11  C   UNL     1     -11.337  11.924  66.216  1.00  0.00    -0.394 A  
HETATM   12  C   UNL     1     -11.035  11.897  64.856  1.00  0.00    -0.367 A  
HETATM   13  C   UNL     1     -10.705  13.076  64.202  1.00  0.00    -0.429 A  
HETATM   14  C   UNL     1     -10.668  14.277  64.915  1.00  0.00    -0.448 A  
HETATM   15  C   UNL     1     -10.957  14.342  66.269  1.00  0.00    -0.317 A  
HETATM   16  N   UNL     1     -10.882  15.544  66.861  1.00  0.00    -0.315 NA 
HETATM   17  C   UNL     1     -11.153  15.679  68.176  1.00  0.00    -0.330 A  
HETATM   18  N   UNL     1     -11.031  16.947  68.733  1.00  0.00    -0.282 NA 
HETATM   19  H2  UNL     1     -10.413  16.870  69.541  1.00  0.00     0.000 HD 
HETATM   20  H1  UNL     1     -10.732  17.759  68.194  1.00  0.00     0.000 HD 
ENDBRANCH   3   5
TORSDOF 1
ENDMDL
MODEL       31
REMARK 921   NORMALIZED FREE ENERGY PREDICTED BY IDOCK:   -5.62 KCAL/MOL
REMARK 922        TOTAL FREE ENERGY PREDICTED BY IDOCK:   -6.18 KCAL/MOL
REMARK 923 INTER-LIGAND FREE ENERGY PREDICTED BY IDOCK:   -5.91 KCAL/MOL
REMARK 924 INTRA-LIGAND FREE ENERGY PREDICTED BY IDOCK:   -0.27 KCAL/MOL
REMARK 927      BINDING AFFINITY PREDICTED BY RF-SCORE:    0.00 PKD
ROOT
HETATM    1  C   UNL     1     -12.479   6.686  71.787  1.00  0.00    -0.360 C  
HETATM    2  C   UNL     1     -12.884   8.045  71.209  1.00  0.00    -0.221 C  
HETATM    3  C   UNL     1     -11.866   9.116  71.648  1.00  0.00    -0.372 C  
HETATM    4  C   UNL     1     -14.328   8.349  71.615  1.00  0.00    -0.536 C  
ENDROOT
BRANCH   3   5
HETATM    5  N   UNL     1     -12.133  10.445  71.137  1.00  0.00    -0.375 NA 
HETATM    6  C   UNL     1     -12.796  11.391  71.880  1.00  0.00    -0.275 A  
HETATM    7  N   UNL     1     -12.852  12.544  71.267  1.00  0.00    -0.313 NA 
HETATM    8  C   UNL     1     -12.238  12.331  70.050  1.00  0.00    -0.196 A  
HETATM    9  C   UNL     1     -11.821  11.000  69.912  1.00  0.00    -0.353 A  
HETATM   10  C   UNL     1     -11.223  10.558  68.696  1.00  0.00    -0.328 A  
HETATM   11  C   UNL     1     -10.773   9.242  68.433  1.00  0.00    -0.192 A  
HETATM   12  C   UNL     1     -10.225   8.913  67.195  1.00  0.00    -0.339 A  
HETATM   13  C   UNL     1     -10.121   9.885  66.210  1.00  0.00    -0.311 A  
HETATM   14  C   UNL     1     -10.556  11.187  66.472  1.00  0.00    -0.314 A  
HETATM   15  C   UNL     1     -11.102  11.552  67.693  1.00  0.00    -0.266 A  
HETATM   16  N   UNL     1     -11.480  12.831  67.844  1.00  0.00    -0.295 NA 
HETATM   17  C   UNL     1     -12.021  13.253  69.005  1.00  0.00    -0.293 A  
HETATM   18  N   UNL     1     -12.367  14.596  69.106  1.00  0.00    -0.573 NA 
HETATM   19  H2  UNL     1     -11.915  14.968  69.942  1.00  0.00     0.000 HD 
HETATM   20  H1  UNL     1     -12.210  15.263  68.351  1.00  0.00     0.000 HD 
ENDBRANCH   3   5
TORSDOF 1
ENDMDL
MODEL       32
REMARK 921   NORMALIZED FREE ENERGY PREDICTED BY IDOCK:   -5.60 KCAL/MOL
REMARK 922        TOTAL FREE ENERGY PREDICTED BY IDOCK:   -6.16 KCAL/MOL
REMARK 923 INTER-LIGAND FREE ENERGY PREDICTED BY IDOCK:   -6.05 KCAL/MOL
REMARK 924 INTRA-LIGAND FREE ENERGY PREDICTED BY IDOCK:   -0.11 KCAL/MOL
REMARK 927      BINDING AFFINITY PREDICTED BY RF-SCORE:    0.00 PKD
ROOT
HETATM    1  C   UNL     1      -8.831  17.010  68.023  1.00  0.00    -0.223 C  
HETATM    2  C   UNL     1      -9.787  15.977  67.422  1.00  0.00    -0.236 C  
HETATM    3  C   UNL     1      -9.893  16.196  65.901  1.00  0.00    -0.353 C  
HETATM    4  C   UNL     1     -11.126  16.047  68.161  1.00  0.00    -0.344 C  
ENDROOT
BRANCH   3   5
HETATM    5  N   UNL     1     -10.756  15.255  65.215  1.00  0.00    -0.385 NA 
HETATM    6  C   UNL     1     -11.828  15.666  64.461  1.00  0.00    -0.172 A  
HETATM    7  N   UNL     1     -12.417  14.665  63.860  1.00  0.00    -0.792 NA 
HETATM    8  C   UNL     1     -11.727  13.545  64.276  1.00  0.00    -0.416 A  
HETATM    9  C   UNL     1     -10.706  13.876  65.178  1.00  0.00    -0.362 A  
HETATM   10  C   UNL     1      -9.918  12.851  65.778  1.00  0.00    -0.261 A  
HETATM   11  C   UNL     1      -8.871  13.058  66.708  1.00  0.00    -0.144 A  
HETATM   12  C   UNL     1      -8.181  11.977  67.252  1.00  0.00    -0.173 A  
HETATM   13  C   UNL     1      -8.526  10.685  66.881  1.00  0.00    -0.127 A  
HETATM   14  C   UNL     1      -9.554  10.480  65.958  1.00  0.00    -0.242 A  
HETATM   15  C   UNL     1     -10.259  11.531  65.391  1.00  0.00    -0.264 A  
HETATM   16  N   UNL     1     -11.221  11.224  64.506  1.00  0.00    -0.186 NA 
HETATM   17  C   UNL     1     -11.947  12.198  63.919  1.00  0.00    -0.486 A  
HETATM   18  N   UNL     1     -12.910  11.816  62.992  1.00  0.00    -0.884 NA 
HETATM   19  H2  UNL     1     -12.734  12.336  62.132  1.00  0.00     0.000 HD 
HETATM   20  H1  UNL     1     -13.069  10.842  62.734  1.00  0.00     0.000 HD 
ENDBRANCH   3   5
TORSDOF 1
ENDMDL
MODEL       33
REMARK 921   NORMALIZED FREE ENERGY PREDICTED BY IDOCK:   -5.58 KCAL/MOL
REMARK 922        TOTAL FREE ENERGY PREDICTED BY IDOCK:   -6.15 KCAL/MOL
REMARK 923 INTER-LIGAND FREE ENERGY PREDICTED BY IDOCK:   -5.74 KCAL/MOL
REMARK 924 INTRA-LIGAND FREE ENERGY PREDICTED BY IDOCK:   -0.41 KCAL/MOL
REMARK 927      BINDING AFFINITY PREDICTED BY RF-SCORE:    0.00 PKD
ROOT
HETATM    1  C   UNL     1     -10.155  10.446  65.035  1.00  0.00    -0.379 C  
HETATM    2  C   UNL     1     -10.142  11.107  66.416  1.00  0.00    -0.269 C  
HETATM    3  C   UNL     1     -11.472  11.850  66.644  1.00  0.00    -0.314 C  
HETATM    4  C   UNL     1      -8.900  11.994  66.532  1.00  0.00    -0.172 C  
ENDROOT
BRANCH   3   5
HETATM    5  N   UNL     1     -11.586  12.498  67.936  1.00  0.00    -0.328 NA 
HETATM    6  C   UNL     1     -11.982  11.817  69.060  1.00  0.00    -0.280 A  
HETATM    7  N   UNL     1     -11.931  12.567  70.130  1.00  0.00    -0.343 NA 
HETATM    8  C   UNL     1     -11.527  13.806  69.678  1.00  0.00    -0.237 A  
HETATM    9  C   UNL     1     -11.354  13.814  68.287  1.00  0.00    -0.285 A  
HETATM   10  C   UNL     1     -11.003  15.020  67.614  1.00  0.00    -0.305 A  
HETATM   11  C   UNL     1     -10.813  15.156  66.217  1.00  0.00    -0.333 A  
HETATM   12  C   UNL     1     -10.495  16.393  65.662  1.00  0.00    -0.364 A  
HETATM   13  C   UNL     1     -10.367  17.503  66.485  1.00  0.00    -0.325 A  
HETATM   14  C   UNL     1     -10.547  17.369  67.863  1.00  0.00    -0.383 A  
HETATM   15  C   UNL     1     -10.858  16.153  68.453  1.00  0.00    -0.318 A  
HETATM   16  N   UNL     1     -11.000  16.130  69.788  1.00  0.00    -0.327 NA 
HETATM   17  C   UNL     1     -11.305  14.982  70.425  1.00  0.00    -0.270 A  
HETATM   18  N   UNL     1     -11.412  15.021  71.811  1.00  0.00    -0.513 NA 
HETATM   19  H2  UNL     1     -10.798  14.297  72.187  1.00  0.00     0.000 HD 
HETATM   20  H1  UNL     1     -11.251  15.870  72.351  1.00  0.00     0.000 HD 
ENDBRANCH   3   5
TORSDOF 1
ENDMDL
MODEL       34
REMARK 921   NORMALIZED FREE ENERGY PREDICTED BY IDOCK:   -5.58 KCAL/MOL
REMARK 922        TOTAL FREE ENERGY PREDICTED BY IDOCK:   -6.15 KCAL/MOL
REMARK 923 INTER-LIGAND FREE ENERGY PREDICTED BY IDOCK:   -5.85 KCAL/MOL
REMARK 924 INTRA-LIGAND FREE ENERGY PREDICTED BY IDOCK:   -0.30 KCAL/MOL
REMARK 927      BINDING AFFINITY PREDICTED BY RF-SCORE:    0.00 PKD
ROOT
HETATM    1  C   UNL     1     -10.425  12.631  63.931  1.00  0.00    -0.441 C  
HETATM    2  C   UNL     1     -11.064  13.416  65.079  1.00  0.00    -0.332 C  
HETATM    3  C   UNL     1     -10.442  12.972  66.417  1.00  0.00    -0.276 C  
HETATM    4  C   UNL     1     -12.584  13.253  65.009  1.00  0.00    -0.483 C  
ENDROOT
BRANCH   3   5
HETATM    5  N   UNL     1     -10.954  13.668  67.580  1.00  0.00    -0.263 NA 
HETATM    6  C   UNL     1     -11.899  13.110  68.406  1.00  0.00    -0.351 A  
HETATM    7  N   UNL     1     -12.154  13.868  69.440  1.00  0.00    -0.339 NA 
HETATM    8  C   UNL     1     -11.374  14.992  69.260  1.00  0.00    -0.296 A  
HETATM    9  C   UNL     1     -10.645  14.924  68.065  1.00  0.00    -0.248 A  
HETATM   10  C   UNL     1      -9.827  16.019  67.660  1.00  0.00    -0.235 A  
HETATM   11  C   UNL     1      -9.055  16.073  66.474  1.00  0.00    -0.319 A  
HETATM   12  C   UNL     1      -8.310  17.208  66.164  1.00  0.00    -0.258 A  
HETATM   13  C   UNL     1      -8.326  18.297  67.024  1.00  0.00    -0.256 A  
HETATM   14  C   UNL     1      -9.081  18.241  68.199  1.00  0.00    -0.310 A  
HETATM   15  C   UNL     1      -9.830  17.127  68.543  1.00  0.00    -0.297 A  
HETATM   16  N   UNL     1     -10.511  17.172  69.699  1.00  0.00    -0.154 NA 
HETATM   17  C   UNL     1     -11.263  16.124  70.093  1.00  0.00    -0.370 A  
HETATM   18  N   UNL     1     -11.923  16.225  71.313  1.00  0.00    -0.622 NA 
HETATM   19  H2  UNL     1     -11.667  15.408  71.870  1.00  0.00     0.000 HD 
HETATM   20  H1  UNL     1     -11.842  17.043  71.916  1.00  0.00     0.000 HD 
ENDBRANCH   3   5
TORSDOF 1
ENDMDL
MODEL       35
REMARK 921   NORMALIZED FREE ENERGY PREDICTED BY IDOCK:   -5.58 KCAL/MOL
REMARK 922        TOTAL FREE ENERGY PREDICTED BY IDOCK:   -6.14 KCAL/MOL
REMARK 923 INTER-LIGAND FREE ENERGY PREDICTED BY IDOCK:   -5.90 KCAL/MOL
REMARK 924 INTRA-LIGAND FREE ENERGY PREDICTED BY IDOCK:   -0.25 KCAL/MOL
REMARK 927      BINDING AFFINITY PREDICTED BY RF-SCORE:    0.00 PKD
ROOT
HETATM    1  C   UNL     1     -10.010  11.935  63.236  1.00  0.00    -0.409 C  
HETATM    2  C   UNL     1     -10.854  12.367  64.438  1.00  0.00    -0.375 C  
HETATM    3  C   UNL     1     -10.277  11.742  65.723  1.00  0.00    -0.239 C  
HETATM    4  C   UNL     1     -12.319  12.014  64.171  1.00  0.00    -0.452 C  
ENDROOT
BRANCH   3   5
HETATM    5  N   UNL     1     -10.983  12.103  66.937  1.00  0.00    -0.256 NA 
HETATM    6  C   UNL     1     -11.648  11.172  67.697  1.00  0.00    -0.183 A  
HETATM    7  N   UNL     1     -12.139  11.693  68.791  1.00  0.00    -0.433 NA 
HETATM    8  C   UNL     1     -11.819  13.034  68.721  1.00  0.00    -0.317 A  
HETATM    9  C   UNL     1     -11.138  13.338  67.534  1.00  0.00    -0.270 A  
HETATM   10  C   UNL     1     -10.777  14.685  67.239  1.00  0.00    -0.290 A  
HETATM   11  C   UNL     1     -10.100  15.117  66.073  1.00  0.00    -0.323 A  
HETATM   12  C   UNL     1      -9.819  16.467  65.875  1.00  0.00    -0.324 A  
HETATM   13  C   UNL     1     -10.210  17.397  66.828  1.00  0.00    -0.318 A  
HETATM   14  C   UNL     1     -10.871  16.971  67.983  1.00  0.00    -0.330 A  
HETATM   15  C   UNL     1     -11.162  15.636  68.217  1.00  0.00    -0.353 A  
HETATM   16  N   UNL     1     -11.791  15.331  69.363  1.00  0.00    -0.333 NA 
HETATM   17  C   UNL     1     -12.108  14.052  69.653  1.00  0.00    -0.355 A  
HETATM   18  N   UNL     1     -12.735  13.802  70.868  1.00  0.00    -0.336 NA 
HETATM   19  H2  UNL     1     -12.192  13.086  71.353  1.00  0.00     0.000 HD 
HETATM   20  H1  UNL     1     -12.943  14.538  71.542  1.00  0.00     0.000 HD 
ENDBRANCH   3   5
TORSDOF 1
ENDMDL
MODEL       36
REMARK 921   NORMALIZED FREE ENERGY PREDICTED BY IDOCK:   -5.57 KCAL/MOL
REMARK 922        TOTAL FREE ENERGY PREDICTED BY IDOCK:   -6.14 KCAL/MOL
REMARK 923 INTER-LIGAND FREE ENERGY PREDICTED BY IDOCK:   -5.95 KCAL/MOL
REMARK 924 INTRA-LIGAND FREE ENERGY PREDICTED BY IDOCK:   -0.19 KCAL/MOL
REMARK 927      BINDING AFFINITY PREDICTED BY RF-SCORE:    0.00 PKD
ROOT
HETATM    1  C   UNL     1      -9.391   7.517  69.305  1.00  0.00    -0.151 C  
HETATM    2  C   UNL     1     -10.165   8.425  70.265  1.00  0.00    -0.204 C  
HETATM    3  C   UNL     1     -11.010   9.429  69.457  1.00  0.00    -0.173 C  
HETATM    4  C   UNL     1      -9.179   9.075  71.239  1.00  0.00    -0.314 C  
ENDROOT
BRANCH   3   5
HETATM    5  N   UNL     1     -11.809  10.329  70.264  1.00  0.00    -0.280 NA 
HETATM    6  C   UNL     1     -12.544   9.888  71.336  1.00  0.00    -0.398 A  
HETATM    7  N   UNL     1     -13.117  10.874  71.976  1.00  0.00    -0.462 NA 
HETATM    8  C   UNL     1     -12.779  12.005  71.262  1.00  0.00    -0.279 A  
HETATM    9  C   UNL     1     -11.999  11.691  70.141  1.00  0.00    -0.359 A  
HETATM   10  C   UNL     1     -11.601  12.716  69.234  1.00  0.00    -0.376 A  
HETATM   11  C   UNL     1     -10.826  12.523  68.065  1.00  0.00    -0.252 A  
HETATM   12  C   UNL     1     -10.515  13.596  67.234  1.00  0.00    -0.260 A  
HETATM   13  C   UNL     1     -10.973  14.867  67.553  1.00  0.00    -0.302 A  
HETATM   14  C   UNL     1     -11.731  15.060  68.711  1.00  0.00    -0.360 A  
HETATM   15  C   UNL     1     -12.055  14.017  69.565  1.00  0.00    -0.347 A  
HETATM   16  N   UNL     1     -12.780  14.313  70.655  1.00  0.00    -0.345 NA 
HETATM   17  C   UNL     1     -13.132  13.345  71.527  1.00  0.00    -0.342 A  
HETATM   18  N   UNL     1     -13.860  13.721  72.650  1.00  0.00    -0.740 NA 
HETATM   19  H2  UNL     1     -13.367  13.367  73.470  1.00  0.00     0.000 HD 
HETATM   20  H1  UNL     1     -14.116  14.690  72.841  1.00  0.00     0.000 HD 
ENDBRANCH   3   5
TORSDOF 1
ENDMDL
MODEL       37
REMARK 921   NORMALIZED FREE ENERGY PREDICTED BY IDOCK:   -5.56 KCAL/MOL
REMARK 922        TOTAL FREE ENERGY PREDICTED BY IDOCK:   -6.13 KCAL/MOL
REMARK 923 INTER-LIGAND FREE ENERGY PREDICTED BY IDOCK:   -5.79 KCAL/MOL
REMARK 924 INTRA-LIGAND FREE ENERGY PREDICTED BY IDOCK:   -0.33 KCAL/MOL
REMARK 927      BINDING AFFINITY PREDICTED BY RF-SCORE:    0.00 PKD
ROOT
HETATM    1  C   UNL     1     -12.687  13.821  65.530  1.00  0.00    -0.530 C  
HETATM    2  C   UNL     1     -11.291  13.985  66.138  1.00  0.00    -0.322 C  
HETATM    3  C   UNL     1     -11.344  15.021  67.278  1.00  0.00    -0.332 C  
HETATM    4  C   UNL     1     -10.299  14.328  65.024  1.00  0.00    -0.448 C  
ENDROOT
BRANCH   3   5
HETATM    5  N   UNL     1     -10.079  15.243  67.949  1.00  0.00    -0.231 NA 
HETATM    6  C   UNL     1      -9.397  14.227  68.572  1.00  0.00    -0.200 A  
HETATM    7  N   UNL     1      -8.241  14.624  69.035  1.00  0.00    -0.140 NA 
HETATM    8  C   UNL     1      -8.184  15.971  68.742  1.00  0.00    -0.211 A  
HETATM    9  C   UNL     1      -9.354  16.407  68.105  1.00  0.00    -0.209 A  
HETATM   10  C   UNL     1      -9.522  17.785  67.777  1.00  0.00    -0.262 A  
HETATM   11  C   UNL     1     -10.658  18.346  67.147  1.00  0.00    -0.416 A  
HETATM   12  C   UNL     1     -10.727  19.715  66.896  1.00  0.00    -0.570 A  
HETATM   13  C   UNL     1      -9.672  20.535  67.271  1.00  0.00    -0.600 A  
HETATM   14  C   UNL     1      -8.547  19.981  67.886  1.00  0.00    -0.309 A  
HETATM   15  C   UNL     1      -8.441  18.623  68.146  1.00  0.00    -0.312 A  
HETATM   16  N   UNL     1      -7.312  18.192  68.732  1.00  0.00    -0.281 NA 
HETATM   17  C   UNL     1      -7.145  16.884  69.016  1.00  0.00    -0.232 A  
HETATM   18  N   UNL     1      -5.942  16.499  69.599  1.00  0.00    -0.189 NA 
HETATM   19  H2  UNL     1      -5.550  15.750  69.028  1.00  0.00     0.000 HD 
HETATM   20  H1  UNL     1      -5.191  17.159  69.797  1.00  0.00     0.000 HD 
ENDBRANCH   3   5
TORSDOF 1
ENDMDL
MODEL       38
REMARK 921   NORMALIZED FREE ENERGY PREDICTED BY IDOCK:   -5.53 KCAL/MOL
REMARK 922        TOTAL FREE ENERGY PREDICTED BY IDOCK:   -6.09 KCAL/MOL
REMARK 923 INTER-LIGAND FREE ENERGY PREDICTED BY IDOCK:   -5.67 KCAL/MOL
REMARK 924 INTRA-LIGAND FREE ENERGY PREDICTED BY IDOCK:   -0.42 KCAL/MOL
REMARK 927      BINDING AFFINITY PREDICTED BY RF-SCORE:    0.00 PKD
ROOT
HETATM    1  C   UNL     1     -10.338   9.676  70.071  1.00  0.00    -0.298 C  
HETATM    2  C   UNL     1     -11.010  10.311  68.851  1.00  0.00    -0.279 C  
HETATM    3  C   UNL     1      -9.943  10.984  67.967  1.00  0.00    -0.173 C  
HETATM    4  C   UNL     1     -12.117  11.255  69.327  1.00  0.00    -0.372 C  
ENDROOT
BRANCH   3   5
HETATM    5  N   UNL     1     -10.462  11.601  66.762  1.00  0.00    -0.222 NA 
HETATM    6  C   UNL     1     -10.863  10.859  65.678  1.00  0.00    -0.042 A  
HETATM    7  N   UNL     1     -11.379  11.606  64.737  1.00  0.00    -0.249 NA 
HETATM    8  C   UNL     1     -11.268  12.898  65.208  1.00  0.00    -0.288 A  
HETATM    9  C   UNL     1     -10.642  12.936  66.461  1.00  0.00    -0.259 A  
HETATM   10  C   UNL     1     -10.371  14.186  67.091  1.00  0.00    -0.265 A  
HETATM   11  C   UNL     1      -9.737  14.354  68.345  1.00  0.00    -0.226 A  
HETATM   12  C   UNL     1      -9.499  15.628  68.856  1.00  0.00    -0.228 A  
HETATM   13  C   UNL     1      -9.886  16.743  68.126  1.00  0.00    -0.264 A  
HETATM   14  C   UNL     1     -10.519  16.579  66.892  1.00  0.00    -0.282 A  
HETATM   15  C   UNL     1     -10.778  15.327  66.355  1.00  0.00    -0.318 A  
HETATM   16  N   UNL     1     -11.401  15.280  65.167  1.00  0.00    -0.346 NA 
HETATM   17  C   UNL     1     -11.680  14.095  64.586  1.00  0.00    -0.417 A  
HETATM   18  N   UNL     1     -12.351  14.115  63.368  1.00  0.00    -1.144 NA 
HETATM   19  H2  UNL     1     -13.173  13.518  63.460  1.00  0.00     0.000 HD 
HETATM   20  H1  UNL     1     -12.649  14.980  62.918  1.00  0.00     0.000 HD 
ENDBRANCH   3   5
TORSDOF 1
ENDMDL
MODEL       39
REMARK 921   NORMALIZED FREE ENERGY PREDICTED BY IDOCK:   -5.52 KCAL/MOL
REMARK 922        TOTAL FREE ENERGY PREDICTED BY IDOCK:   -6.08 KCAL/MOL
REMARK 923 INTER-LIGAND FREE ENERGY PREDICTED BY IDOCK:   -5.70 KCAL/MOL
REMARK 924 INTRA-LIGAND FREE ENERGY PREDICTED BY IDOCK:   -0.37 KCAL/MOL
REMARK 927      BINDING AFFINITY PREDICTED BY RF-SCORE:    0.00 PKD
ROOT
HETATM    1  C   UNL     1      -9.361   7.172  71.301  1.00  0.00    -0.155 C  
HETATM    2  C   UNL     1      -9.712   8.652  71.128  1.00  0.00    -0.287 C  
HETATM    3  C   UNL     1     -11.102   8.779  70.476  1.00  0.00    -0.246 C  
HETATM    4  C   UNL     1      -8.589   9.344  70.351  1.00  0.00    -0.266 C  
ENDROOT
BRANCH   3   5
HETATM    5  N   UNL     1     -11.555  10.143  70.284  1.00  0.00    -0.284 NA 
HETATM    6  C   UNL     1     -12.203  10.841  71.273  1.00  0.00    -0.321 A  
HETATM    7  N   UNL     1     -12.443  12.078  70.922  1.00  0.00    -0.347 NA 
HETATM    8  C   UNL     1     -11.972  12.179  69.630  1.00  0.00    -0.284 A  
HETATM    9  C   UNL     1     -11.455  10.959  69.174  1.00  0.00    -0.303 A  
HETATM   10  C   UNL     1     -10.979  10.835  67.837  1.00  0.00    -0.344 A  
HETATM   11  C   UNL     1     -10.446   9.657  67.260  1.00  0.00    -0.323 A  
HETATM   12  C   UNL     1     -10.032   9.642  65.930  1.00  0.00    -0.351 A  
HETATM   13  C   UNL     1     -10.146  10.793  65.163  1.00  0.00    -0.363 A  
HETATM   14  C   UNL     1     -10.663  11.959  65.733  1.00  0.00    -0.327 A  
HETATM   15  C   UNL     1     -11.080  12.012  67.055  1.00  0.00    -0.298 A  
HETATM   16  N   UNL     1     -11.552  13.185  67.507  1.00  0.00    -0.331 NA 
HETATM   17  C   UNL     1     -11.978  13.306  68.781  1.00  0.00    -0.300 A  
HETATM   18  N   UNL     1     -12.431  14.554  69.195  1.00  0.00    -0.575 NA 
HETATM   19  H2  UNL     1     -11.912  14.806  70.037  1.00  0.00     0.000 HD 
HETATM   20  H1  UNL     1     -12.434  15.369  68.582  1.00  0.00     0.000 HD 
ENDBRANCH   3   5
TORSDOF 1
ENDMDL
MODEL       40
REMARK 921   NORMALIZED FREE ENERGY PREDICTED BY IDOCK:   -5.50 KCAL/MOL
REMARK 922        TOTAL FREE ENERGY PREDICTED BY IDOCK:   -6.06 KCAL/MOL
REMARK 923 INTER-LIGAND FREE ENERGY PREDICTED BY IDOCK:   -5.81 KCAL/MOL
REMARK 924 INTRA-LIGAND FREE ENERGY PREDICTED BY IDOCK:   -0.26 KCAL/MOL
REMARK 927      BINDING AFFINITY PREDICTED BY RF-SCORE:    0.00 PKD
ROOT
HETATM    1  C   UNL     1     -12.483   9.217  71.958  1.00  0.00    -0.452 C  
HETATM    2  C   UNL     1     -11.601   9.972  70.960  1.00  0.00    -0.476 C  
HETATM    3  C   UNL     1     -12.464  10.468  69.783  1.00  0.00    -0.064 C  
HETATM    4  C   UNL     1     -10.434   9.073  70.546  1.00  0.00    -0.271 C  
ENDROOT
BRANCH   3   5
HETATM    5  N   UNL     1     -11.738  11.223  68.781  1.00  0.00    -0.332 NA 
HETATM    6  C   UNL     1     -11.247  10.636  67.641  1.00  0.00    -0.290 A  
HETATM    7  N   UNL     1     -10.705  11.511  66.834  1.00  0.00    -0.250 NA 
HETATM    8  C   UNL     1     -10.807  12.717  67.496  1.00  0.00    -0.239 A  
HETATM    9  C   UNL     1     -11.405  12.563  68.755  1.00  0.00    -0.293 A  
HETATM   10  C   UNL     1     -11.541  13.682  69.627  1.00  0.00    -0.342 A  
HETATM   11  C   UNL     1     -12.115  13.651  70.921  1.00  0.00    -0.330 A  
HETATM   12  C   UNL     1     -12.174  14.805  71.699  1.00  0.00    -0.413 A  
HETATM   13  C   UNL     1     -11.664  15.996  71.202  1.00  0.00    -0.487 A  
HETATM   14  C   UNL     1     -11.105  16.030  69.922  1.00  0.00    -0.352 A  
HETATM   15  C   UNL     1     -11.034  14.903  69.116  1.00  0.00    -0.260 A  
HETATM   16  N   UNL     1     -10.488  15.047  67.898  1.00  0.00    -0.245 NA 
HETATM   17  C   UNL     1     -10.384  13.991  67.065  1.00  0.00    -0.267 A  
HETATM   18  N   UNL     1      -9.832  14.213  65.808  1.00  0.00    -0.446 NA 
HETATM   19  H2  UNL     1     -10.492  13.858  65.115  1.00  0.00     0.000 HD 
HETATM   20  H1  UNL     1      -9.526  15.134  65.496  1.00  0.00     0.000 HD 
ENDBRANCH   3   5
TORSDOF 1
ENDMDL
MODEL       41
REMARK 921   NORMALIZED FREE ENERGY PREDICTED BY IDOCK:   -5.46 KCAL/MOL
REMARK 922        TOTAL FREE ENERGY PREDICTED BY IDOCK:   -6.02 KCAL/MOL
REMARK 923 INTER-LIGAND FREE ENERGY PREDICTED BY IDOCK:   -5.64 KCAL/MOL
REMARK 924 INTRA-LIGAND FREE ENERGY PREDICTED BY IDOCK:   -0.38 KCAL/MOL
REMARK 927      BINDING AFFINITY PREDICTED BY RF-SCORE:    0.00 PKD
ROOT
HETATM    1  C   UNL     1      -9.745   6.044  70.794  1.00  0.00    -0.208 C  
HETATM    2  C   UNL     1     -10.436   7.218  71.493  1.00  0.00    -0.220 C  
HETATM    3  C   UNL     1     -11.450   7.866  70.532  1.00  0.00    -0.195 C  
HETATM    4  C   UNL     1      -9.370   8.180  72.023  1.00  0.00    -0.266 C  
ENDROOT
BRANCH   3   5
HETATM    5  N   UNL     1     -12.188   8.979  71.095  1.00  0.00    -0.295 NA 
HETATM    6  C   UNL     1     -13.061   8.818  72.143  1.00  0.00    -0.406 A  
HETATM    7  N   UNL     1     -13.551   9.959  72.552  1.00  0.00    -0.208 NA 
HETATM    8  C   UNL     1     -13.009  10.903  71.704  1.00  0.00    -0.464 A  
HETATM    9  C   UNL     1     -12.186  10.312  70.736  1.00  0.00    -0.350 A  
HETATM   10  C   UNL     1     -11.583  11.111  69.722  1.00  0.00    -0.409 A  
HETATM   11  C   UNL     1     -10.745  10.630  68.686  1.00  0.00    -0.239 A  
HETATM   12  C   UNL     1     -10.228  11.501  67.730  1.00  0.00    -0.200 A  
HETATM   13  C   UNL     1     -10.539  12.852  67.791  1.00  0.00    -0.231 A  
HETATM   14  C   UNL     1     -11.359  13.329  68.817  1.00  0.00    -0.331 A  
HETATM   15  C   UNL     1     -11.887  12.494  69.789  1.00  0.00    -0.310 A  
HETATM   16  N   UNL     1     -12.654  13.055  70.737  1.00  0.00    -0.286 NA 
HETATM   17  C   UNL     1     -13.203  12.300  71.711  1.00  0.00    -0.326 A  
HETATM   18  N   UNL     1     -13.966  12.947  72.677  1.00  0.00    -0.699 NA 
HETATM   19  H2  UNL     1     -13.593  12.685  73.590  1.00  0.00     0.000 HD 
HETATM   20  H1  UNL     1     -14.106  13.957  72.682  1.00  0.00     0.000 HD 
ENDBRANCH   3   5
TORSDOF 1
ENDMDL
MODEL       42
REMARK 921   NORMALIZED FREE ENERGY PREDICTED BY IDOCK:   -5.46 KCAL/MOL
REMARK 922        TOTAL FREE ENERGY PREDICTED BY IDOCK:   -6.02 KCAL/MOL
REMARK 923 INTER-LIGAND FREE ENERGY PREDICTED BY IDOCK:   -5.87 KCAL/MOL
REMARK 924 INTRA-LIGAND FREE ENERGY PREDICTED BY IDOCK:   -0.15 KCAL/MOL
REMARK 927      BINDING AFFINITY PREDICTED BY RF-SCORE:    0.00 PKD
ROOT
HETATM    1  C   UNL     1     -10.795  15.505  64.932  1.00  0.00    -0.447 C  
HETATM    2  C   UNL     1     -10.574  14.595  66.143  1.00  0.00    -0.314 C  
HETATM    3  C   UNL     1     -11.901  14.422  66.907  1.00  0.00    -0.410 C  
HETATM    4  C   UNL     1      -9.431  15.161  66.990  1.00  0.00    -0.237 C  
ENDROOT
BRANCH   3   5
HETATM    5  N   UNL     1     -11.820  13.555  68.066  1.00  0.00    -0.360 NA 
HETATM    6  C   UNL     1     -12.142  13.993  69.327  1.00  0.00    -0.338 A  
HETATM    7  N   UNL     1     -12.085  13.030  70.209  1.00  0.00    -0.350 NA 
HETATM    8  C   UNL     1     -11.664  11.923  69.501  1.00  0.00    -0.345 A  
HETATM    9  C   UNL     1     -11.433  12.233  68.154  1.00  0.00    -0.316 A  
HETATM   10  C   UNL     1     -10.927  11.240  67.265  1.00  0.00    -0.342 A  
HETATM   11  C   UNL     1     -10.644  11.434  65.892  1.00  0.00    -0.317 A  
HETATM   12  C   UNL     1     -10.126  10.396  65.121  1.00  0.00    -0.379 A  
HETATM   13  C   UNL     1      -9.884   9.160  65.705  1.00  0.00    -0.248 A  
HETATM   14  C   UNL     1     -10.171   8.965  67.058  1.00  0.00    -0.345 A  
HETATM   15  C   UNL     1     -10.692   9.973  67.856  1.00  0.00    -0.272 A  
HETATM   16  N   UNL     1     -10.941   9.678  69.141  1.00  0.00    -0.192 NA 
HETATM   17  C   UNL     1     -11.445  10.612  69.974  1.00  0.00    -0.325 A  
HETATM   18  N   UNL     1     -11.706  10.235  71.286  1.00  0.00    -0.337 NA 
HETATM   19  H2  UNL     1     -12.677  10.476  71.489  1.00  0.00     0.000 HD 
HETATM   20  H1  UNL     1     -11.548   9.287  71.628  1.00  0.00     0.000 HD 
ENDBRANCH   3   5
TORSDOF 1
ENDMDL
MODEL       43
REMARK 921   NORMALIZED FREE ENERGY PREDICTED BY IDOCK:   -5.44 KCAL/MOL
REMARK 922        TOTAL FREE ENERGY PREDICTED BY IDOCK:   -6.00 KCAL/MOL
REMARK 923 INTER-LIGAND FREE ENERGY PREDICTED BY IDOCK:   -5.71 KCAL/MOL
REMARK 924 INTRA-LIGAND FREE ENERGY PREDICTED BY IDOCK:   -0.29 KCAL/MOL
REMARK 927      BINDING AFFINITY PREDICTED BY RF-SCORE:    0.00 PKD
ROOT
HETATM    1  C   UNL     1      -9.809  10.734  65.786  1.00  0.00    -0.292 C  
HETATM    2  C   UNL     1      -9.862  11.708  66.966  1.00  0.00    -0.211 C  
HETATM    3  C   UNL     1     -10.926  12.789  66.695  1.00  0.00    -0.270 C  
HETATM    4  C   UNL     1      -8.457  12.260  67.220  1.00  0.00    -0.181 C  
ENDROOT
BRANCH   3   5
HETATM    5  N   UNL     1     -11.084  13.759  67.760  1.00  0.00    -0.262 NA 
HETATM    6  C   UNL     1     -10.720  15.074  67.608  1.00  0.00    -0.274 A  
HETATM    7  N   UNL     1     -11.029  15.793  68.656  1.00  0.00    -0.288 NA 
HETATM    8  C   UNL     1     -11.578  14.898  69.551  1.00  0.00    -0.303 A  
HETATM    9  C   UNL     1     -11.577  13.593  69.039  1.00  0.00    -0.312 A  
HETATM   10  C   UNL     1     -12.042  12.508  69.838  1.00  0.00    -0.322 A  
HETATM   11  C   UNL     1     -12.079  11.151  69.439  1.00  0.00    -0.396 A  
HETATM   12  C   UNL     1     -12.531  10.165  70.313  1.00  0.00    -0.174 A  
HETATM   13  C   UNL     1     -12.946  10.518  71.590  1.00  0.00    -0.581 A  
HETATM   14  C   UNL     1     -12.918  11.859  71.982  1.00  0.00    -0.370 A  
HETATM   15  C   UNL     1     -12.480  12.867  71.138  1.00  0.00    -0.249 A  
HETATM   16  N   UNL     1     -12.503  14.123  71.610  1.00  0.00    -0.332 NA 
HETATM   17  C   UNL     1     -12.087  15.152  70.842  1.00  0.00    -0.334 A  
HETATM   18  N   UNL     1     -12.161  16.431  71.381  1.00  0.00    -0.561 NA 
HETATM   19  H2  UNL     1     -12.684  17.012  70.725  1.00  0.00     0.000 HD 
HETATM   20  H1  UNL     1     -12.529  16.615  72.314  1.00  0.00     0.000 HD 
ENDBRANCH   3   5
TORSDOF 1
ENDMDL
MODEL       44
REMARK 921   NORMALIZED FREE ENERGY PREDICTED BY IDOCK:   -5.44 KCAL/MOL
REMARK 922        TOTAL FREE ENERGY PREDICTED BY IDOCK:   -6.00 KCAL/MOL
REMARK 923 INTER-LIGAND FREE ENERGY PREDICTED BY IDOCK:   -5.57 KCAL/MOL
REMARK 924 INTRA-LIGAND FREE ENERGY PREDICTED BY IDOCK:   -0.42 KCAL/MOL
REMARK 927      BINDING AFFINITY PREDICTED BY RF-SCORE:    0.00 PKD
ROOT
HETATM    1  C   UNL     1     -11.893  12.623  67.256  1.00  0.00    -0.395 C  
HETATM    2  C   UNL     1     -11.854  14.142  67.067  1.00  0.00    -0.458 C  
HETATM    3  C   UNL     1     -10.613  14.526  66.239  1.00  0.00    -0.304 C  
HETATM    4  C   UNL     1     -11.928  14.817  68.438  1.00  0.00    -0.270 C  
ENDROOT
BRANCH   3   5
HETATM    5  N   UNL     1     -10.482  15.945  65.973  1.00  0.00    -0.331 NA 
HETATM    6  C   UNL     1     -11.218  16.574  64.999  1.00  0.00    -0.087 A  
HETATM    7  N   UNL     1     -11.012  17.865  64.987  1.00  0.00    -0.649 NA 
HETATM    8  C   UNL     1     -10.065  18.084  65.966  1.00  0.00    -0.266 A  
HETATM    9  C   UNL     1      -9.666  16.885  66.571  1.00  0.00    -0.281 A  
HETATM   10  C   UNL     1      -8.644  16.887  67.565  1.00  0.00    -0.211 A  
HETATM   11  C   UNL     1      -8.149  15.744  68.237  1.00  0.00    -0.142 A  
HETATM   12  C   UNL     1      -7.126  15.860  69.176  1.00  0.00    -0.185 A  
HETATM   13  C   UNL     1      -6.585  17.107  69.451  1.00  0.00    -0.220 A  
HETATM   14  C   UNL     1      -7.077  18.237  68.794  1.00  0.00    -0.291 A  
HETATM   15  C   UNL     1      -8.098  18.162  67.858  1.00  0.00    -0.247 A  
HETATM   16  N   UNL     1      -8.505  19.309  67.292  1.00  0.00    -0.282 NA 
HETATM   17  C   UNL     1      -9.492  19.307  66.372  1.00  0.00    -0.365 A  
HETATM   18  N   UNL     1      -9.884  20.532  65.844  1.00  0.00    -0.591 NA 
HETATM   19  H2  UNL     1     -10.894  20.610  65.966  1.00  0.00     0.000 HD 
HETATM   20  H1  UNL     1      -9.470  21.416  66.137  1.00  0.00     0.000 HD 
ENDBRANCH   3   5
TORSDOF 1
ENDMDL
MODEL       45
REMARK 921   NORMALIZED FREE ENERGY PREDICTED BY IDOCK:   -5.40 KCAL/MOL
REMARK 922        TOTAL FREE ENERGY PREDICTED BY IDOCK:   -5.96 KCAL/MOL
REMARK 923 INTER-LIGAND FREE ENERGY PREDICTED BY IDOCK:   -5.74 KCAL/MOL
REMARK 924 INTRA-LIGAND FREE ENERGY PREDICTED BY IDOCK:   -0.22 KCAL/MOL
REMARK 927      BINDING AFFINITY PREDICTED BY RF-SCORE:    0.00 PKD
ROOT
HETATM    1  C   UNL     1     -11.124  14.561  67.273  1.00  0.00    -0.317 C  
HETATM    2  C   UNL     1     -11.942  13.586  68.124  1.00  0.00    -0.376 C  
HETATM    3  C   UNL     1     -11.339  13.507  69.540  1.00  0.00    -0.202 C  
HETATM    4  C   UNL     1     -12.024  12.240  67.400  1.00  0.00    -0.204 C  
ENDROOT
BRANCH   3   5
HETATM    5  N   UNL     1     -12.049  12.628  70.448  1.00  0.00    -0.352 NA 
HETATM    6  C   UNL     1     -13.062  13.081  71.258  1.00  0.00    -0.179 A  
HETATM    7  N   UNL     1     -13.623  12.110  71.930  1.00  0.00    -0.210 NA 
HETATM    8  C   UNL     1     -12.917  10.979  71.578  1.00  0.00    -0.448 A  
HETATM    9  C   UNL     1     -11.878  11.279  70.686  1.00  0.00    -0.267 A  
HETATM   10  C   UNL     1     -10.986  10.255  70.252  1.00  0.00    -0.375 A  
HETATM   11  C   UNL     1      -9.897  10.435  69.366  1.00  0.00    -0.235 A  
HETATM   12  C   UNL     1      -9.072   9.365  69.028  1.00  0.00    -0.142 A  
HETATM   13  C   UNL     1      -9.319   8.110  69.568  1.00  0.00    -0.155 A  
HETATM   14  C   UNL     1     -10.398   7.929  70.437  1.00  0.00    -0.212 A  
HETATM   15  C   UNL     1     -11.244   8.969  70.791  1.00  0.00    -0.275 A  
HETATM   16  N   UNL     1     -12.258   8.686  71.624  1.00  0.00    -0.315 NA 
HETATM   17  C   UNL     1     -13.116   9.652  72.012  1.00  0.00    -0.445 A  
HETATM   18  N   UNL     1     -14.160   9.287  72.855  1.00  0.00    -1.031 NA 
HETATM   19  H2  UNL     1     -15.029   9.603  72.423  1.00  0.00     0.000 HD 
HETATM   20  H1  UNL     1     -14.305   8.328  73.169  1.00  0.00     0.000 HD 
ENDBRANCH   3   5
TORSDOF 1
ENDMDL
MODEL       46
REMARK 921   NORMALIZED FREE ENERGY PREDICTED BY IDOCK:   -5.39 KCAL/MOL
REMARK 922        TOTAL FREE ENERGY PREDICTED BY IDOCK:   -5.94 KCAL/MOL
REMARK 923 INTER-LIGAND FREE ENERGY PREDICTED BY IDOCK:   -5.65 KCAL/MOL
REMARK 924 INTRA-LIGAND FREE ENERGY PREDICTED BY IDOCK:   -0.30 KCAL/MOL
REMARK 927      BINDING AFFINITY PREDICTED BY RF-SCORE:    0.00 PKD
ROOT
HETATM    1  C   UNL     1      -8.069   6.336  67.997  1.00  0.00    -0.115 C  
HETATM    2  C   UNL     1      -9.413   6.674  68.647  1.00  0.00    -0.128 C  
HETATM    3  C   UNL     1      -9.190   7.058  70.123  1.00  0.00    -0.152 C  
HETATM    4  C   UNL     1     -10.374   5.500  68.443  1.00  0.00    -0.243 C  
ENDROOT
BRANCH   3   5
HETATM    5  N   UNL     1     -10.396   7.424  70.839  1.00  0.00    -0.201 NA 
HETATM    6  C   UNL     1     -11.042   6.546  71.674  1.00  0.00    -0.259 A  
HETATM    7  N   UNL     1     -12.053   7.106  72.285  1.00  0.00    -0.229 NA 
HETATM    8  C   UNL     1     -12.098   8.394  71.793  1.00  0.00    -0.328 A  
HETATM    9  C   UNL     1     -11.099   8.612  70.834  1.00  0.00    -0.264 A  
HETATM   10  C   UNL     1     -11.018   9.862  70.154  1.00  0.00    -0.356 A  
HETATM   11  C   UNL     1     -10.065  10.197  69.162  1.00  0.00    -0.226 A  
HETATM   12  C   UNL     1     -10.094  11.444  68.542  1.00  0.00    -0.211 A  
HETATM   13  C   UNL     1     -11.068  12.366  68.899  1.00  0.00    -0.307 A  
HETATM   14  C   UNL     1     -12.004  12.040  69.884  1.00  0.00    -0.391 A  
HETATM   15  C   UNL     1     -12.003  10.811  70.526  1.00  0.00    -0.361 A  
HETATM   16  N   UNL     1     -12.940  10.603  71.465  1.00  0.00    -0.437 NA 
HETATM   17  C   UNL     1     -12.997   9.428  72.126  1.00  0.00    -0.421 A  
HETATM   18  N   UNL     1     -13.975   9.286  73.105  1.00  0.00    -1.020 NA 
HETATM   19  H2  UNL     1     -13.509   8.995  73.965  1.00  0.00     0.000 HD 
HETATM   20  H1  UNL     1     -14.625  10.033  73.346  1.00  0.00     0.000 HD 
ENDBRANCH   3   5
TORSDOF 1
ENDMDL
MODEL       47
REMARK 921   NORMALIZED FREE ENERGY PREDICTED BY IDOCK:   -5.39 KCAL/MOL
REMARK 922        TOTAL FREE ENERGY PREDICTED BY IDOCK:   -5.94 KCAL/MOL
REMARK 923 INTER-LIGAND FREE ENERGY PREDICTED BY IDOCK:   -5.63 KCAL/MOL
REMARK 924 INTRA-LIGAND FREE ENERGY PREDICTED BY IDOCK:   -0.31 KCAL/MOL
REMARK 927      BINDING AFFINITY PREDICTED BY RF-SCORE:    0.00 PKD
ROOT
HETATM    1  C   UNL     1     -10.971  10.389  69.519  1.00  0.00    -0.307 C  
HETATM    2  C   UNL     1     -11.222  11.813  69.015  1.00  0.00    -0.324 C  
HETATM    3  C   UNL     1      -9.895  12.429  68.529  1.00  0.00    -0.151 C  
HETATM    4  C   UNL     1     -11.920  12.615  70.116  1.00  0.00    -0.375 C  
ENDROOT
BRANCH   3   5
HETATM    5  N   UNL     1     -10.013  13.774  68.004  1.00  0.00    -0.239 NA 
HETATM    6  C   UNL     1      -9.616  14.875  68.723  1.00  0.00    -0.214 A  
HETATM    7  N   UNL     1      -9.727  15.978  68.031  1.00  0.00    -0.216 NA 
HETATM    8  C   UNL     1     -10.263  15.587  66.821  1.00  0.00    -0.280 A  
HETATM    9  C   UNL     1     -10.509  14.208  66.790  1.00  0.00    -0.277 A  
HETATM   10  C   UNL     1     -11.126  13.614  65.651  1.00  0.00    -0.300 A  
HETATM   11  C   UNL     1     -11.435  12.240  65.507  1.00  0.00    -0.408 A  
HETATM   12  C   UNL     1     -12.063  11.771  64.355  1.00  0.00    -0.199 A  
HETATM   13  C   UNL     1     -12.392  12.660  63.341  1.00  0.00    -0.553 A  
HETATM   14  C   UNL     1     -12.080  14.014  63.479  1.00  0.00    -0.015 A  
HETATM   15  C   UNL     1     -11.450  14.517  64.608  1.00  0.00    -0.387 A  
HETATM   16  N   UNL     1     -11.186  15.833  64.635  1.00  0.00    -0.423 NA 
HETATM   17  C   UNL     1     -10.578  16.388  65.703  1.00  0.00    -0.323 A  
HETATM   18  N   UNL     1     -10.309  17.751  65.657  1.00  0.00    -0.635 NA 
HETATM   19  H2  UNL     1      -9.316  17.876  65.854  1.00  0.00     0.000 HD 
HETATM   20  H1  UNL     1     -10.537  18.330  64.850  1.00  0.00     0.000 HD 
ENDBRANCH   3   5
TORSDOF 1
ENDMDL
MODEL       48
REMARK 921   NORMALIZED FREE ENERGY PREDICTED BY IDOCK:   -5.38 KCAL/MOL
REMARK 922        TOTAL FREE ENERGY PREDICTED BY IDOCK:   -5.93 KCAL/MOL
REMARK 923 INTER-LIGAND FREE ENERGY PREDICTED BY IDOCK:   -5.66 KCAL/MOL
REMARK 924 INTRA-LIGAND FREE ENERGY PREDICTED BY IDOCK:   -0.27 KCAL/MOL
REMARK 927      BINDING AFFINITY PREDICTED BY RF-SCORE:    0.00 PKD
ROOT
HETATM    1  C   UNL     1     -12.188  14.405  64.537  1.00  0.00    -0.483 C  
HETATM    2  C   UNL     1     -12.043  12.935  64.941  1.00  0.00    -0.479 C  
HETATM    3  C   UNL     1     -10.586  12.657  65.358  1.00  0.00    -0.282 C  
HETATM    4  C   UNL     1     -12.547  12.052  63.798  1.00  0.00    -0.567 C  
ENDROOT
BRANCH   3   5
HETATM    5  N   UNL     1     -10.332  11.297  65.788  1.00  0.00    -0.251 NA 
HETATM    6  C   UNL     1      -9.810  10.350  64.940  1.00  0.00    -0.334 A  
HETATM    7  N   UNL     1      -9.578   9.219  65.553  1.00  0.00    -0.260 NA 
HETATM    8  C   UNL     1     -10.009   9.420  66.848  1.00  0.00    -0.229 A  
HETATM    9  C   UNL     1     -10.543  10.705  67.017  1.00  0.00    -0.262 A  
HETATM   10  C   UNL     1     -11.106  11.089  68.269  1.00  0.00    -0.316 A  
HETATM   11  C   UNL     1     -11.684  12.348  68.559  1.00  0.00    -0.373 A  
HETATM   12  C   UNL     1     -12.229  12.608  69.814  1.00  0.00    -0.209 A  
HETATM   13  C   UNL     1     -12.209  11.620  70.789  1.00  0.00    -0.443 A  
HETATM   14  C   UNL     1     -11.632  10.380  70.507  1.00  0.00    -0.433 A  
HETATM   15  C   UNL     1     -11.074  10.087  69.272  1.00  0.00    -0.206 A  
HETATM   16  N   UNL     1     -10.536   8.868  69.108  1.00  0.00    -0.220 NA 
HETATM   17  C   UNL     1      -9.980   8.517  67.931  1.00  0.00    -0.181 A  
HETATM   18  N   UNL     1      -9.417   7.249  67.835  1.00  0.00    -0.135 NA 
HETATM   19  H2  UNL     1      -8.458   7.362  67.504  1.00  0.00     0.000 HD 
HETATM   20  H1  UNL     1      -9.396   6.596  68.618  1.00  0.00     0.000 HD 
ENDBRANCH   3   5
TORSDOF 1
ENDMDL
MODEL       49
REMARK 921   NORMALIZED FREE ENERGY PREDICTED BY IDOCK:   -5.35 KCAL/MOL
REMARK 922        TOTAL FREE ENERGY PREDICTED BY IDOCK:   -5.91 KCAL/MOL
REMARK 923 INTER-LIGAND FREE ENERGY PREDICTED BY IDOCK:   -5.50 KCAL/MOL
REMARK 924 INTRA-LIGAND FREE ENERGY PREDICTED BY IDOCK:   -0.40 KCAL/MOL
REMARK 927      BINDING AFFINITY PREDICTED BY RF-SCORE:    0.00 PKD
ROOT
HETATM    1  C   UNL     1      -8.537  10.521  66.766  1.00  0.00    -0.126 C  
HETATM    2  C   UNL     1      -9.782  10.182  67.590  1.00  0.00    -0.187 C  
HETATM    3  C   UNL     1      -9.594  10.678  69.036  1.00  0.00    -0.195 C  
HETATM    4  C   UNL     1     -10.064   8.683  67.472  1.00  0.00    -0.277 C  
ENDROOT
BRANCH   3   5
HETATM    5  N   UNL     1     -10.725  10.433  69.909  1.00  0.00    -0.281 NA 
HETATM    6  C   UNL     1     -11.912  11.110  69.770  1.00  0.00    -0.357 A  
HETATM    7  N   UNL     1     -12.824  10.674  70.599  1.00  0.00    -0.348 NA 
HETATM    8  C   UNL     1     -12.192   9.700  71.344  1.00  0.00    -0.385 A  
HETATM    9  C   UNL     1     -10.848   9.561  70.972  1.00  0.00    -0.353 A  
HETATM   10  C   UNL     1     -10.001   8.651  71.669  1.00  0.00    -0.353 A  
HETATM   11  C   UNL     1      -8.629   8.431  71.395  1.00  0.00    -0.207 A  
HETATM   12  C   UNL     1      -7.888   7.533  72.160  1.00  0.00    -0.103 A  
HETATM   13  C   UNL     1      -8.500   6.849  73.201  1.00  0.00    -0.133 A  
HETATM   14  C   UNL     1      -9.855   7.060  73.467  1.00  0.00    -0.296 A  
HETATM   15  C   UNL     1     -10.626   7.941  72.725  1.00  0.00    -0.353 A  
HETATM   16  N   UNL     1     -11.921   8.061  73.057  1.00  0.00    -0.163 NA 
HETATM   17  C   UNL     1     -12.727   8.904  72.378  1.00  0.00    -0.368 A  
HETATM   18  N   UNL     1     -14.064   8.962  72.754  1.00  0.00    -1.021 NA 
HETATM   19  H2  UNL     1     -14.627   8.799  71.919  1.00  0.00     0.000 HD 
HETATM   20  H1  UNL     1     -14.451   8.386  73.502  1.00  0.00     0.000 HD 
ENDBRANCH   3   5
TORSDOF 1
ENDMDL
MODEL       50
REMARK 921   NORMALIZED FREE ENERGY PREDICTED BY IDOCK:   -5.35 KCAL/MOL
REMARK 922        TOTAL FREE ENERGY PREDICTED BY IDOCK:   -5.90 KCAL/MOL
REMARK 923 INTER-LIGAND FREE ENERGY PREDICTED BY IDOCK:   -5.48 KCAL/MOL
REMARK 924 INTRA-LIGAND FREE ENERGY PREDICTED BY IDOCK:   -0.42 KCAL/MOL
REMARK 927      BINDING AFFINITY PREDICTED BY RF-SCORE:    0.00 PKD
ROOT
HETATM    1  C   UNL     1      -9.467  19.638  66.345  1.00  0.00    -0.479 C  
HETATM    2  C   UNL     1      -9.228  18.332  67.108  1.00  0.00    -0.264 C  
HETATM    3  C   UNL     1      -8.650  17.273  66.149  1.00  0.00    -0.172 C  
HETATM    4  C   UNL     1     -10.530  17.912  67.795  1.00  0.00    -0.409 C  
ENDROOT
BRANCH   3   5
HETATM    5  N   UNL     1      -8.358  15.996  66.768  1.00  0.00    -0.242 NA 
HETATM    6  C   UNL     1      -7.221  15.788  67.510  1.00  0.00    -0.184 A  
HETATM    7  N   UNL     1      -7.199  14.597  68.049  1.00  0.00    -0.124 NA 
HETATM    8  C   UNL     1      -8.351  13.983  67.604  1.00  0.00    -0.187 A  
HETATM    9  C   UNL     1      -9.080  14.819  66.747  1.00  0.00    -0.267 A  
HETATM   10  C   UNL     1     -10.272  14.345  66.124  1.00  0.00    -0.317 A  
HETATM   11  C   UNL     1     -11.085  15.087  65.235  1.00  0.00    -0.391 A  
HETATM   12  C   UNL     1     -12.218  14.514  64.663  1.00  0.00    -0.474 A  
HETATM   13  C   UNL     1     -12.552  13.202  64.967  1.00  0.00    -0.499 A  
HETATM   14  C   UNL     1     -11.755  12.471  65.851  1.00  0.00    -0.480 A  
HETATM   15  C   UNL     1     -10.623  13.009  66.444  1.00  0.00    -0.284 A  
HETATM   16  N   UNL     1      -9.933  12.225  67.287  1.00  0.00    -0.203 NA 
HETATM   17  C   UNL     1      -8.820  12.685  67.895  1.00  0.00    -0.182 A  
HETATM   18  N   UNL     1      -8.167  11.832  68.777  1.00  0.00    -0.327 NA 
HETATM   19  H2  UNL     1      -8.062  12.326  69.664  1.00  0.00     0.000 HD 
HETATM   20  H1  UNL     1      -8.506  10.894  68.988  1.00  0.00     0.000 HD 
ENDBRANCH   3   5
TORSDOF 1
ENDMDL
MODEL       51
REMARK 921   NORMALIZED FREE ENERGY PREDICTED BY IDOCK:   -5.34 KCAL/MOL
REMARK 922        TOTAL FREE ENERGY PREDICTED BY IDOCK:   -5.89 KCAL/MOL
REMARK 923 INTER-LIGAND FREE ENERGY PREDICTED BY IDOCK:   -5.73 KCAL/MOL
REMARK 924 INTRA-LIGAND FREE ENERGY PREDICTED BY IDOCK:   -0.17 KCAL/MOL
REMARK 927      BINDING AFFINITY PREDICTED BY RF-SCORE:    0.00 PKD
ROOT
HETATM    1  C   UNL     1     -13.857  16.067  73.036  1.00  0.00    -0.389 C  
HETATM    2  C   UNL     1     -12.972  14.952  72.472  1.00  0.00    -0.472 C  
HETATM    3  C   UNL     1     -13.857  13.784  71.994  1.00  0.00    -0.485 C  
HETATM    4  C   UNL     1     -11.932  14.561  73.524  1.00  0.00    -0.006 C  
ENDROOT
BRANCH   3   5
HETATM    5  N   UNL     1     -13.128  12.674  71.414  1.00  0.00    -0.286 NA 
HETATM    6  C   UNL     1     -13.197  11.406  71.934  1.00  0.00    -0.380 A  
HETATM    7  N   UNL     1     -12.536  10.542  71.209  1.00  0.00    -0.388 NA 
HETATM    8  C   UNL     1     -11.972  11.287  70.194  1.00  0.00    -0.369 A  
HETATM    9  C   UNL     1     -12.279  12.648  70.325  1.00  0.00    -0.271 A  
HETATM   10  C   UNL     1     -11.734  13.598  69.412  1.00  0.00    -0.379 A  
HETATM   11  C   UNL     1     -11.961  14.995  69.448  1.00  0.00    -0.336 A  
HETATM   12  C   UNL     1     -11.355  15.836  68.518  1.00  0.00    -0.374 A  
HETATM   13  C   UNL     1     -10.519  15.300  67.549  1.00  0.00    -0.265 A  
HETATM   14  C   UNL     1     -10.301  13.920  67.508  1.00  0.00    -0.245 A  
HETATM   15  C   UNL     1     -10.891  13.052  68.413  1.00  0.00    -0.258 A  
HETATM   16  N   UNL     1     -10.624  11.743  68.279  1.00  0.00    -0.203 NA 
HETATM   17  C   UNL     1     -11.162  10.843  69.128  1.00  0.00    -0.256 A  
HETATM   18  N   UNL     1     -10.867   9.501  68.919  1.00  0.00    -0.364 NA 
HETATM   19  H2  UNL     1     -11.752   8.996  68.863  1.00  0.00     0.000 HD 
HETATM   20  H1  UNL     1     -10.282   9.180  68.148  1.00  0.00     0.000 HD 
ENDBRANCH   3   5
TORSDOF 1
ENDMDL
MODEL       52
REMARK 921   NORMALIZED FREE ENERGY PREDICTED BY IDOCK:   -5.32 KCAL/MOL
REMARK 922        TOTAL FREE ENERGY PREDICTED BY IDOCK:   -5.87 KCAL/MOL
REMARK 923 INTER-LIGAND FREE ENERGY PREDICTED BY IDOCK:   -5.48 KCAL/MOL
REMARK 924 INTRA-LIGAND FREE ENERGY PREDICTED BY IDOCK:   -0.40 KCAL/MOL
REMARK 927      BINDING AFFINITY PREDICTED BY RF-SCORE:    0.00 PKD
ROOT
HETATM    1  C   UNL     1      -9.659  17.385  66.694  1.00  0.00    -0.283 C  
HETATM    2  C   UNL     1      -9.459  15.883  66.477  1.00  0.00    -0.299 C  
HETATM    3  C   UNL     1     -10.825  15.171  66.505  1.00  0.00    -0.317 C  
HETATM    4  C   UNL     1      -8.457  15.360  67.509  1.00  0.00    -0.188 C  
ENDROOT
BRANCH   3   5
HETATM    5  N   UNL     1     -10.763  13.740  66.283  1.00  0.00    -0.284 NA 
HETATM    6  C   UNL     1     -10.400  13.205  65.072  1.00  0.00    -0.330 A  
HETATM    7  N   UNL     1     -10.323  11.901  65.115  1.00  0.00    -0.267 NA 
HETATM    8  C   UNL     1     -10.696  11.565  66.401  1.00  0.00    -0.273 A  
HETATM    9  C   UNL     1     -11.035  12.700  67.150  1.00  0.00    -0.261 A  
HETATM   10  C   UNL     1     -11.513  12.562  68.486  1.00  0.00    -0.346 A  
HETATM   11  C   UNL     1     -11.896  13.627  69.336  1.00  0.00    -0.392 A  
HETATM   12  C   UNL     1     -12.374  13.375  70.619  1.00  0.00    -0.423 A  
HETATM   13  C   UNL     1     -12.478  12.066  71.068  1.00  0.00    -0.376 A  
HETATM   14  C   UNL     1     -12.093  11.014  70.233  1.00  0.00    -0.448 A  
HETATM   15  C   UNL     1     -11.607  11.227  68.952  1.00  0.00    -0.319 A  
HETATM   16  N   UNL     1     -11.255  10.147  68.236  1.00  0.00    -0.229 NA 
HETATM   17  C   UNL     1     -10.778  10.283  66.982  1.00  0.00    -0.216 A  
HETATM   18  N   UNL     1     -10.406   9.127  66.304  1.00  0.00    -0.227 NA 
HETATM   19  H2  UNL     1      -9.448   9.256  65.978  1.00  0.00     0.000 HD 
HETATM   20  H1  UNL     1     -10.465   8.200  66.724  1.00  0.00     0.000 HD 
ENDBRANCH   3   5
TORSDOF 1
ENDMDL
MODEL       53
REMARK 921   NORMALIZED FREE ENERGY PREDICTED BY IDOCK:   -5.29 KCAL/MOL
REMARK 922        TOTAL FREE ENERGY PREDICTED BY IDOCK:   -5.84 KCAL/MOL
REMARK 923 INTER-LIGAND FREE ENERGY PREDICTED BY IDOCK:   -5.42 KCAL/MOL
REMARK 924 INTRA-LIGAND FREE ENERGY PREDICTED BY IDOCK:   -0.42 KCAL/MOL
REMARK 927      BINDING AFFINITY PREDICTED BY RF-SCORE:    0.00 PKD
ROOT
HETATM    1  C   UNL     1     -10.865  16.000  66.131  1.00  0.00    -0.179 C  
HETATM    2  C   UNL     1     -10.260  14.609  65.917  1.00  0.00    -0.344 C  
HETATM    3  C   UNL     1     -11.384  13.556  65.898  1.00  0.00    -0.308 C  
HETATM    4  C   UNL     1      -9.187  14.364  66.979  1.00  0.00    -0.246 C  
ENDROOT
BRANCH   3   5
HETATM    5  N   UNL     1     -10.932  12.197  65.676  1.00  0.00    -0.285 NA 
HETATM    6  C   UNL     1     -10.574  11.743  64.430  1.00  0.00    -0.317 A  
HETATM    7  N   UNL     1     -10.114  10.520  64.469  1.00  0.00    -0.346 NA 
HETATM    8  C   UNL     1     -10.218  10.141  65.791  1.00  0.00    -0.213 A  
HETATM    9  C   UNL     1     -10.784  11.157  66.573  1.00  0.00    -0.260 A  
HETATM   10  C   UNL     1     -11.040  10.939  67.958  1.00  0.00    -0.351 A  
HETATM   11  C   UNL     1     -11.615  11.881  68.845  1.00  0.00    -0.370 A  
HETATM   12  C   UNL     1     -11.844  11.551  70.179  1.00  0.00    -0.440 A  
HETATM   13  C   UNL     1     -11.507  10.287  70.642  1.00  0.00    -0.435 A  
HETATM   14  C   UNL     1     -10.931   9.360  69.769  1.00  0.00    -0.234 A  
HETATM   15  C   UNL     1     -10.684   9.654  68.437  1.00  0.00    -0.209 A  
HETATM   16  N   UNL     1     -10.117   8.696  67.687  1.00  0.00    -0.198 NA 
HETATM   17  C   UNL     1      -9.852   8.914  66.382  1.00  0.00    -0.283 A  
HETATM   18  N   UNL     1      -9.240   7.890  65.667  1.00  0.00    -0.400 NA 
HETATM   19  H2  UNL     1      -8.407   8.278  65.225  1.00  0.00     0.000 HD 
HETATM   20  H1  UNL     1      -8.975   7.003  66.095  1.00  0.00     0.000 HD 
ENDBRANCH   3   5
TORSDOF 1
ENDMDL
MODEL       54
REMARK 921   NORMALIZED FREE ENERGY PREDICTED BY IDOCK:   -5.29 KCAL/MOL
REMARK 922        TOTAL FREE ENERGY PREDICTED BY IDOCK:   -5.83 KCAL/MOL
REMARK 923 INTER-LIGAND FREE ENERGY PREDICTED BY IDOCK:   -5.97 KCAL/MOL
REMARK 924 INTRA-LIGAND FREE ENERGY PREDICTED BY IDOCK:    0.13 KCAL/MOL
REMARK 927      BINDING AFFINITY PREDICTED BY RF-SCORE:    0.00 PKD
ROOT
HETATM    1  C   UNL     1      -9.323  12.533  67.101  1.00  0.00    -0.201 C  
HETATM    2  C   UNL     1     -10.430  12.289  68.130  1.00  0.00    -0.228 C  
HETATM    3  C   UNL     1     -10.106  11.022  68.945  1.00  0.00    -0.199 C  
HETATM    4  C   UNL     1     -11.780  12.245  67.410  1.00  0.00    -0.405 C  
ENDROOT
BRANCH   3   5
HETATM    5  N   UNL     1     -11.077  10.703  69.973  1.00  0.00    -0.294 NA 
HETATM    6  C   UNL     1     -11.922  11.650  70.496  1.00  0.00    -0.319 A  
HETATM    7  N   UNL     1     -12.773  11.133  71.343  1.00  0.00    -0.421 NA 
HETATM    8  C   UNL     1     -12.440   9.796  71.411  1.00  0.00    -0.387 A  
HETATM    9  C   UNL     1     -11.335   9.500  70.600  1.00  0.00    -0.301 A  
HETATM   10  C   UNL     1     -10.790   8.183  70.582  1.00  0.00    -0.246 A  
HETATM   11  C   UNL     1      -9.675   7.766  69.817  1.00  0.00    -0.176 A  
HETATM   12  C   UNL     1      -9.210   6.456  69.895  1.00  0.00    -0.154 A  
HETATM   13  C   UNL     1      -9.845   5.551  70.734  1.00  0.00    -0.247 A  
HETATM   14  C   UNL     1     -10.951   5.959  71.484  1.00  0.00    -0.323 A  
HETATM   15  C   UNL     1     -11.445   7.253  71.427  1.00  0.00    -0.266 A  
HETATM   16  N   UNL     1     -12.519   7.539  72.180  1.00  0.00    -0.240 NA 
HETATM   17  C   UNL     1     -13.050   8.780  72.175  1.00  0.00    -0.406 A  
HETATM   18  N   UNL     1     -14.177   9.003  72.957  1.00  0.00    -1.154 NA 
HETATM   19  H2  UNL     1     -14.895   9.406  72.354  1.00  0.00     0.000 HD 
HETATM   20  H1  UNL     1     -14.618   8.268  73.509  1.00  0.00     0.000 HD 
ENDBRANCH   3   5
TORSDOF 1
ENDMDL
MODEL       55
REMARK 921   NORMALIZED FREE ENERGY PREDICTED BY IDOCK:   -5.28 KCAL/MOL
REMARK 922        TOTAL FREE ENERGY PREDICTED BY IDOCK:   -5.82 KCAL/MOL
REMARK 923 INTER-LIGAND FREE ENERGY PREDICTED BY IDOCK:   -5.42 KCAL/MOL
REMARK 924 INTRA-LIGAND FREE ENERGY PREDICTED BY IDOCK:   -0.40 KCAL/MOL
REMARK 927      BINDING AFFINITY PREDICTED BY RF-SCORE:    0.00 PKD
ROOT
HETATM    1  C   UNL     1     -10.360   9.632  70.880  1.00  0.00    -0.334 C  
HETATM    2  C   UNL     1     -10.710   9.807  69.399  1.00  0.00    -0.250 C  
HETATM    3  C   UNL     1      -9.458  10.263  68.625  1.00  0.00    -0.169 C  
HETATM    4  C   UNL     1     -11.903  10.758  69.278  1.00  0.00    -0.359 C  
ENDROOT
BRANCH   3   5
HETATM    5  N   UNL     1      -9.662  10.438  67.201  1.00  0.00    -0.168 NA 
HETATM    6  C   UNL     1      -9.599   9.386  66.320  1.00  0.00    -0.234 A  
HETATM    7  N   UNL     1      -9.900   9.749  65.101  1.00  0.00    -0.294 NA 
HETATM    8  C   UNL     1     -10.126  11.108  65.179  1.00  0.00    -0.281 A  
HETATM    9  C   UNL     1      -9.929  11.586  66.482  1.00  0.00    -0.210 A  
HETATM   10  C   UNL     1     -10.048  12.979  66.760  1.00  0.00    -0.247 A  
HETATM   11  C   UNL     1      -9.862  13.583  68.027  1.00  0.00    -0.238 A  
HETATM   12  C   UNL     1      -9.979  14.962  68.180  1.00  0.00    -0.222 A  
HETATM   13  C   UNL     1     -10.277  15.753  67.080  1.00  0.00    -0.280 A  
HETATM   14  C   UNL     1     -10.468  15.158  65.830  1.00  0.00    -0.350 A  
HETATM   15  C   UNL     1     -10.366  13.788  65.641  1.00  0.00    -0.311 A  
HETATM   16  N   UNL     1     -10.580  13.317  64.402  1.00  0.00    -0.416 NA 
HETATM   17  C   UNL     1     -10.493  11.996  64.147  1.00  0.00    -0.353 A  
HETATM   18  N   UNL     1     -10.751  11.570  62.848  1.00  0.00    -0.704 NA 
HETATM   19  H2  UNL     1     -11.467  10.845  62.898  1.00  0.00     0.000 HD 
HETATM   20  H1  UNL     1     -11.016  12.212  62.102  1.00  0.00     0.000 HD 
ENDBRANCH   3   5
TORSDOF 1
ENDMDL
MODEL       56
REMARK 921   NORMALIZED FREE ENERGY PREDICTED BY IDOCK:   -5.22 KCAL/MOL
REMARK 922        TOTAL FREE ENERGY PREDICTED BY IDOCK:   -5.76 KCAL/MOL
REMARK 923 INTER-LIGAND FREE ENERGY PREDICTED BY IDOCK:   -5.47 KCAL/MOL
REMARK 924 INTRA-LIGAND FREE ENERGY PREDICTED BY IDOCK:   -0.29 KCAL/MOL
REMARK 927      BINDING AFFINITY PREDICTED BY RF-SCORE:    0.00 PKD
ROOT
HETATM    1  C   UNL     1      -7.531   8.543  67.217  1.00  0.00    -0.093 C  
HETATM    2  C   UNL     1      -8.430   8.273  68.427  1.00  0.00    -0.129 C  
HETATM    3  C   UNL     1      -9.798   8.947  68.213  1.00  0.00    -0.167 C  
HETATM    4  C   UNL     1      -7.703   8.718  69.697  1.00  0.00    -0.088 C  
ENDROOT
BRANCH   3   5
HETATM    5  N   UNL     1     -10.748   8.737  69.288  1.00  0.00    -0.195 NA 
HETATM    6  C   UNL     1     -11.076   7.482  69.735  1.00  0.00    -0.129 A  
HETATM    7  N   UNL     1     -11.879   7.523  70.766  1.00  0.00    -0.265 NA 
HETATM    8  C   UNL     1     -12.122   8.865  70.974  1.00  0.00    -0.233 A  
HETATM    9  C   UNL     1     -11.467   9.659  70.022  1.00  0.00    -0.145 A  
HETATM   10  C   UNL     1     -11.645  11.073  70.022  1.00  0.00    -0.427 A  
HETATM   11  C   UNL     1     -11.048  11.976  69.110  1.00  0.00    -0.272 A  
HETATM   12  C   UNL     1     -11.313  13.342  69.187  1.00  0.00    -0.336 A  
HETATM   13  C   UNL     1     -12.171  13.821  70.166  1.00  0.00    -0.425 A  
HETATM   14  C   UNL     1     -12.754  12.932  71.073  1.00  0.00    -0.338 A  
HETATM   15  C   UNL     1     -12.510  11.567  71.030  1.00  0.00    -0.356 A  
HETATM   16  N   UNL     1     -13.112  10.802  71.955  1.00  0.00    -0.494 NA 
HETATM   17  C   UNL     1     -12.921   9.467  71.969  1.00  0.00    -0.423 A  
HETATM   18  N   UNL     1     -13.552   8.735  72.968  1.00  0.00    -0.959 NA 
HETATM   19  H2  UNL     1     -12.838   8.180  73.441  1.00  0.00     0.000 HD 
HETATM   20  H1  UNL     1     -14.130   9.169  73.687  1.00  0.00     0.000 HD 
ENDBRANCH   3   5
TORSDOF 1
ENDMDL
MODEL       57
REMARK 921   NORMALIZED FREE ENERGY PREDICTED BY IDOCK:   -5.22 KCAL/MOL
REMARK 922        TOTAL FREE ENERGY PREDICTED BY IDOCK:   -5.76 KCAL/MOL
REMARK 923 INTER-LIGAND FREE ENERGY PREDICTED BY IDOCK:   -5.69 KCAL/MOL
REMARK 924 INTRA-LIGAND FREE ENERGY PREDICTED BY IDOCK:   -0.08 KCAL/MOL
REMARK 927      BINDING AFFINITY PREDICTED BY RF-SCORE:    0.00 PKD
ROOT
HETATM    1  C   UNL     1      -8.116  11.839  66.961  1.00  0.00    -0.169 C  
HETATM    2  C   UNL     1      -8.900  11.075  68.031  1.00  0.00    -0.138 C  
HETATM    3  C   UNL     1     -10.239  11.790  68.299  1.00  0.00    -0.205 C  
HETATM    4  C   UNL     1      -8.019  10.909  69.271  1.00  0.00    -0.076 C  
ENDROOT
BRANCH   3   5
HETATM    5  N   UNL     1     -11.083  11.140  69.282  1.00  0.00    -0.241 NA 
HETATM    6  C   UNL     1     -11.151   9.773  69.393  1.00  0.00    -0.170 A  
HETATM    7  N   UNL     1     -11.901   9.401  70.398  1.00  0.00    -0.158 NA 
HETATM    8  C   UNL     1     -12.379  10.576  70.940  1.00  0.00    -0.390 A  
HETATM    9  C   UNL     1     -11.927  11.693  70.224  1.00  0.00    -0.358 A  
HETATM   10  C   UNL     1     -12.364  13.001  70.584  1.00  0.00    -0.391 A  
HETATM   11  C   UNL     1     -11.988  14.201  69.934  1.00  0.00    -0.398 A  
HETATM   12  C   UNL     1     -12.498  15.426  70.356  1.00  0.00    -0.447 A  
HETATM   13  C   UNL     1     -13.385  15.471  71.422  1.00  0.00    -0.592 A  
HETATM   14  C   UNL     1     -13.750  14.289  72.070  1.00  0.00    -0.542 A  
HETATM   15  C   UNL     1     -13.259  13.051  71.682  1.00  0.00    -0.336 A  
HETATM   16  N   UNL     1     -13.666  11.978  72.378  1.00  0.00    -0.064 NA 
HETATM   17  C   UNL     1     -13.230  10.744  72.052  1.00  0.00    -0.361 A  
HETATM   18  N   UNL     1     -13.668   9.678  72.830  1.00  0.00    -0.648 NA 
HETATM   19  H2  UNL     1     -12.842   9.170  73.149  1.00  0.00     0.000 HD 
HETATM   20  H1  UNL     1     -14.282   9.800  73.634  1.00  0.00     0.000 HD 
ENDBRANCH   3   5
TORSDOF 1
ENDMDL
MODEL       58
REMARK 921   NORMALIZED FREE ENERGY PREDICTED BY IDOCK:   -5.22 KCAL/MOL
REMARK 922        TOTAL FREE ENERGY PREDICTED BY IDOCK:   -5.76 KCAL/MOL
REMARK 923 INTER-LIGAND FREE ENERGY PREDICTED BY IDOCK:   -5.55 KCAL/MOL
REMARK 924 INTRA-LIGAND FREE ENERGY PREDICTED BY IDOCK:   -0.21 KCAL/MOL
REMARK 927      BINDING AFFINITY PREDICTED BY RF-SCORE:    0.00 PKD
ROOT
HETATM    1  C   UNL     1      -8.356  15.618  66.812  1.00  0.00    -0.313 C  
HETATM    2  C   UNL     1      -9.030  15.119  68.093  1.00  0.00    -0.174 C  
HETATM    3  C   UNL     1     -10.492  15.603  68.128  1.00  0.00    -0.259 C  
HETATM    4  C   UNL     1      -8.195  15.556  69.298  1.00  0.00    -0.255 C  
ENDROOT
BRANCH   3   5
HETATM    5  N   UNL     1     -11.242  15.168  69.290  1.00  0.00    -0.261 NA 
HETATM    6  C   UNL     1     -11.771  16.059  70.191  1.00  0.00    -0.281 A  
HETATM    7  N   UNL     1     -12.483  15.461  71.111  1.00  0.00    -0.367 NA 
HETATM    8  C   UNL     1     -12.377  14.116  70.824  1.00  0.00    -0.369 A  
HETATM    9  C   UNL     1     -11.554  13.891  69.712  1.00  0.00    -0.270 A  
HETATM   10  C   UNL     1     -11.262  12.560  69.293  1.00  0.00    -0.256 A  
HETATM   11  C   UNL     1     -10.439  12.206  68.197  1.00  0.00    -0.225 A  
HETATM   12  C   UNL     1     -10.200  10.868  67.891  1.00  0.00    -0.205 A  
HETATM   13  C   UNL     1     -10.773   9.873  68.670  1.00  0.00    -0.256 A  
HETATM   14  C   UNL     1     -11.592  10.221  69.747  1.00  0.00    -0.294 A  
HETATM   15  C   UNL     1     -11.857  11.541  70.078  1.00  0.00    -0.355 A  
HETATM   16  N   UNL     1     -12.665  11.767  71.126  1.00  0.00    -0.358 NA 
HETATM   17  C   UNL     1     -12.962  13.027  71.504  1.00  0.00    -0.305 A  
HETATM   18  N   UNL     1     -13.826  13.192  72.581  1.00  0.00    -0.746 NA 
HETATM   19  H2  UNL     1     -14.583  13.806  72.277  1.00  0.00     0.000 HD 
HETATM   20  H1  UNL     1     -14.249  12.405  73.072  1.00  0.00     0.000 HD 
ENDBRANCH   3   5
TORSDOF 1
ENDMDL
MODEL       59
REMARK 921   NORMALIZED FREE ENERGY PREDICTED BY IDOCK:   -5.21 KCAL/MOL
REMARK 922        TOTAL FREE ENERGY PREDICTED BY IDOCK:   -5.76 KCAL/MOL
REMARK 923 INTER-LIGAND FREE ENERGY PREDICTED BY IDOCK:   -5.45 KCAL/MOL
REMARK 924 INTRA-LIGAND FREE ENERGY PREDICTED BY IDOCK:   -0.31 KCAL/MOL
REMARK 927      BINDING AFFINITY PREDICTED BY RF-SCORE:    0.00 PKD
ROOT
HETATM    1  C   UNL     1      -8.291  10.755  66.671  1.00  0.00    -0.141 C  
HETATM    2  C   UNL     1      -8.945  11.351  67.921  1.00  0.00    -0.153 C  
HETATM    3  C   UNL     1     -10.415  11.701  67.616  1.00  0.00    -0.191 C  
HETATM    4  C   UNL     1      -8.106  12.535  68.406  1.00  0.00    -0.136 C  
ENDROOT
BRANCH   3   5
HETATM    5  N   UNL     1     -11.147  12.253  68.738  1.00  0.00    -0.237 NA 
HETATM    6  C   UNL     1     -11.413  13.596  68.845  1.00  0.00    -0.303 A  
HETATM    7  N   UNL     1     -12.160  13.866  69.883  1.00  0.00    -0.328 NA 
HETATM    8  C   UNL     1     -12.353  12.652  70.509  1.00  0.00    -0.268 A  
HETATM    9  C   UNL     1     -11.680  11.618  69.843  1.00  0.00    -0.337 A  
HETATM   10  C   UNL     1     -11.698  10.294  70.369  1.00  0.00    -0.404 A  
HETATM   11  C   UNL     1     -11.050   9.173  69.795  1.00  0.00    -0.140 A  
HETATM   12  C   UNL     1     -11.114   7.925  70.411  1.00  0.00    -0.249 A  
HETATM   13  C   UNL     1     -11.817   7.780  71.598  1.00  0.00    -0.321 A  
HETATM   14  C   UNL     1     -12.463   8.883  72.161  1.00  0.00    -0.459 A  
HETATM   15  C   UNL     1     -12.427  10.139  71.574  1.00  0.00    -0.427 A  
HETATM   16  N   UNL     1     -13.091  11.129  72.191  1.00  0.00    -0.367 NA 
HETATM   17  C   UNL     1     -13.094  12.376  71.677  1.00  0.00    -0.307 A  
HETATM   18  N   UNL     1     -13.823  13.351  72.350  1.00  0.00    -0.677 NA 
HETATM   19  H2  UNL     1     -14.459  13.780  71.677  1.00  0.00     0.000 HD 
HETATM   20  H1  UNL     1     -14.359  13.152  73.194  1.00  0.00     0.000 HD 
ENDBRANCH   3   5
TORSDOF 1
ENDMDL
MODEL       60
REMARK 921   NORMALIZED FREE ENERGY PREDICTED BY IDOCK:   -5.16 KCAL/MOL
REMARK 922        TOTAL FREE ENERGY PREDICTED BY IDOCK:   -5.70 KCAL/MOL
REMARK 923 INTER-LIGAND FREE ENERGY PREDICTED BY IDOCK:   -5.28 KCAL/MOL
REMARK 924 INTRA-LIGAND FREE ENERGY PREDICTED BY IDOCK:   -0.42 KCAL/MOL
REMARK 927      BINDING AFFINITY PREDICTED BY RF-SCORE:    0.00 PKD
ROOT
HETATM    1  C   UNL     1     -10.875  17.105  68.221  1.00  0.00    -0.314 C  
HETATM    2  C   UNL     1     -10.812  16.205  66.983  1.00  0.00    -0.194 C  
HETATM    3  C   UNL     1     -11.499  14.860  67.288  1.00  0.00    -0.340 C  
HETATM    4  C   UNL     1      -9.355  16.077  66.534  1.00  0.00    -0.296 C  
ENDROOT
BRANCH   3   5
HETATM    5  N   UNL     1     -11.524  13.931  66.176  1.00  0.00    -0.335 NA 
HETATM    6  C   UNL     1     -12.405  14.068  65.132  1.00  0.00    -0.453 A  
HETATM    7  N   UNL     1     -12.198  13.178  64.197  1.00  0.00    -0.521 NA 
HETATM    8  C   UNL     1     -11.165  12.396  64.672  1.00  0.00    -0.312 A  
HETATM    9  C   UNL     1     -10.753  12.809  65.946  1.00  0.00    -0.270 A  
HETATM   10  C   UNL     1      -9.739  12.087  66.641  1.00  0.00    -0.221 A  
HETATM   11  C   UNL     1      -9.248  12.399  67.932  1.00  0.00    -0.192 A  
HETATM   12  C   UNL     1      -8.270  11.607  68.529  1.00  0.00    -0.144 A  
HETATM   13  C   UNL     1      -7.775  10.500  67.854  1.00  0.00    -0.092 A  
HETATM   14  C   UNL     1      -8.254  10.196  66.577  1.00  0.00    -0.124 A  
HETATM   15  C   UNL     1      -9.222  10.964  65.948  1.00  0.00    -0.191 A  
HETATM   16  N   UNL     1      -9.605  10.592  64.717  1.00  0.00    -0.257 NA 
HETATM   17  C   UNL     1     -10.545  11.293  64.050  1.00  0.00    -0.386 A  
HETATM   18  N   UNL     1     -10.877  10.869  62.768  1.00  0.00    -0.634 NA 
HETATM   19  H2  UNL     1     -10.777  11.670  62.143  1.00  0.00     0.000 HD 
HETATM   20  H1  UNL     1     -10.429  10.072  62.318  1.00  0.00     0.000 HD 
ENDBRANCH   3   5
TORSDOF 1
ENDMDL
MODEL       61
REMARK 921   NORMALIZED FREE ENERGY PREDICTED BY IDOCK:   -5.15 KCAL/MOL
REMARK 922        TOTAL FREE ENERGY PREDICTED BY IDOCK:   -5.69 KCAL/MOL
REMARK 923 INTER-LIGAND FREE ENERGY PREDICTED BY IDOCK:   -5.37 KCAL/MOL
REMARK 924 INTRA-LIGAND FREE ENERGY PREDICTED BY IDOCK:   -0.31 KCAL/MOL
REMARK 927      BINDING AFFINITY PREDICTED BY RF-SCORE:    0.00 PKD
ROOT
HETATM    1  C   UNL     1     -11.686  14.754  67.780  1.00  0.00    -0.368 C  
HETATM    2  C   UNL     1     -11.523  13.234  67.697  1.00  0.00    -0.360 C  
HETATM    3  C   UNL     1     -10.130  12.837  68.223  1.00  0.00    -0.237 C  
HETATM    4  C   UNL     1     -11.806  12.779  66.264  1.00  0.00    -0.485 C  
ENDROOT
BRANCH   3   5
HETATM    5  N   UNL     1      -9.868  11.411  68.217  1.00  0.00    -0.194 NA 
HETATM    6  C   UNL     1      -9.010  10.832  67.316  1.00  0.00    -0.140 A  
HETATM    7  N   UNL     1      -8.851   9.554  67.542  1.00  0.00    -0.125 NA 
HETATM    8  C   UNL     1      -9.678   9.276  68.611  1.00  0.00    -0.150 A  
HETATM    9  C   UNL     1     -10.379  10.416  69.027  1.00  0.00    -0.214 A  
HETATM   10  C   UNL     1     -11.338  10.326  70.078  1.00  0.00    -0.370 A  
HETATM   11  C   UNL     1     -12.114  11.400  70.577  1.00  0.00    -0.487 A  
HETATM   12  C   UNL     1     -13.044  11.191  71.593  1.00  0.00    -0.529 A  
HETATM   13  C   UNL     1     -13.212   9.918  72.119  1.00  0.00    -0.511 A  
HETATM   14  C   UNL     1     -12.441   8.859  71.633  1.00  0.00    -0.403 A  
HETATM   15  C   UNL     1     -11.503   9.030  70.627  1.00  0.00    -0.248 A  
HETATM   16  N   UNL     1     -10.807   7.949  70.240  1.00  0.00    -0.241 NA 
HETATM   17  C   UNL     1      -9.881   8.043  69.264  1.00  0.00    -0.178 A  
HETATM   18  N   UNL     1      -9.177   6.892  68.928  1.00  0.00    -0.133 NA 
HETATM   19  H2  UNL     1      -8.182   7.111  68.989  1.00  0.00     0.000 HD 
HETATM   20  H1  UNL     1      -9.323   6.000  69.401  1.00  0.00     0.000 HD 
ENDBRANCH   3   5
TORSDOF 1
ENDMDL
MODEL       62
REMARK 921   NORMALIZED FREE ENERGY PREDICTED BY IDOCK:   -5.13 KCAL/MOL
REMARK 922        TOTAL FREE ENERGY PREDICTED BY IDOCK:   -5.67 KCAL/MOL
REMARK 923 INTER-LIGAND FREE ENERGY PREDICTED BY IDOCK:   -5.25 KCAL/MOL
REMARK 924 INTRA-LIGAND FREE ENERGY PREDICTED BY IDOCK:   -0.42 KCAL/MOL
REMARK 927      BINDING AFFINITY PREDICTED BY RF-SCORE:    0.00 PKD
ROOT
HETATM    1  C   UNL     1      -8.424   5.296  67.010  1.00  0.00    -0.106 C  
HETATM    2  C   UNL     1      -9.220   6.500  66.497  1.00  0.00    -0.179 C  
HETATM    3  C   UNL     1      -8.608   7.798  67.058  1.00  0.00    -0.129 C  
HETATM    4  C   UNL     1     -10.698   6.303  66.841  1.00  0.00    -0.411 C  
ENDROOT
BRANCH   3   5
HETATM    5  N   UNL     1      -9.266   9.013  66.618  1.00  0.00    -0.157 NA 
HETATM    6  C   UNL     1      -9.045   9.551  65.374  1.00  0.00    -0.221 A  
HETATM    7  N   UNL     1      -9.803  10.592  65.150  1.00  0.00    -0.261 NA 
HETATM    8  C   UNL     1     -10.518  10.770  66.317  1.00  0.00    -0.226 A  
HETATM    9  C   UNL     1     -10.162   9.822  67.286  1.00  0.00    -0.232 A  
HETATM   10  C   UNL     1     -10.740   9.876  68.588  1.00  0.00    -0.256 A  
HETATM   11  C   UNL     1     -10.454   8.986  69.651  1.00  0.00    -0.227 A  
HETATM   12  C   UNL     1     -11.060   9.147  70.895  1.00  0.00    -0.356 A  
HETATM   13  C   UNL     1     -11.951  10.192  71.094  1.00  0.00    -0.480 A  
HETATM   14  C   UNL     1     -12.241  11.066  70.043  1.00  0.00    -0.418 A  
HETATM   15  C   UNL     1     -11.662  10.934  68.791  1.00  0.00    -0.286 A  
HETATM   16  N   UNL     1     -12.017  11.820  67.848  1.00  0.00    -0.597 NA 
HETATM   17  C   UNL     1     -11.488  11.751  66.608  1.00  0.00    -0.267 A  
HETATM   18  N   UNL     1     -11.918  12.684  65.670  1.00  0.00    -0.440 NA 
HETATM   19  H2  UNL     1     -12.239  12.169  64.850  1.00  0.00     0.000 HD 
HETATM   20  H1  UNL     1     -12.619  13.393  65.881  1.00  0.00     0.000 HD 
ENDBRANCH   3   5
TORSDOF 1
ENDMDL
MODEL       63
REMARK 921   NORMALIZED FREE ENERGY PREDICTED BY IDOCK:   -5.13 KCAL/MOL
REMARK 922        TOTAL FREE ENERGY PREDICTED BY IDOCK:   -5.67 KCAL/MOL
REMARK 923 INTER-LIGAND FREE ENERGY PREDICTED BY IDOCK:   -5.38 KCAL/MOL
REMARK 924 INTRA-LIGAND FREE ENERGY PREDICTED BY IDOCK:   -0.29 KCAL/MOL
REMARK 927      BINDING AFFINITY PREDICTED BY RF-SCORE:    0.00 PKD
ROOT
HETATM    1  C   UNL     1      -9.059  11.934  66.371  1.00  0.00    -0.208 C  
HETATM    2  C   UNL     1     -10.048  11.028  67.111  1.00  0.00    -0.227 C  
HETATM    3  C   UNL     1      -9.393  10.494  68.399  1.00  0.00    -0.158 C  
HETATM    4  C   UNL     1     -10.534   9.936  66.155  1.00  0.00    -0.144 C  
ENDROOT
BRANCH   3   5
HETATM    5  N   UNL     1     -10.248   9.640  69.200  1.00  0.00    -0.192 NA 
HETATM    6  C   UNL     1     -10.159   8.271  69.153  1.00  0.00    -0.202 A  
HETATM    7  N   UNL     1     -10.956   7.698  70.016  1.00  0.00    -0.251 NA 
HETATM    8  C   UNL     1     -11.630   8.738  70.623  1.00  0.00    -0.205 A  
HETATM    9  C   UNL     1     -11.247   9.977  70.091  1.00  0.00    -0.304 A  
HETATM   10  C   UNL     1     -11.877  11.175  70.538  1.00  0.00    -0.448 A  
HETATM   11  C   UNL     1     -11.586  12.480  70.070  1.00  0.00    -0.207 A  
HETATM   12  C   UNL     1     -12.284  13.581  70.560  1.00  0.00    -0.433 A  
HETATM   13  C   UNL     1     -13.276  13.397  71.514  1.00  0.00    -0.395 A  
HETATM   14  C   UNL     1     -13.558  12.111  71.982  1.00  0.00    -0.263 A  
HETATM   15  C   UNL     1     -12.881  10.992  71.521  1.00  0.00    -0.450 A  
HETATM   16  N   UNL     1     -13.222   9.804  72.044  1.00  0.00    -0.444 NA 
HETATM   17  C   UNL     1     -12.606   8.675  71.639  1.00  0.00    -0.338 A  
HETATM   18  N   UNL     1     -12.987   7.480  72.239  1.00  0.00    -0.508 NA 
HETATM   19  H2  UNL     1     -12.143   7.031  72.596  1.00  0.00     0.000 HD 
HETATM   20  H1  UNL     1     -13.693   7.434  72.974  1.00  0.00     0.000 HD 
ENDBRANCH   3   5
TORSDOF 1
ENDMDL
MODEL       64
REMARK 921   NORMALIZED FREE ENERGY PREDICTED BY IDOCK:   -5.13 KCAL/MOL
REMARK 922        TOTAL FREE ENERGY PREDICTED BY IDOCK:   -5.66 KCAL/MOL
REMARK 923 INTER-LIGAND FREE ENERGY PREDICTED BY IDOCK:   -5.38 KCAL/MOL
REMARK 924 INTRA-LIGAND FREE ENERGY PREDICTED BY IDOCK:   -0.28 KCAL/MOL
REMARK 927      BINDING AFFINITY PREDICTED BY RF-SCORE:    0.00 PKD
ROOT
HETATM    1  C   UNL     1      -6.326  12.567  68.740  1.00  0.00    -0.079 C  
HETATM    2  C   UNL     1      -7.063  12.353  67.415  1.00  0.00    -0.152 C  
HETATM    3  C   UNL     1      -8.490  11.844  67.695  1.00  0.00    -0.156 C  
HETATM    4  C   UNL     1      -6.229  11.428  66.525  1.00  0.00    -0.110 C  
ENDROOT
BRANCH   3   5
HETATM    5  N   UNL     1      -9.295  11.628  66.509  1.00  0.00    -0.200 NA 
HETATM    6  C   UNL     1      -9.446  10.384  65.947  1.00  0.00    -0.189 A  
HETATM    7  N   UNL     1     -10.281  10.399  64.942  1.00  0.00    -0.319 NA 
HETATM    8  C   UNL     1     -10.659  11.719  64.812  1.00  0.00    -0.301 A  
HETATM    9  C   UNL     1     -10.011  12.533  65.751  1.00  0.00    -0.259 A  
HETATM   10  C   UNL     1     -10.215  13.944  65.740  1.00  0.00    -0.331 A  
HETATM   11  C   UNL     1      -9.611  14.868  66.627  1.00  0.00    -0.284 A  
HETATM   12  C   UNL     1      -9.863  16.233  66.509  1.00  0.00    -0.287 A  
HETATM   13  C   UNL     1     -10.711  16.691  65.511  1.00  0.00    -0.234 A  
HETATM   14  C   UNL     1     -11.315  15.779  64.641  1.00  0.00    -0.343 A  
HETATM   15  C   UNL     1     -11.092  14.414  64.731  1.00  0.00    -0.394 A  
HETATM   16  N   UNL     1     -11.729  13.624  63.853  1.00  0.00    -0.363 NA 
HETATM   17  C   UNL     1     -11.556  12.286  63.883  1.00  0.00    -0.444 A  
HETATM   18  N   UNL     1     -12.265  11.522  62.962  1.00  0.00    -0.941 NA 
HETATM   19  H2  UNL     1     -12.774  10.807  63.483  1.00  0.00     0.000 HD 
HETATM   20  H1  UNL     1     -12.913  11.932  62.290  1.00  0.00     0.000 HD 
ENDBRANCH   3   5
TORSDOF 1
ENDMDL
MODEL       65
REMARK 921   NORMALIZED FREE ENERGY PREDICTED BY IDOCK:   -5.12 KCAL/MOL
REMARK 922        TOTAL FREE ENERGY PREDICTED BY IDOCK:   -5.66 KCAL/MOL
REMARK 923 INTER-LIGAND FREE ENERGY PREDICTED BY IDOCK:   -5.40 KCAL/MOL
REMARK 924 INTRA-LIGAND FREE ENERGY PREDICTED BY IDOCK:   -0.26 KCAL/MOL
REMARK 927      BINDING AFFINITY PREDICTED BY RF-SCORE:    0.00 PKD
ROOT
HETATM    1  C   UNL     1      -8.791   7.064  68.577  1.00  0.00    -0.124 C  
HETATM    2  C   UNL     1      -9.371   7.752  67.339  1.00  0.00    -0.168 C  
HETATM    3  C   UNL     1      -9.098   9.266  67.414  1.00  0.00    -0.126 C  
HETATM    4  C   UNL     1     -10.852   7.386  67.214  1.00  0.00    -0.326 C  
ENDROOT
BRANCH   3   5
HETATM    5  N   UNL     1      -9.583  10.023  66.277  1.00  0.00    -0.189 NA 
HETATM    6  C   UNL     1      -9.284   9.668  64.985  1.00  0.00    -0.250 A  
HETATM    7  N   UNL     1      -9.893  10.430  64.114  1.00  0.00    -0.328 NA 
HETATM    8  C   UNL     1     -10.585  11.353  64.871  1.00  0.00    -0.307 A  
HETATM    9  C   UNL     1     -10.367  11.160  66.242  1.00  0.00    -0.249 A  
HETATM   10  C   UNL     1     -10.940  12.053  67.193  1.00  0.00    -0.320 A  
HETATM   11  C   UNL     1     -10.784  11.969  68.598  1.00  0.00    -0.266 A  
HETATM   12  C   UNL     1     -11.371  12.914  69.435  1.00  0.00    -0.265 A  
HETATM   13  C   UNL     1     -12.114  13.950  68.887  1.00  0.00    -0.355 A  
HETATM   14  C   UNL     1     -12.276  14.029  67.502  1.00  0.00    -0.258 A  
HETATM   15  C   UNL     1     -11.712  13.104  66.638  1.00  0.00    -0.375 A  
HETATM   16  N   UNL     1     -11.938  13.265  65.324  1.00  0.00    -0.364 NA 
HETATM   17  C   UNL     1     -11.416  12.403  64.428  1.00  0.00    -0.347 A  
HETATM   18  N   UNL     1     -11.709  12.611  63.085  1.00  0.00    -0.782 NA 
HETATM   19  H2  UNL     1     -12.091  11.741  62.714  1.00  0.00     0.000 HD 
HETATM   20  H1  UNL     1     -12.309  13.370  62.764  1.00  0.00     0.000 HD 
ENDBRANCH   3   5
TORSDOF 1
ENDMDL
MODEL       66
REMARK 921   NORMALIZED FREE ENERGY PREDICTED BY IDOCK:   -5.11 KCAL/MOL
REMARK 922        TOTAL FREE ENERGY PREDICTED BY IDOCK:   -5.64 KCAL/MOL
REMARK 923 INTER-LIGAND FREE ENERGY PREDICTED BY IDOCK:   -5.27 KCAL/MOL
REMARK 924 INTRA-LIGAND FREE ENERGY PREDICTED BY IDOCK:   -0.37 KCAL/MOL
REMARK 927      BINDING AFFINITY PREDICTED BY RF-SCORE:    0.00 PKD
ROOT
HETATM    1  C   UNL     1      -9.465   8.990  65.913  1.00  0.00    -0.317 C  
HETATM    2  C   UNL     1      -9.673   9.942  67.094  1.00  0.00    -0.224 C  
HETATM    3  C   UNL     1     -11.090  10.543  67.028  1.00  0.00    -0.110 C  
HETATM    4  C   UNL     1      -8.550  10.982  67.099  1.00  0.00    -0.136 C  
ENDROOT
BRANCH   3   5
HETATM    5  N   UNL     1     -11.412  11.446  68.114  1.00  0.00    -0.336 NA 
HETATM    6  C   UNL     1     -11.904  10.996  69.315  1.00  0.00    -0.340 A  
HETATM    7  N   UNL     1     -12.041  11.964  70.182  1.00  0.00    -0.319 NA 
HETATM    8  C   UNL     1     -11.666  13.105  69.505  1.00  0.00    -0.319 A  
HETATM    9  C   UNL     1     -11.315  12.822  68.177  1.00  0.00    -0.288 A  
HETATM   10  C   UNL     1     -10.961  13.878  67.288  1.00  0.00    -0.299 A  
HETATM   11  C   UNL     1     -10.601  13.720  65.928  1.00  0.00    -0.289 A  
HETATM   12  C   UNL     1     -10.296  14.829  65.141  1.00  0.00    -0.439 A  
HETATM   13  C   UNL     1     -10.349  16.100  65.695  1.00  0.00    -0.405 A  
HETATM   14  C   UNL     1     -10.696  16.256  67.039  1.00  0.00    -0.233 A  
HETATM   15  C   UNL     1     -11.000  15.177  67.854  1.00  0.00    -0.302 A  
HETATM   16  N   UNL     1     -11.311  15.436  69.134  1.00  0.00    -0.293 NA 
HETATM   17  C   UNL     1     -11.620  14.432  69.981  1.00  0.00    -0.275 A  
HETATM   18  N   UNL     1     -11.907  14.765  71.300  1.00  0.00    -0.346 NA 
HETATM   19  H2  UNL     1     -11.301  14.203  71.899  1.00  0.00     0.000 HD 
HETATM   20  H1  UNL     1     -11.874  15.724  71.645  1.00  0.00     0.000 HD 
ENDBRANCH   3   5
TORSDOF 1
ENDMDL
MODEL       67
REMARK 921   NORMALIZED FREE ENERGY PREDICTED BY IDOCK:   -5.10 KCAL/MOL
REMARK 922        TOTAL FREE ENERGY PREDICTED BY IDOCK:   -5.64 KCAL/MOL
REMARK 923 INTER-LIGAND FREE ENERGY PREDICTED BY IDOCK:   -5.40 KCAL/MOL
REMARK 924 INTRA-LIGAND FREE ENERGY PREDICTED BY IDOCK:   -0.23 KCAL/MOL
REMARK 927      BINDING AFFINITY PREDICTED BY RF-SCORE:    0.00 PKD
ROOT
HETATM    1  C   UNL     1      -6.235  13.096  69.365  1.00  0.00    -0.111 C  
HETATM    2  C   UNL     1      -6.991  13.267  68.044  1.00  0.00    -0.120 C  
HETATM    3  C   UNL     1      -8.508  13.197  68.306  1.00  0.00    -0.161 C  
HETATM    4  C   UNL     1      -6.479  12.233  67.039  1.00  0.00    -0.051 C  
ENDROOT
BRANCH   3   5
HETATM    5  N   UNL     1      -9.331  13.372  67.126  1.00  0.00    -0.231 NA 
HETATM    6  C   UNL     1      -9.785  12.306  66.389  1.00  0.00    -0.234 A  
HETATM    7  N   UNL     1     -10.581  12.682  65.422  1.00  0.00    -0.276 NA 
HETATM    8  C   UNL     1     -10.613  14.059  65.503  1.00  0.00    -0.318 A  
HETATM    9  C   UNL     1      -9.789  14.532  66.533  1.00  0.00    -0.285 A  
HETATM   10  C   UNL     1      -9.630  15.934  66.739  1.00  0.00    -0.252 A  
HETATM   11  C   UNL     1      -8.821  16.532  67.735  1.00  0.00    -0.197 A  
HETATM   12  C   UNL     1      -8.720  17.918  67.830  1.00  0.00    -0.250 A  
HETATM   13  C   UNL     1      -9.417  18.720  66.937  1.00  0.00    -0.329 A  
HETATM   14  C   UNL     1     -10.222  18.131  65.959  1.00  0.00    -0.325 A  
HETATM   15  C   UNL     1     -10.352  16.756  65.838  1.00  0.00    -0.328 A  
HETATM   16  N   UNL     1     -11.159  16.294  64.870  1.00  0.00    -0.522 NA 
HETATM   17  C   UNL     1     -11.329  14.967  64.695  1.00  0.00    -0.352 A  
HETATM   18  N   UNL     1     -12.199  14.554  63.692  1.00  0.00    -1.062 NA 
HETATM   19  H2  UNL     1     -12.877  13.919  64.115  1.00  0.00     0.000 HD 
HETATM   20  H1  UNL     1     -12.717  15.210  63.109  1.00  0.00     0.000 HD 
ENDBRANCH   3   5
TORSDOF 1
ENDMDL
MODEL       68
REMARK 921   NORMALIZED FREE ENERGY PREDICTED BY IDOCK:   -5.09 KCAL/MOL
REMARK 922        TOTAL FREE ENERGY PREDICTED BY IDOCK:   -5.62 KCAL/MOL
REMARK 923 INTER-LIGAND FREE ENERGY PREDICTED BY IDOCK:   -5.20 KCAL/MOL
REMARK 924 INTRA-LIGAND FREE ENERGY PREDICTED BY IDOCK:   -0.42 KCAL/MOL
REMARK 927      BINDING AFFINITY PREDICTED BY RF-SCORE:    0.00 PKD
ROOT
HETATM    1  C   UNL     1      -6.234  16.112  69.103  1.00  0.00    -0.153 C  
HETATM    2  C   UNL     1      -7.257  14.981  69.239  1.00  0.00    -0.179 C  
HETATM    3  C   UNL     1      -7.246  14.119  67.962  1.00  0.00    -0.143 C  
HETATM    4  C   UNL     1      -8.623  15.583  69.578  1.00  0.00    -0.218 C  
ENDROOT
BRANCH   3   5
HETATM    5  N   UNL     1      -8.162  12.996  67.985  1.00  0.00    -0.150 NA 
HETATM    6  C   UNL     1      -7.873  11.834  68.657  1.00  0.00    -0.117 A  
HETATM    7  N   UNL     1      -8.869  10.988  68.624  1.00  0.00    -0.162 NA 
HETATM    8  C   UNL     1      -9.836  11.607  67.858  1.00  0.00    -0.184 A  
HETATM    9  C   UNL     1      -9.401  12.854  67.391  1.00  0.00    -0.194 A  
HETATM   10  C   UNL     1     -10.229  13.626  66.525  1.00  0.00    -0.284 A  
HETATM   11  C   UNL     1      -9.897  14.890  65.980  1.00  0.00    -0.345 A  
HETATM   12  C   UNL     1     -10.775  15.545  65.121  1.00  0.00    -0.460 A  
HETATM   13  C   UNL     1     -11.986  14.953  64.793  1.00  0.00    -0.364 A  
HETATM   14  C   UNL     1     -12.319  13.709  65.336  1.00  0.00    -0.510 A  
HETATM   15  C   UNL     1     -11.473  13.029  66.199  1.00  0.00    -0.340 A  
HETATM   16  N   UNL     1     -11.893  11.845  66.672  1.00  0.00    -0.590 NA 
HETATM   17  C   UNL     1     -11.118  11.130  67.514  1.00  0.00    -0.291 A  
HETATM   18  N   UNL     1     -11.622   9.924  67.988  1.00  0.00    -0.513 NA 
HETATM   19  H2  UNL     1     -11.567   9.947  69.007  1.00  0.00     0.000 HD 
HETATM   20  H1  UNL     1     -12.549   9.580  67.740  1.00  0.00     0.000 HD 
ENDBRANCH   3   5
TORSDOF 1
ENDMDL
MODEL       69
REMARK 921   NORMALIZED FREE ENERGY PREDICTED BY IDOCK:   -5.08 KCAL/MOL
REMARK 922        TOTAL FREE ENERGY PREDICTED BY IDOCK:   -5.62 KCAL/MOL
REMARK 923 INTER-LIGAND FREE ENERGY PREDICTED BY IDOCK:   -5.55 KCAL/MOL
REMARK 924 INTRA-LIGAND FREE ENERGY PREDICTED BY IDOCK:   -0.07 KCAL/MOL
REMARK 927      BINDING AFFINITY PREDICTED BY RF-SCORE:    0.00 PKD
ROOT
HETATM    1  C   UNL     1     -10.502  11.787  63.261  1.00  0.00    -0.439 C  
HETATM    2  C   UNL     1     -11.102  12.418  64.520  1.00  0.00    -0.360 C  
HETATM    3  C   UNL     1     -10.501  11.747  65.770  1.00  0.00    -0.260 C  
HETATM    4  C   UNL     1     -12.629  12.339  64.438  1.00  0.00    -0.447 C  
ENDROOT
BRANCH   3   5
HETATM    5  N   UNL     1     -10.979  12.282  67.029  1.00  0.00    -0.256 NA 
HETATM    6  C   UNL     1     -11.262  13.616  67.193  1.00  0.00    -0.309 A  
HETATM    7  N   UNL     1     -11.762  13.869  68.375  1.00  0.00    -0.336 NA 
HETATM    8  C   UNL     1     -11.764  12.654  69.028  1.00  0.00    -0.318 A  
HETATM    9  C   UNL     1     -11.223  11.639  68.227  1.00  0.00    -0.260 A  
HETATM   10  C   UNL     1     -11.073  10.319  68.743  1.00  0.00    -0.276 A  
HETATM   11  C   UNL     1     -10.533   9.217  68.038  1.00  0.00    -0.276 A  
HETATM   12  C   UNL     1     -10.410   7.973  68.652  1.00  0.00    -0.224 A  
HETATM   13  C   UNL     1     -10.818   7.813  69.968  1.00  0.00    -0.243 A  
HETATM   14  C   UNL     1     -11.360   8.897  70.663  1.00  0.00    -0.299 A  
HETATM   15  C   UNL     1     -11.503  10.149  70.083  1.00  0.00    -0.296 A  
HETATM   16  N   UNL     1     -12.044  11.121  70.835  1.00  0.00    -0.344 NA 
HETATM   17  C   UNL     1     -12.209  12.362  70.334  1.00  0.00    -0.287 A  
HETATM   18  N   UNL     1     -12.800  13.316  71.155  1.00  0.00    -0.315 NA 
HETATM   19  H2  UNL     1     -13.588  13.717  70.644  1.00  0.00     0.000 HD 
HETATM   20  H1  UNL     1     -13.123  13.106  72.099  1.00  0.00     0.000 HD 
ENDBRANCH   3   5
TORSDOF 1
ENDMDL
MODEL       70
REMARK 921   NORMALIZED FREE ENERGY PREDICTED BY IDOCK:   -5.08 KCAL/MOL
REMARK 922        TOTAL FREE ENERGY PREDICTED BY IDOCK:   -5.61 KCAL/MOL
REMARK 923 INTER-LIGAND FREE ENERGY PREDICTED BY IDOCK:   -5.34 KCAL/MOL
REMARK 924 INTRA-LIGAND FREE ENERGY PREDICTED BY IDOCK:   -0.27 KCAL/MOL
REMARK 927      BINDING AFFINITY PREDICTED BY RF-SCORE:    0.00 PKD
ROOT
HETATM    1  C   UNL     1     -11.492  15.681  69.460  1.00  0.00    -0.349 C  
HETATM    2  C   UNL     1     -10.755  14.589  68.679  1.00  0.00    -0.257 C  
HETATM    3  C   UNL     1     -11.310  13.207  69.076  1.00  0.00    -0.282 C  
HETATM    4  C   UNL     1      -9.249  14.747  68.900  1.00  0.00    -0.177 C  
ENDROOT
BRANCH   3   5
HETATM    5  N   UNL     1     -10.703  12.091  68.379  1.00  0.00    -0.220 NA 
HETATM    6  C   UNL     1      -9.934  11.158  69.029  1.00  0.00    -0.137 A  
HETATM    7  N   UNL     1      -9.559  10.191  68.232  1.00  0.00    -0.139 NA 
HETATM    8  C   UNL     1     -10.068  10.531  66.996  1.00  0.00    -0.213 A  
HETATM    9  C   UNL     1     -10.750  11.755  67.041  1.00  0.00    -0.246 A  
HETATM   10  C   UNL     1     -11.294  12.317  65.849  1.00  0.00    -0.406 A  
HETATM   11  C   UNL     1     -11.990  13.547  65.765  1.00  0.00    -0.439 A  
HETATM   12  C   UNL     1     -12.459  14.014  64.539  1.00  0.00    -0.342 A  
HETATM   13  C   UNL     1     -12.239  13.269  63.390  1.00  0.00    -0.476 A  
HETATM   14  C   UNL     1     -11.559  12.051  63.473  1.00  0.00    -0.553 A  
HETATM   15  C   UNL     1     -11.083  11.551  64.676  1.00  0.00    -0.250 A  
HETATM   16  N   UNL     1     -10.452  10.367  64.647  1.00  0.00    -0.149 NA 
HETATM   17  C   UNL     1      -9.962   9.824  65.780  1.00  0.00    -0.279 A  
HETATM   18  N   UNL     1      -9.342   8.583  65.687  1.00  0.00    -0.426 NA 
HETATM   19  H2  UNL     1      -9.790   7.964  66.364  1.00  0.00     0.000 HD 
HETATM   20  H1  UNL     1      -9.265   8.071  64.808  1.00  0.00     0.000 HD 
ENDBRANCH   3   5
TORSDOF 1
ENDMDL
MODEL       71
REMARK 921   NORMALIZED FREE ENERGY PREDICTED BY IDOCK:   -5.07 KCAL/MOL
REMARK 922        TOTAL FREE ENERGY PREDICTED BY IDOCK:   -5.61 KCAL/MOL
REMARK 923 INTER-LIGAND FREE ENERGY PREDICTED BY IDOCK:   -5.25 KCAL/MOL
REMARK 924 INTRA-LIGAND FREE ENERGY PREDICTED BY IDOCK:   -0.36 KCAL/MOL
REMARK 927      BINDING AFFINITY PREDICTED BY RF-SCORE:    0.00 PKD
ROOT
HETATM    1  C   UNL     1     -11.959   8.344  72.050  1.00  0.00    -0.419 C  
HETATM    2  C   UNL     1     -11.399   9.668  71.522  1.00  0.00    -0.420 C  
HETATM    3  C   UNL     1     -12.347  10.239  70.451  1.00  0.00    -0.238 C  
HETATM    4  C   UNL     1      -9.965   9.444  71.036  1.00  0.00    -0.334 C  
ENDROOT
BRANCH   3   5
HETATM    5  N   UNL     1     -11.931  11.510  69.894  1.00  0.00    -0.336 NA 
HETATM    6  C   UNL     1     -12.259  12.706  70.483  1.00  0.00    -0.299 A  
HETATM    7  N   UNL     1     -11.710  13.722  69.869  1.00  0.00    -0.291 NA 
HETATM    8  C   UNL     1     -11.029  13.169  68.805  1.00  0.00    -0.262 A  
HETATM    9  C   UNL     1     -11.194  11.778  68.757  1.00  0.00    -0.251 A  
HETATM   10  C   UNL     1     -10.624  11.023  67.690  1.00  0.00    -0.255 A  
HETATM   11  C   UNL     1     -10.730   9.621  67.528  1.00  0.00    -0.321 A  
HETATM   12  C   UNL     1     -10.152   8.988  66.429  1.00  0.00    -0.351 A  
HETATM   13  C   UNL     1      -9.469   9.740  65.484  1.00  0.00    -0.324 A  
HETATM   14  C   UNL     1      -9.356  11.123  65.648  1.00  0.00    -0.243 A  
HETATM   15  C   UNL     1      -9.913  11.787  66.731  1.00  0.00    -0.201 A  
HETATM   16  N   UNL     1      -9.738  13.116  66.799  1.00  0.00    -0.239 NA 
HETATM   17  C   UNL     1     -10.255  13.824  67.824  1.00  0.00    -0.241 A  
HETATM   18  N   UNL     1     -10.016  15.193  67.849  1.00  0.00    -0.220 NA 
HETATM   19  H2  UNL     1      -9.612  15.418  68.759  1.00  0.00     0.000 HD 
HETATM   20  H1  UNL     1      -9.456  15.667  67.141  1.00  0.00     0.000 HD 
ENDBRANCH   3   5
TORSDOF 1
ENDMDL
MODEL       72
REMARK 921   NORMALIZED FREE ENERGY PREDICTED BY IDOCK:   -5.07 KCAL/MOL
REMARK 922        TOTAL FREE ENERGY PREDICTED BY IDOCK:   -5.61 KCAL/MOL
REMARK 923 INTER-LIGAND FREE ENERGY PREDICTED BY IDOCK:   -5.24 KCAL/MOL
REMARK 924 INTRA-LIGAND FREE ENERGY PREDICTED BY IDOCK:   -0.36 KCAL/MOL
REMARK 927      BINDING AFFINITY PREDICTED BY RF-SCORE:    0.00 PKD
ROOT
HETATM    1  C   UNL     1     -12.365  14.651  64.211  1.00  0.00    -0.375 C  
HETATM    2  C   UNL     1     -12.417  13.337  64.995  1.00  0.00    -0.498 C  
HETATM    3  C   UNL     1     -11.165  13.217  65.885  1.00  0.00    -0.290 C  
HETATM    4  C   UNL     1     -12.603  12.177  64.014  1.00  0.00    -0.507 C  
ENDROOT
BRANCH   3   5
HETATM    5  N   UNL     1     -11.115  12.018  66.698  1.00  0.00    -0.294 NA 
HETATM    6  C   UNL     1     -11.711  11.951  67.933  1.00  0.00    -0.298 A  
HETATM    7  N   UNL     1     -11.623  10.755  68.454  1.00  0.00    -0.419 NA 
HETATM    8  C   UNL     1     -10.898  10.020  67.539  1.00  0.00    -0.265 A  
HETATM    9  C   UNL     1     -10.512  10.803  66.443  1.00  0.00    -0.233 A  
HETATM   10  C   UNL     1      -9.695  10.246  65.415  1.00  0.00    -0.340 A  
HETATM   11  C   UNL     1      -9.234  10.936  64.268  1.00  0.00    -0.221 A  
HETATM   12  C   UNL     1      -8.417  10.299  63.338  1.00  0.00    -0.185 A  
HETATM   13  C   UNL     1      -8.050   8.975  63.538  1.00  0.00    -0.164 A  
HETATM   14  C   UNL     1      -8.512   8.291  64.665  1.00  0.00    -0.069 A  
HETATM   15  C   UNL     1      -9.331   8.891  65.610  1.00  0.00    -0.191 A  
HETATM   16  N   UNL     1      -9.727   8.141  66.650  1.00  0.00    -0.230 NA 
HETATM   17  C   UNL     1     -10.522   8.662  67.607  1.00  0.00    -0.244 A  
HETATM   18  N   UNL     1     -10.918   7.825  68.645  1.00  0.00    -0.419 NA 
HETATM   19  H2  UNL     1     -11.936   7.865  68.700  1.00  0.00     0.000 HD 
HETATM   20  H1  UNL     1     -10.647   6.844  68.694  1.00  0.00     0.000 HD 
ENDBRANCH   3   5
TORSDOF 1
ENDMDL
MODEL       73
REMARK 921   NORMALIZED FREE ENERGY PREDICTED BY IDOCK:   -5.04 KCAL/MOL
REMARK 922        TOTAL FREE ENERGY PREDICTED BY IDOCK:   -5.57 KCAL/MOL
REMARK 923 INTER-LIGAND FREE ENERGY PREDICTED BY IDOCK:   -6.18 KCAL/MOL
REMARK 924 INTRA-LIGAND FREE ENERGY PREDICTED BY IDOCK:    0.61 KCAL/MOL
REMARK 927      BINDING AFFINITY PREDICTED BY RF-SCORE:    0.00 PKD
ROOT
HETATM    1  C   UNL     1     -13.239  13.444  72.091  1.00  0.00    -0.557 C  
HETATM    2  C   UNL     1     -12.981  13.940  70.666  1.00  0.00    -0.219 C  
HETATM    3  C   UNL     1     -12.030  12.966  69.945  1.00  0.00    -0.307 C  
HETATM    4  C   UNL     1     -12.474  15.383  70.725  1.00  0.00    -0.476 C  
ENDROOT
BRANCH   3   5
HETATM    5  N   UNL     1     -11.732  13.321  68.572  1.00  0.00    -0.332 NA 
HETATM    6  C   UNL     1     -11.969  14.580  68.077  1.00  0.00    -0.270 A  
HETATM    7  N   UNL     1     -11.546  14.710  66.846  1.00  0.00    -0.369 NA 
HETATM    8  C   UNL     1     -11.051  13.468  66.507  1.00  0.00    -0.300 A  
HETATM    9  C   UNL     1     -11.204  12.550  67.555  1.00  0.00    -0.291 A  
HETATM   10  C   UNL     1     -10.816  11.190  67.380  1.00  0.00    -0.317 A  
HETATM   11  C   UNL     1     -10.931  10.171  68.356  1.00  0.00    -0.293 A  
HETATM   12  C   UNL     1     -10.543   8.864  68.068  1.00  0.00    -0.226 A  
HETATM   13  C   UNL     1     -10.041   8.559  66.810  1.00  0.00    -0.369 A  
HETATM   14  C   UNL     1      -9.920   9.565  65.849  1.00  0.00    -0.342 A  
HETATM   15  C   UNL     1     -10.290  10.877  66.102  1.00  0.00    -0.248 A  
HETATM   16  N   UNL     1     -10.123  11.769  65.112  1.00  0.00    -0.252 NA 
HETATM   17  C   UNL     1     -10.466  13.061  65.289  1.00  0.00    -0.304 A  
HETATM   18  N   UNL     1     -10.243  13.939  64.234  1.00  0.00    -0.703 NA 
HETATM   19  H2  UNL     1      -9.692  14.719  64.595  1.00  0.00     0.000 HD 
HETATM   20  H1  UNL     1      -9.819  13.646  63.355  1.00  0.00     0.000 HD 
ENDBRANCH   3   5
TORSDOF 1
ENDMDL
MODEL       74
REMARK 921   NORMALIZED FREE ENERGY PREDICTED BY IDOCK:   -5.01 KCAL/MOL
REMARK 922        TOTAL FREE ENERGY PREDICTED BY IDOCK:   -5.54 KCAL/MOL
REMARK 923 INTER-LIGAND FREE ENERGY PREDICTED BY IDOCK:   -5.23 KCAL/MOL
REMARK 924 INTRA-LIGAND FREE ENERGY PREDICTED BY IDOCK:   -0.31 KCAL/MOL
REMARK 927      BINDING AFFINITY PREDICTED BY RF-SCORE:    0.00 PKD
ROOT
HETATM    1  C   UNL     1      -9.301   9.290  70.705  1.00  0.00    -0.329 C  
HETATM    2  C   UNL     1      -9.034   9.768  69.275  1.00  0.00    -0.177 C  
HETATM    3  C   UNL     1      -9.877   8.937  68.288  1.00  0.00    -0.167 C  
HETATM    4  C   UNL     1      -7.528   9.723  69.007  1.00  0.00    -0.080 C  
ENDROOT
BRANCH   3   5
HETATM    5  N   UNL     1      -9.726   9.319  66.898  1.00  0.00    -0.175 NA 
HETATM    6  C   UNL     1      -9.053   8.532  65.996  1.00  0.00    -0.194 A  
HETATM    7  N   UNL     1      -9.112   9.017  64.783  1.00  0.00    -0.112 NA 
HETATM    8  C   UNL     1      -9.816  10.197  64.906  1.00  0.00    -0.319 A  
HETATM    9  C   UNL     1     -10.171  10.447  66.239  1.00  0.00    -0.222 A  
HETATM   10  C   UNL     1     -10.846  11.653  66.588  1.00  0.00    -0.327 A  
HETATM   11  C   UNL     1     -11.245  12.022  67.895  1.00  0.00    -0.323 A  
HETATM   12  C   UNL     1     -11.879  13.241  68.126  1.00  0.00    -0.388 A  
HETATM   13  C   UNL     1     -12.119  14.102  67.064  1.00  0.00    -0.449 A  
HETATM   14  C   UNL     1     -11.733  13.735  65.773  1.00  0.00    -0.365 A  
HETATM   15  C   UNL     1     -11.105  12.529  65.504  1.00  0.00    -0.301 A  
HETATM   16  N   UNL     1     -10.785  12.269  64.226  1.00  0.00    -0.323 NA 
HETATM   17  C   UNL     1     -10.170  11.115  63.895  1.00  0.00    -0.362 A  
HETATM   18  N   UNL     1      -9.889  10.895  62.551  1.00  0.00    -0.621 NA 
HETATM   19  H2  UNL     1     -10.287   9.990  62.297  1.00  0.00     0.000 HD 
HETATM   20  H1  UNL     1     -10.146  11.558  61.820  1.00  0.00     0.000 HD 
ENDBRANCH   3   5
TORSDOF 1
ENDMDL
MODEL       75
REMARK 921   NORMALIZED FREE ENERGY PREDICTED BY IDOCK:   -5.00 KCAL/MOL
REMARK 922        TOTAL FREE ENERGY PREDICTED BY IDOCK:   -5.53 KCAL/MOL
REMARK 923 INTER-LIGAND FREE ENERGY PREDICTED BY IDOCK:   -5.25 KCAL/MOL
REMARK 924 INTRA-LIGAND FREE ENERGY PREDICTED BY IDOCK:   -0.28 KCAL/MOL
REMARK 927      BINDING AFFINITY PREDICTED BY RF-SCORE:    0.00 PKD
ROOT
HETATM    1  C   UNL     1      -9.010   6.278  65.929  1.00  0.00    -0.122 C  
HETATM    2  C   UNL     1      -9.980   7.229  66.636  1.00  0.00    -0.246 C  
HETATM    3  C   UNL     1      -9.184   8.330  67.364  1.00  0.00    -0.141 C  
HETATM    4  C   UNL     1     -10.902   6.415  67.546  1.00  0.00    -0.438 C  
ENDROOT
BRANCH   3   5
HETATM    5  N   UNL     1     -10.001   9.309  68.052  1.00  0.00    -0.173 NA 
HETATM    6  C   UNL     1     -10.262   9.224  69.398  1.00  0.00    -0.210 A  
HETATM    7  N   UNL     1     -10.942  10.253  69.831  1.00  0.00    -0.282 NA 
HETATM    8  C   UNL     1     -11.176  11.022  68.710  1.00  0.00    -0.266 A  
HETATM    9  C   UNL     1     -10.644  10.427  67.558  1.00  0.00    -0.262 A  
HETATM   10  C   UNL     1     -10.837  11.032  66.282  1.00  0.00    -0.234 A  
HETATM   11  C   UNL     1     -10.360  10.522  65.050  1.00  0.00    -0.310 A  
HETATM   12  C   UNL     1     -10.630  11.185  63.856  1.00  0.00    -0.431 A  
HETATM   13  C   UNL     1     -11.377  12.355  63.873  1.00  0.00    -0.502 A  
HETATM   14  C   UNL     1     -11.842  12.863  65.088  1.00  0.00    -0.415 A  
HETATM   15  C   UNL     1     -11.588  12.234  66.298  1.00  0.00    -0.385 A  
HETATM   16  N   UNL     1     -12.071  12.811  67.409  1.00  0.00    -0.400 NA 
HETATM   17  C   UNL     1     -11.863  12.251  68.618  1.00  0.00    -0.305 A  
HETATM   18  N   UNL     1     -12.368  12.912  69.732  1.00  0.00    -0.128 NA 
HETATM   19  H2  UNL     1     -11.598  13.040  70.389  1.00  0.00     0.000 HD 
HETATM   20  H1  UNL     1     -12.864  13.800  69.666  1.00  0.00     0.000 HD 
ENDBRANCH   3   5
TORSDOF 1
ENDMDL
MODEL       76
REMARK 921   NORMALIZED FREE ENERGY PREDICTED BY IDOCK:   -4.99 KCAL/MOL
REMARK 922        TOTAL FREE ENERGY PREDICTED BY IDOCK:   -5.52 KCAL/MOL
REMARK 923 INTER-LIGAND FREE ENERGY PREDICTED BY IDOCK:   -5.22 KCAL/MOL
REMARK 924 INTRA-LIGAND FREE ENERGY PREDICTED BY IDOCK:   -0.31 KCAL/MOL
REMARK 927      BINDING AFFINITY PREDICTED BY RF-SCORE:    0.00 PKD
ROOT
HETATM    1  C   UNL     1      -8.251   8.395  64.924  1.00  0.00    -0.155 C  
HETATM    2  C   UNL     1      -8.625   9.679  65.670  1.00  0.00    -0.149 C  
HETATM    3  C   UNL     1     -10.015  10.158  65.207  1.00  0.00    -0.311 C  
HETATM    4  C   UNL     1      -7.510  10.710  65.478  1.00  0.00    -0.063 C  
ENDROOT
BRANCH   3   5
HETATM    5  N   UNL     1     -10.488  11.358  65.867  1.00  0.00    -0.252 NA 
HETATM    6  C   UNL     1     -10.562  12.566  65.217  1.00  0.00    -0.290 A  
HETATM    7  N   UNL     1     -11.097  13.494  65.967  1.00  0.00    -0.292 NA 
HETATM    8  C   UNL     1     -11.344  12.876  67.176  1.00  0.00    -0.306 A  
HETATM    9  C   UNL     1     -10.920  11.541  67.166  1.00  0.00    -0.286 A  
HETATM   10  C   UNL     1     -11.024  10.746  68.344  1.00  0.00    -0.299 A  
HETATM   11  C   UNL     1     -10.621   9.394  68.462  1.00  0.00    -0.234 A  
HETATM   12  C   UNL     1     -10.747   8.718  69.674  1.00  0.00    -0.212 A  
HETATM   13  C   UNL     1     -11.270   9.378  70.777  1.00  0.00    -0.367 A  
HETATM   14  C   UNL     1     -11.675  10.710  70.660  1.00  0.00    -0.454 A  
HETATM   15  C   UNL     1     -11.571  11.413  69.469  1.00  0.00    -0.331 A  
HETATM   16  N   UNL     1     -12.000  12.685  69.462  1.00  0.00    -0.297 NA 
HETATM   17  C   UNL     1     -11.924  13.427  68.337  1.00  0.00    -0.324 A  
HETATM   18  N   UNL     1     -12.409  14.729  68.389  1.00  0.00    -0.593 NA 
HETATM   19  H2  UNL     1     -13.082  14.837  67.630  1.00  0.00     0.000 HD 
HETATM   20  H1  UNL     1     -12.829  15.126  69.229  1.00  0.00     0.000 HD 
ENDBRANCH   3   5
TORSDOF 1
ENDMDL
MODEL       77
REMARK 921   NORMALIZED FREE ENERGY PREDICTED BY IDOCK:   -4.99 KCAL/MOL
REMARK 922        TOTAL FREE ENERGY PREDICTED BY IDOCK:   -5.52 KCAL/MOL
REMARK 923 INTER-LIGAND FREE ENERGY PREDICTED BY IDOCK:   -5.16 KCAL/MOL
REMARK 924 INTRA-LIGAND FREE ENERGY PREDICTED BY IDOCK:   -0.36 KCAL/MOL
REMARK 927      BINDING AFFINITY PREDICTED BY RF-SCORE:    0.00 PKD
ROOT
HETATM    1  C   UNL     1      -6.676  13.139  69.698  1.00  0.00     0.081 C  
HETATM    2  C   UNL     1      -7.639  13.745  68.673  1.00  0.00    -0.125 C  
HETATM    3  C   UNL     1      -8.707  12.703  68.289  1.00  0.00    -0.169 C  
HETATM    4  C   UNL     1      -6.832  14.282  67.488  1.00  0.00    -0.158 C  
ENDROOT
BRANCH   3   5
HETATM    5  N   UNL     1      -9.694  13.174  67.339  1.00  0.00    -0.215 NA 
HETATM    6  C   UNL     1     -10.540  14.217  67.624  1.00  0.00    -0.253 A  
HETATM    7  N   UNL     1     -11.287  14.536  66.599  1.00  0.00    -0.347 NA 
HETATM    8  C   UNL     1     -10.946  13.632  65.615  1.00  0.00    -0.290 A  
HETATM    9  C   UNL     1      -9.981  12.721  66.066  1.00  0.00    -0.271 A  
HETATM   10  C   UNL     1      -9.542  11.662  65.220  1.00  0.00    -0.220 A  
HETATM   11  C   UNL     1      -8.586  10.676  65.565  1.00  0.00    -0.191 A  
HETATM   12  C   UNL     1      -8.249   9.668  64.665  1.00  0.00    -0.149 A  
HETATM   13  C   UNL     1      -8.858   9.628  63.419  1.00  0.00    -0.251 A  
HETATM   14  C   UNL     1      -9.796  10.604  63.074  1.00  0.00    -0.318 A  
HETATM   15  C   UNL     1     -10.153  11.626  63.941  1.00  0.00    -0.357 A  
HETATM   16  N   UNL     1     -11.056  12.519  63.507  1.00  0.00    -0.462 NA 
HETATM   17  C   UNL     1     -11.450  13.536  64.301  1.00  0.00    -0.383 A  
HETATM   18  N   UNL     1     -12.369  14.442  63.782  1.00  0.00    -1.079 NA 
HETATM   19  H2  UNL     1     -11.975  15.377  63.892  1.00  0.00     0.000 HD 
HETATM   20  H1  UNL     1     -12.733  14.372  62.832  1.00  0.00     0.000 HD 
ENDBRANCH   3   5
TORSDOF 1
ENDMDL
MODEL       78
REMARK 921   NORMALIZED FREE ENERGY PREDICTED BY IDOCK:   -4.98 KCAL/MOL
REMARK 922        TOTAL FREE ENERGY PREDICTED BY IDOCK:   -5.51 KCAL/MOL
REMARK 923 INTER-LIGAND FREE ENERGY PREDICTED BY IDOCK:   -5.78 KCAL/MOL
REMARK 924 INTRA-LIGAND FREE ENERGY PREDICTED BY IDOCK:    0.27 KCAL/MOL
REMARK 927      BINDING AFFINITY PREDICTED BY RF-SCORE:    0.00 PKD
ROOT
HETATM    1  C   UNL     1     -11.750  10.910  70.949  1.00  0.00    -0.265 C  
HETATM    2  C   UNL     1     -11.985  12.121  70.041  1.00  0.00    -0.391 C  
HETATM    3  C   UNL     1     -10.687  12.455  69.281  1.00  0.00     0.055 C  
HETATM    4  C   UNL     1     -12.535  13.275  70.882  1.00  0.00    -0.424 C  
ENDROOT
BRANCH   3   5
HETATM    5  N   UNL     1     -10.795  13.574  68.367  1.00  0.00    -0.258 NA 
HETATM    6  C   UNL     1     -11.051  14.850  68.805  1.00  0.00    -0.264 A  
HETATM    7  N   UNL     1     -11.020  15.719  67.828  1.00  0.00    -0.316 NA 
HETATM    8  C   UNL     1     -10.777  14.971  66.695  1.00  0.00    -0.312 A  
HETATM    9  C   UNL     1     -10.686  13.605  66.991  1.00  0.00    -0.278 A  
HETATM   10  C   UNL     1     -10.505  12.654  65.944  1.00  0.00    -0.295 A  
HETATM   11  C   UNL     1     -10.410  11.251  66.116  1.00  0.00    -0.300 A  
HETATM   12  C   UNL     1     -10.258  10.411  65.016  1.00  0.00    -0.334 A  
HETATM   13  C   UNL     1     -10.203  10.953  63.739  1.00  0.00    -0.407 A  
HETATM   14  C   UNL     1     -10.288  12.337  63.570  1.00  0.00    -0.443 A  
HETATM   15  C   UNL     1     -10.434  13.205  64.641  1.00  0.00    -0.392 A  
HETATM   16  N   UNL     1     -10.496  14.518  64.369  1.00  0.00    -0.050 NA 
HETATM   17  C   UNL     1     -10.640  15.418  65.364  1.00  0.00    -0.410 A  
HETATM   18  N   UNL     1     -10.671  16.764  65.017  1.00  0.00    -0.697 NA 
HETATM   19  H2  UNL     1      -9.963  17.242  65.576  1.00  0.00     0.000 HD 
HETATM   20  H1  UNL     1     -10.571  17.087  64.056  1.00  0.00     0.000 HD 
ENDBRANCH   3   5
TORSDOF 1
ENDMDL
MODEL       79
REMARK 921   NORMALIZED FREE ENERGY PREDICTED BY IDOCK:   -4.98 KCAL/MOL
REMARK 922        TOTAL FREE ENERGY PREDICTED BY IDOCK:   -5.51 KCAL/MOL
REMARK 923 INTER-LIGAND FREE ENERGY PREDICTED BY IDOCK:   -5.09 KCAL/MOL
REMARK 924 INTRA-LIGAND FREE ENERGY PREDICTED BY IDOCK:   -0.42 KCAL/MOL
REMARK 927      BINDING AFFINITY PREDICTED BY RF-SCORE:    0.00 PKD
ROOT
HETATM    1  C   UNL     1      -6.443  14.755  70.205  1.00  0.00    -0.145 C  
HETATM    2  C   UNL     1      -6.959  15.856  69.274  1.00  0.00    -0.198 C  
HETATM    3  C   UNL     1      -8.499  15.845  69.267  1.00  0.00    -0.242 C  
HETATM    4  C   UNL     1      -6.323  15.680  67.894  1.00  0.00    -0.165 C  
ENDROOT
BRANCH   3   5
HETATM    5  N   UNL     1      -9.105  16.866  68.435  1.00  0.00    -0.235 NA 
HETATM    6  C   UNL     1      -9.115  18.190  68.799  1.00  0.00    -0.224 A  
HETATM    7  N   UNL     1      -9.631  18.950  67.868  1.00  0.00    -0.306 NA 
HETATM    8  C   UNL     1     -10.016  18.078  66.870  1.00  0.00    -0.340 A  
HETATM    9  C   UNL     1      -9.749  16.747  67.220  1.00  0.00    -0.250 A  
HETATM   10  C   UNL     1     -10.135  15.686  66.351  1.00  0.00    -0.301 A  
HETATM   11  C   UNL     1      -9.932  14.306  66.598  1.00  0.00    -0.279 A  
HETATM   12  C   UNL     1     -10.373  13.350  65.687  1.00  0.00    -0.295 A  
HETATM   13  C   UNL     1     -11.021  13.752  64.527  1.00  0.00    -0.399 A  
HETATM   14  C   UNL     1     -11.215  15.113  64.279  1.00  0.00    -0.027 A  
HETATM   15  C   UNL     1     -10.785  16.094  65.159  1.00  0.00    -0.371 A  
HETATM   16  N   UNL     1     -11.012  17.373  64.820  1.00  0.00    -0.851 NA 
HETATM   17  C   UNL     1     -10.622  18.377  65.632  1.00  0.00    -0.103 A  
HETATM   18  N   UNL     1     -10.863  19.680  65.210  1.00  0.00    -0.361 NA 
HETATM   19  H2  UNL     1      -9.977  20.185  65.248  1.00  0.00     0.000 HD 
HETATM   20  H1  UNL     1     -11.301  19.896  64.315  1.00  0.00     0.000 HD 
ENDBRANCH   3   5
TORSDOF 1
ENDMDL
MODEL       80
REMARK 921   NORMALIZED FREE ENERGY PREDICTED BY IDOCK:   -4.98 KCAL/MOL
REMARK 922        TOTAL FREE ENERGY PREDICTED BY IDOCK:   -5.51 KCAL/MOL
REMARK 923 INTER-LIGAND FREE ENERGY PREDICTED BY IDOCK:   -5.21 KCAL/MOL
REMARK 924 INTRA-LIGAND FREE ENERGY PREDICTED BY IDOCK:   -0.29 KCAL/MOL
REMARK 927      BINDING AFFINITY PREDICTED BY RF-SCORE:    0.00 PKD
ROOT
HETATM    1  C   UNL     1      -8.313  10.059  66.551  1.00  0.00    -0.126 C  
HETATM    2  C   UNL     1      -9.283   9.213  67.380  1.00  0.00    -0.150 C  
HETATM    3  C   UNL     1      -8.562   8.681  68.634  1.00  0.00    -0.131 C  
HETATM    4  C   UNL     1      -9.880   8.122  66.489  1.00  0.00    -0.309 C  
ENDROOT
BRANCH   3   5
HETATM    5  N   UNL     1      -9.393   7.884  69.513  1.00  0.00    -0.156 NA 
HETATM    6  C   UNL     1      -9.199   6.534  69.673  1.00  0.00    -0.143 A  
HETATM    7  N   UNL     1      -9.998   6.027  70.575  1.00  0.00    -0.179 NA 
HETATM    8  C   UNL     1     -10.780   7.084  70.992  1.00  0.00    -0.233 A  
HETATM    9  C   UNL     1     -10.463   8.261  70.300  1.00  0.00    -0.218 A  
HETATM   10  C   UNL     1     -11.206   9.455  70.536  1.00  0.00    -0.329 A  
HETATM   11  C   UNL     1     -10.989  10.698  69.894  1.00  0.00    -0.337 A  
HETATM   12  C   UNL     1     -11.794  11.797  70.185  1.00  0.00    -0.408 A  
HETATM   13  C   UNL     1     -12.821  11.671  71.110  1.00  0.00    -0.392 A  
HETATM   14  C   UNL     1     -13.031  10.447  71.750  1.00  0.00    -0.580 A  
HETATM   15  C   UNL     1     -12.246   9.333  71.491  1.00  0.00    -0.362 A  
HETATM   16  N   UNL     1     -12.525   8.208  72.168  1.00  0.00    -0.327 NA 
HETATM   17  C   UNL     1     -11.804   7.087  71.962  1.00  0.00    -0.298 A  
HETATM   18  N   UNL     1     -12.127   5.964  72.715  1.00  0.00    -0.535 NA 
HETATM   19  H2  UNL     1     -11.272   5.642  73.171  1.00  0.00     0.000 HD 
HETATM   20  H1  UNL     1     -12.866   5.966  73.417  1.00  0.00     0.000 HD 
ENDBRANCH   3   5
TORSDOF 1
ENDMDL
MODEL       81
REMARK 921   NORMALIZED FREE ENERGY PREDICTED BY IDOCK:   -4.94 KCAL/MOL
REMARK 922        TOTAL FREE ENERGY PREDICTED BY IDOCK:   -5.47 KCAL/MOL
REMARK 923 INTER-LIGAND FREE ENERGY PREDICTED BY IDOCK:   -5.10 KCAL/MOL
REMARK 924 INTRA-LIGAND FREE ENERGY PREDICTED BY IDOCK:   -0.37 KCAL/MOL
REMARK 927      BINDING AFFINITY PREDICTED BY RF-SCORE:    0.00 PKD
ROOT
HETATM    1  C   UNL     1     -13.070  11.078  71.656  1.00  0.00    -0.543 C  
HETATM    2  C   UNL     1     -12.751   9.624  72.013  1.00  0.00    -0.470 C  
HETATM    3  C   UNL     1     -11.352   9.257  71.481  1.00  0.00    -0.385 C  
HETATM    4  C   UNL     1     -13.876   8.725  71.493  1.00  0.00    -0.391 C  
ENDROOT
BRANCH   3   5
HETATM    5  N   UNL     1     -10.929   7.904  71.783  1.00  0.00    -0.236 NA 
HETATM    6  C   UNL     1     -10.748   7.468  73.073  1.00  0.00    -0.384 A  
HETATM    7  N   UNL     1     -10.452   6.196  73.122  1.00  0.00    -0.222 NA 
HETATM    8  C   UNL     1     -10.393   5.792  71.804  1.00  0.00    -0.221 A  
HETATM    9  C   UNL     1     -10.634   6.860  70.929  1.00  0.00    -0.218 A  
HETATM   10  C   UNL     1     -10.553   6.665  69.520  1.00  0.00    -0.281 A  
HETATM   11  C   UNL     1     -10.763   7.664  68.539  1.00  0.00    -0.094 A  
HETATM   12  C   UNL     1     -10.632   7.368  67.184  1.00  0.00    -0.413 A  
HETATM   13  C   UNL     1     -10.289   6.081  66.793  1.00  0.00    -0.296 A  
HETATM   14  C   UNL     1     -10.089   5.092  67.759  1.00  0.00    -0.197 A  
HETATM   15  C   UNL     1     -10.216   5.349  69.116  1.00  0.00    -0.232 A  
HETATM   16  N   UNL     1     -10.014   4.326  69.961  1.00  0.00    -0.200 NA 
HETATM   17  C   UNL     1     -10.118   4.506  71.294  1.00  0.00    -0.155 A  
HETATM   18  N   UNL     1      -9.922   3.400  72.113  1.00  0.00    -0.165 NA 
HETATM   19  H2  UNL     1     -10.736   3.320  72.723  1.00  0.00     0.000 HD 
HETATM   20  H1  UNL     1      -9.723   2.471  71.744  1.00  0.00     0.000 HD 
ENDBRANCH   3   5
TORSDOF 1
ENDMDL
MODEL       82
REMARK 921   NORMALIZED FREE ENERGY PREDICTED BY IDOCK:   -4.90 KCAL/MOL
REMARK 922        TOTAL FREE ENERGY PREDICTED BY IDOCK:   -5.42 KCAL/MOL
REMARK 923 INTER-LIGAND FREE ENERGY PREDICTED BY IDOCK:   -5.00 KCAL/MOL
REMARK 924 INTRA-LIGAND FREE ENERGY PREDICTED BY IDOCK:   -0.42 KCAL/MOL
REMARK 927      BINDING AFFINITY PREDICTED BY RF-SCORE:    0.00 PKD
ROOT
HETATM    1  C   UNL     1     -10.098   4.735  71.689  1.00  0.00    -0.264 C  
HETATM    2  C   UNL     1     -10.248   6.257  71.767  1.00  0.00    -0.224 C  
HETATM    3  C   UNL     1     -11.442   6.703  70.901  1.00  0.00    -0.347 C  
HETATM    4  C   UNL     1      -8.917   6.909  71.385  1.00  0.00    -0.141 C  
ENDROOT
BRANCH   3   5
HETATM    5  N   UNL     1     -11.698   8.130  70.918  1.00  0.00    -0.273 NA 
HETATM    6  C   UNL     1     -12.312   8.747  71.979  1.00  0.00    -0.377 A  
HETATM    7  N   UNL     1     -12.364  10.045  71.828  1.00  0.00    -0.384 NA 
HETATM    8  C   UNL     1     -11.800  10.282  70.591  1.00  0.00    -0.347 A  
HETATM    9  C   UNL     1     -11.419   9.088  69.964  1.00  0.00     0.010 A  
HETATM   10  C   UNL     1     -10.875   9.111  68.646  1.00  0.00    -0.092 A  
HETATM   11  C   UNL     1     -10.466   7.976  67.906  1.00  0.00    -0.259 A  
HETATM   12  C   UNL     1      -9.970   8.113  66.611  1.00  0.00    -0.339 A  
HETATM   13  C   UNL     1      -9.881   9.375  66.041  1.00  0.00    -0.366 A  
HETATM   14  C   UNL     1     -10.277  10.497  66.773  1.00  0.00    -0.288 A  
HETATM   15  C   UNL     1     -10.770  10.400  68.065  1.00  0.00    -0.249 A  
HETATM   16  N   UNL     1     -11.112  11.541  68.684  1.00  0.00    -0.218 NA 
HETATM   17  C   UNL     1     -11.601  11.518  69.942  1.00  0.00    -0.308 A  
HETATM   18  N   UNL     1     -11.913  12.736  70.536  1.00  0.00    -0.532 NA 
HETATM   19  H2  UNL     1     -11.422  12.777  71.429  1.00  0.00     0.000 HD 
HETATM   20  H1  UNL     1     -11.769  13.630  70.066  1.00  0.00     0.000 HD 
ENDBRANCH   3   5
TORSDOF 1
ENDMDL
MODEL       83
REMARK 921   NORMALIZED FREE ENERGY PREDICTED BY IDOCK:   -4.87 KCAL/MOL
REMARK 922        TOTAL FREE ENERGY PREDICTED BY IDOCK:   -5.39 KCAL/MOL
REMARK 923 INTER-LIGAND FREE ENERGY PREDICTED BY IDOCK:   -5.09 KCAL/MOL
REMARK 924 INTRA-LIGAND FREE ENERGY PREDICTED BY IDOCK:   -0.30 KCAL/MOL
REMARK 927      BINDING AFFINITY PREDICTED BY RF-SCORE:    0.00 PKD
ROOT
HETATM    1  C   UNL     1     -11.576   7.345  72.664  1.00  0.00    -0.295 C  
HETATM    2  C   UNL     1     -10.913   8.364  71.733  1.00  0.00    -0.359 C  
HETATM    3  C   UNL     1     -11.494   8.219  70.313  1.00  0.00    -0.065 C  
HETATM    4  C   UNL     1      -9.394   8.195  71.810  1.00  0.00    -0.241 C  
ENDROOT
BRANCH   3   5
HETATM    5  N   UNL     1     -10.957   9.154  69.345  1.00  0.00    -0.152 NA 
HETATM    6  C   UNL     1     -10.133   8.752  68.323  1.00  0.00    -0.188 A  
HETATM    7  N   UNL     1      -9.836   9.737  67.516  1.00  0.00    -0.160 NA 
HETATM    8  C   UNL     1     -10.457  10.842  68.060  1.00  0.00    -0.191 A  
HETATM    9  C   UNL     1     -11.128  10.521  69.248  1.00  0.00    -0.246 A  
HETATM   10  C   UNL     1     -11.779  11.540  70.003  1.00  0.00    -0.414 A  
HETATM   11  C   UNL     1     -12.477  11.343  71.219  1.00  0.00    -0.423 A  
HETATM   12  C   UNL     1     -13.056  12.419  71.888  1.00  0.00    -0.471 A  
HETATM   13  C   UNL     1     -12.945  13.697  71.358  1.00  0.00    -0.427 A  
HETATM   14  C   UNL     1     -12.264  13.892  70.154  1.00  0.00    -0.425 A  
HETATM   15  C   UNL     1     -11.680  12.844  69.458  1.00  0.00    -0.323 A  
HETATM   16  N   UNL     1     -11.058  13.139  68.305  1.00  0.00    -0.253 NA 
HETATM   17  C   UNL     1     -10.466  12.168  67.579  1.00  0.00    -0.209 A  
HETATM   18  N   UNL     1      -9.861  12.535  66.382  1.00  0.00    -0.248 NA 
HETATM   19  H2  UNL     1     -10.246  11.940  65.648  1.00  0.00     0.000 HD 
HETATM   20  H1  UNL     1      -9.868  13.493  66.033  1.00  0.00     0.000 HD 
ENDBRANCH   3   5
TORSDOF 1
ENDMDL
MODEL       84
REMARK 921   NORMALIZED FREE ENERGY PREDICTED BY IDOCK:   -4.83 KCAL/MOL
REMARK 922        TOTAL FREE ENERGY PREDICTED BY IDOCK:   -5.35 KCAL/MOL
REMARK 923 INTER-LIGAND FREE ENERGY PREDICTED BY IDOCK:   -5.02 KCAL/MOL
REMARK 924 INTRA-LIGAND FREE ENERGY PREDICTED BY IDOCK:   -0.33 KCAL/MOL
REMARK 927      BINDING AFFINITY PREDICTED BY RF-SCORE:    0.00 PKD
ROOT
HETATM    1  C   UNL     1     -12.703  12.000  63.343  1.00  0.00    -0.527 C  
HETATM    2  C   UNL     1     -11.537  11.882  64.327  1.00  0.00    -0.405 C  
HETATM    3  C   UNL     1     -11.771  12.829  65.520  1.00  0.00    -0.395 C  
HETATM    4  C   UNL     1     -10.226  12.129  63.578  1.00  0.00    -0.453 C  
ENDROOT
BRANCH   3   5
HETATM    5  N   UNL     1     -10.738  12.785  66.535  1.00  0.00    -0.256 NA 
HETATM    6  C   UNL     1     -10.424  11.629  67.206  1.00  0.00    -0.216 A  
HETATM    7  N   UNL     1      -9.407  11.791  68.012  1.00  0.00    -0.178 NA 
HETATM    8  C   UNL     1      -9.070  13.124  67.897  1.00  0.00    -0.207 A  
HETATM    9  C   UNL     1      -9.927  13.795  67.014  1.00  0.00    -0.251 A  
HETATM   10  C   UNL     1      -9.789  15.199  66.808  1.00  0.00    -0.251 A  
HETATM   11  C   UNL     1     -10.597  15.988  65.954  1.00  0.00    -0.338 A  
HETATM   12  C   UNL     1     -10.388  17.361  65.847  1.00  0.00    -0.276 A  
HETATM   13  C   UNL     1      -9.380  17.962  66.587  1.00  0.00    -0.293 A  
HETATM   14  C   UNL     1      -8.576  17.183  67.424  1.00  0.00    -0.212 A  
HETATM   15  C   UNL     1      -8.751  15.814  67.552  1.00  0.00    -0.176 A  
HETATM   16  N   UNL     1      -7.918  15.158  68.375  1.00  0.00    -0.131 NA 
HETATM   17  C   UNL     1      -8.034  13.825  68.548  1.00  0.00    -0.131 A  
HETATM   18  N   UNL     1      -7.123  13.201  69.394  1.00  0.00    -0.321 NA 
HETATM   19  H2  UNL     1      -6.696  12.434  68.874  1.00  0.00     0.000 HD 
HETATM   20  H1  UNL     1      -6.374  13.708  69.864  1.00  0.00     0.000 HD 
ENDBRANCH   3   5
TORSDOF 1
ENDMDL
MODEL       85
REMARK 921   NORMALIZED FREE ENERGY PREDICTED BY IDOCK:   -4.76 KCAL/MOL
REMARK 922        TOTAL FREE ENERGY PREDICTED BY IDOCK:   -5.28 KCAL/MOL
REMARK 923 INTER-LIGAND FREE ENERGY PREDICTED BY IDOCK:   -4.88 KCAL/MOL
REMARK 924 INTRA-LIGAND FREE ENERGY PREDICTED BY IDOCK:   -0.40 KCAL/MOL
REMARK 927      BINDING AFFINITY PREDICTED BY RF-SCORE:    0.00 PKD
ROOT
HETATM    1  C   UNL     1     -10.437  14.284  66.404  1.00  0.00    -0.282 C  
HETATM    2  C   UNL     1      -9.897  12.893  66.745  1.00  0.00    -0.241 C  
HETATM    3  C   UNL     1     -11.069  11.901  66.870  1.00  0.00    -0.305 C  
HETATM    4  C   UNL     1      -9.022  12.991  67.997  1.00  0.00    -0.199 C  
ENDROOT
BRANCH   3   5
HETATM    5  N   UNL     1     -10.676  10.538  67.167  1.00  0.00    -0.268 NA 
HETATM    6  C   UNL     1     -10.010   9.757  66.255  1.00  0.00    -0.262 A  
HETATM    7  N   UNL     1      -9.674   8.597  66.757  1.00  0.00    -0.210 NA 
HETATM    8  C   UNL     1     -10.182   8.603  68.040  1.00  0.00    -0.210 A  
HETATM    9  C   UNL     1     -10.871   9.793  68.313  1.00  0.00    -0.210 A  
HETATM   10  C   UNL     1     -11.530   9.970  69.565  1.00  0.00    -0.176 A  
HETATM   11  C   UNL     1     -12.264  11.117  69.952  1.00  0.00    -0.385 A  
HETATM   12  C   UNL     1     -12.891  11.172  71.195  1.00  0.00    -0.473 A  
HETATM   13  C   UNL     1     -12.797  10.091  72.060  1.00  0.00    -0.484 A  
HETATM   14  C   UNL     1     -12.066   8.962  71.682  1.00  0.00    -0.415 A  
HETATM   15  C   UNL     1     -11.425   8.873  70.456  1.00  0.00    -0.200 A  
HETATM   16  N   UNL     1     -10.740   7.748  70.196  1.00  0.00    -0.238 NA 
HETATM   17  C   UNL     1     -10.095   7.594  69.021  1.00  0.00    -0.198 A  
HETATM   18  N   UNL     1      -9.383   6.416  68.825  1.00  0.00    -0.126 NA 
HETATM   19  H2  UNL     1      -8.431   6.672  68.562  1.00  0.00     0.000 HD 
HETATM   20  H1  UNL     1      -9.320   5.687  69.534  1.00  0.00     0.000 HD 
ENDBRANCH   3   5
TORSDOF 1
ENDMDL
MODEL       86
REMARK 921   NORMALIZED FREE ENERGY PREDICTED BY IDOCK:   -4.76 KCAL/MOL
REMARK 922        TOTAL FREE ENERGY PREDICTED BY IDOCK:   -5.28 KCAL/MOL
REMARK 923 INTER-LIGAND FREE ENERGY PREDICTED BY IDOCK:   -4.86 KCAL/MOL
REMARK 924 INTRA-LIGAND FREE ENERGY PREDICTED BY IDOCK:   -0.42 KCAL/MOL
REMARK 927      BINDING AFFINITY PREDICTED BY RF-SCORE:    0.00 PKD
ROOT
HETATM    1  C   UNL     1      -7.795   6.239  68.351  1.00  0.00    -0.105 C  
HETATM    2  C   UNL     1      -8.593   7.511  68.052  1.00  0.00    -0.122 C  
HETATM    3  C   UNL     1      -8.326   8.558  69.151  1.00  0.00    -0.120 C  
HETATM    4  C   UNL     1     -10.068   7.145  67.879  1.00  0.00    -0.211 C  
ENDROOT
BRANCH   3   5
HETATM    5  N   UNL     1      -9.012   9.820  68.960  1.00  0.00    -0.145 NA 
HETATM    6  C   UNL     1      -8.530  10.791  68.117  1.00  0.00    -0.125 A  
HETATM    7  N   UNL     1      -9.346  11.808  68.025  1.00  0.00    -0.178 NA 
HETATM    8  C   UNL     1     -10.386  11.510  68.881  1.00  0.00    -0.169 A  
HETATM    9  C   UNL     1     -10.180  10.286  69.532  1.00  0.00    -0.236 A  
HETATM   10  C   UNL     1     -11.109   9.827  70.510  1.00  0.00    -0.384 A  
HETATM   11  C   UNL     1     -11.005   8.619  71.240  1.00  0.00    -0.333 A  
HETATM   12  C   UNL     1     -11.962   8.281  72.194  1.00  0.00    -0.429 A  
HETATM   13  C   UNL     1     -13.026   9.139  72.433  1.00  0.00    -0.468 A  
HETATM   14  C   UNL     1     -13.135  10.328  71.708  1.00  0.00    -0.570 A  
HETATM   15  C   UNL     1     -12.205  10.695  70.747  1.00  0.00    -0.375 A  
HETATM   16  N   UNL     1     -12.408  11.853  70.099  1.00  0.00    -0.215 NA 
HETATM   17  C   UNL     1     -11.541  12.271  69.155  1.00  0.00    -0.318 A  
HETATM   18  N   UNL     1     -11.823  13.467  68.503  1.00  0.00    -0.353 NA 
HETATM   19  H2  UNL     1     -11.808  13.281  67.500  1.00  0.00     0.000 HD 
HETATM   20  H1  UNL     1     -12.658  14.017  68.701  1.00  0.00     0.000 HD 
ENDBRANCH   3   5
TORSDOF 1
ENDMDL
MODEL       87
REMARK 921   NORMALIZED FREE ENERGY PREDICTED BY IDOCK:   -4.76 KCAL/MOL
REMARK 922        TOTAL FREE ENERGY PREDICTED BY IDOCK:   -5.28 KCAL/MOL
REMARK 923 INTER-LIGAND FREE ENERGY PREDICTED BY IDOCK:   -4.96 KCAL/MOL
REMARK 924 INTRA-LIGAND FREE ENERGY PREDICTED BY IDOCK:   -0.31 KCAL/MOL
REMARK 927      BINDING AFFINITY PREDICTED BY RF-SCORE:    0.00 PKD
ROOT
HETATM    1  C   UNL     1     -10.125  18.230  66.784  1.00  0.00    -0.375 C  
HETATM    2  C   UNL     1      -9.374  16.930  66.482  1.00  0.00    -0.293 C  
HETATM    3  C   UNL     1      -9.659  15.901  67.593  1.00  0.00    -0.221 C  
HETATM    4  C   UNL     1      -7.890  17.246  66.284  1.00  0.00    -0.344 C  
ENDROOT
BRANCH   3   5
HETATM    5  N   UNL     1      -9.018  14.615  67.401  1.00  0.00    -0.185 NA 
HETATM    6  C   UNL     1      -7.906  14.241  68.114  1.00  0.00    -0.139 A  
HETATM    7  N   UNL     1      -7.545  13.013  67.850  1.00  0.00    -0.128 NA 
HETATM    8  C   UNL     1      -8.433  12.579  66.888  1.00  0.00    -0.130 A  
HETATM    9  C   UNL     1      -9.344  13.586  66.539  1.00  0.00    -0.215 A  
HETATM   10  C   UNL     1     -10.305  13.360  65.511  1.00  0.00    -0.302 A  
HETATM   11  C   UNL     1     -11.266  14.299  65.063  1.00  0.00    -0.364 A  
HETATM   12  C   UNL     1     -12.143  13.978  64.030  1.00  0.00    -0.413 A  
HETATM   13  C   UNL     1     -12.072  12.728  63.431  1.00  0.00    -0.619 A  
HETATM   14  C   UNL     1     -11.130  11.798  63.877  1.00  0.00    -0.482 A  
HETATM   15  C   UNL     1     -10.244  12.079  64.907  1.00  0.00    -0.270 A  
HETATM   16  N   UNL     1      -9.386  11.112  65.266  1.00  0.00    -0.220 NA 
HETATM   17  C   UNL     1      -8.495  11.319  66.257  1.00  0.00    -0.156 A  
HETATM   18  N   UNL     1      -7.651  10.268  66.598  1.00  0.00    -0.106 NA 
HETATM   19  H2  UNL     1      -7.742  10.113  67.603  1.00  0.00     0.000 HD 
HETATM   20  H1  UNL     1      -7.696   9.357  66.143  1.00  0.00     0.000 HD 
ENDBRANCH   3   5
TORSDOF 1
ENDMDL
MODEL       88
REMARK 921   NORMALIZED FREE ENERGY PREDICTED BY IDOCK:   -4.73 KCAL/MOL
REMARK 922        TOTAL FREE ENERGY PREDICTED BY IDOCK:   -5.25 KCAL/MOL
REMARK 923 INTER-LIGAND FREE ENERGY PREDICTED BY IDOCK:   -5.68 KCAL/MOL
REMARK 924 INTRA-LIGAND FREE ENERGY PREDICTED BY IDOCK:    0.43 KCAL/MOL
REMARK 927      BINDING AFFINITY PREDICTED BY RF-SCORE:    0.00 PKD
ROOT
HETATM    1  C   UNL     1     -12.981  15.172  71.248  1.00  0.00    -0.478 C  
HETATM    2  C   UNL     1     -12.532  14.420  69.993  1.00  0.00    -0.353 C  
HETATM    3  C   UNL     1     -12.211  12.957  70.355  1.00  0.00    -0.304 C  
HETATM    4  C   UNL     1     -11.367  15.176  69.348  1.00  0.00    -0.307 C  
ENDROOT
BRANCH   3   5
HETATM    5  N   UNL     1     -11.797  12.135  69.235  1.00  0.00    -0.318 NA 
HETATM    6  C   UNL     1     -11.728  12.629  67.956  1.00  0.00    -0.350 A  
HETATM    7  N   UNL     1     -11.249  11.749  67.117  1.00  0.00    -0.298 NA 
HETATM    8  C   UNL     1     -11.037  10.615  67.872  1.00  0.00    -0.308 A  
HETATM    9  C   UNL     1     -11.426  10.806  69.205  1.00  0.00    -0.298 A  
HETATM   10  C   UNL     1     -11.350   9.729  70.137  1.00  0.00    -0.305 A  
HETATM   11  C   UNL     1     -11.723   9.796  71.501  1.00  0.00    -0.450 A  
HETATM   12  C   UNL     1     -11.630   8.671  72.317  1.00  0.00    -0.424 A  
HETATM   13  C   UNL     1     -11.171   7.473  71.787  1.00  0.00    -0.281 A  
HETATM   14  C   UNL     1     -10.795   7.409  70.443  1.00  0.00    -0.258 A  
HETATM   15  C   UNL     1     -10.868   8.509  69.602  1.00  0.00    -0.151 A  
HETATM   16  N   UNL     1     -10.473   8.342  68.330  1.00  0.00    -0.193 NA 
HETATM   17  C   UNL     1     -10.520   9.370  67.457  1.00  0.00    -0.280 A  
HETATM   18  N   UNL     1     -10.072   9.138  66.161  1.00  0.00    -0.318 NA 
HETATM   19  H2  UNL     1      -9.371   9.848  65.947  1.00  0.00     0.000 HD 
HETATM   20  H1  UNL     1      -9.698   8.238  65.861  1.00  0.00     0.000 HD 
ENDBRANCH   3   5
TORSDOF 1
ENDMDL
MODEL       89
REMARK 921   NORMALIZED FREE ENERGY PREDICTED BY IDOCK:   -4.70 KCAL/MOL
REMARK 922        TOTAL FREE ENERGY PREDICTED BY IDOCK:   -5.21 KCAL/MOL
REMARK 923 INTER-LIGAND FREE ENERGY PREDICTED BY IDOCK:   -4.89 KCAL/MOL
REMARK 924 INTRA-LIGAND FREE ENERGY PREDICTED BY IDOCK:   -0.31 KCAL/MOL
REMARK 927      BINDING AFFINITY PREDICTED BY RF-SCORE:    0.00 PKD
ROOT
HETATM    1  C   UNL     1     -10.579   7.030  72.985  1.00  0.00    -0.323 C  
HETATM    2  C   UNL     1     -11.190   7.761  71.786  1.00  0.00    -0.298 C  
HETATM    3  C   UNL     1     -10.551   9.156  71.653  1.00  0.00    -0.357 C  
HETATM    4  C   UNL     1     -12.713   7.780  71.937  1.00  0.00    -0.328 C  
ENDROOT
BRANCH   3   5
HETATM    5  N   UNL     1     -11.035   9.936  70.531  1.00  0.00    -0.305 NA 
HETATM    6  C   UNL     1     -11.904  10.986  70.694  1.00  0.00    -0.333 A  
HETATM    7  N   UNL     1     -12.142  11.605  69.568  1.00  0.00    -0.295 NA 
HETATM    8  C   UNL     1     -11.432  10.900  68.618  1.00  0.00    -0.311 A  
HETATM    9  C   UNL     1     -10.765   9.805  69.183  1.00  0.00    -0.221 A  
HETATM   10  C   UNL     1     -10.028   8.908  68.355  1.00  0.00    -0.198 A  
HETATM   11  C   UNL     1      -9.325   7.765  68.806  1.00  0.00    -0.146 A  
HETATM   12  C   UNL     1      -8.657   6.941  67.902  1.00  0.00    -0.122 A  
HETATM   13  C   UNL     1      -8.683   7.243  66.548  1.00  0.00    -0.141 A  
HETATM   14  C   UNL     1      -9.370   8.376  66.104  1.00  0.00    -0.267 A  
HETATM   15  C   UNL     1     -10.041   9.222  66.973  1.00  0.00    -0.247 A  
HETATM   16  N   UNL     1     -10.661  10.289  66.444  1.00  0.00    -0.155 NA 
HETATM   17  C   UNL     1     -11.335  11.150  67.233  1.00  0.00    -0.226 A  
HETATM   18  N   UNL     1     -11.933  12.249  66.626  1.00  0.00    -0.622 NA 
HETATM   19  H2  UNL     1     -11.606  13.085  67.112  1.00  0.00     0.000 HD 
HETATM   20  H1  UNL     1     -11.862  12.431  65.625  1.00  0.00     0.000 HD 
ENDBRANCH   3   5
TORSDOF 1
ENDMDL
MODEL       90
REMARK 921   NORMALIZED FREE ENERGY PREDICTED BY IDOCK:   -4.69 KCAL/MOL
REMARK 922        TOTAL FREE ENERGY PREDICTED BY IDOCK:   -5.20 KCAL/MOL
REMARK 923 INTER-LIGAND FREE ENERGY PREDICTED BY IDOCK:   -4.80 KCAL/MOL
REMARK 924 INTRA-LIGAND FREE ENERGY PREDICTED BY IDOCK:   -0.41 KCAL/MOL
REMARK 927      BINDING AFFINITY PREDICTED BY RF-SCORE:    0.00 PKD
ROOT
HETATM    1  C   UNL     1      -7.129  15.172  69.589  1.00  0.00    -0.193 C  
HETATM    2  C   UNL     1      -7.596  14.797  68.180  1.00  0.00    -0.121 C  
HETATM    3  C   UNL     1      -9.093  14.433  68.212  1.00  0.00    -0.193 C  
HETATM    4  C   UNL     1      -6.693  13.689  67.634  1.00  0.00    -0.185 C  
ENDROOT
BRANCH   3   5
HETATM    5  N   UNL     1      -9.656  14.083  66.923  1.00  0.00    -0.262 NA 
HETATM    6  C   UNL     1     -10.089  15.036  66.035  1.00  0.00    -0.301 A  
HETATM    7  N   UNL     1     -10.477  14.510  64.903  1.00  0.00    -0.431 NA 
HETATM    8  C   UNL     1     -10.332  13.149  65.075  1.00  0.00    -0.330 A  
HETATM    9  C   UNL     1      -9.869  12.840  66.361  1.00  0.00    -0.269 A  
HETATM   10  C   UNL     1      -9.717  11.481  66.762  1.00  0.00    -0.220 A  
HETATM   11  C   UNL     1      -9.269  11.045  68.033  1.00  0.00    -0.159 A  
HETATM   12  C   UNL     1      -9.182   9.686  68.326  1.00  0.00    -0.131 A  
HETATM   13  C   UNL     1      -9.540   8.751  67.365  1.00  0.00    -0.206 A  
HETATM   14  C   UNL     1      -9.974   9.180  66.108  1.00  0.00    -0.338 A  
HETATM   15  C   UNL     1     -10.068  10.524  65.778  1.00  0.00    -0.265 A  
HETATM   16  N   UNL     1     -10.486  10.829  64.539  1.00  0.00    -0.339 NA 
HETATM   17  C   UNL     1     -10.603  12.116  64.153  1.00  0.00    -0.365 A  
HETATM   18  N   UNL     1     -11.016  12.364  62.849  1.00  0.00    -0.491 NA 
HETATM   19  H2  UNL     1     -10.328  12.984  62.421  1.00  0.00     0.000 HD 
HETATM   20  H1  UNL     1     -11.212  11.617  62.182  1.00  0.00     0.000 HD 
ENDBRANCH   3   5
TORSDOF 1
ENDMDL
MODEL       91
REMARK 921   NORMALIZED FREE ENERGY PREDICTED BY IDOCK:   -4.65 KCAL/MOL
REMARK 922        TOTAL FREE ENERGY PREDICTED BY IDOCK:   -5.16 KCAL/MOL
REMARK 923 INTER-LIGAND FREE ENERGY PREDICTED BY IDOCK:   -4.85 KCAL/MOL
REMARK 924 INTRA-LIGAND FREE ENERGY PREDICTED BY IDOCK:   -0.30 KCAL/MOL
REMARK 927      BINDING AFFINITY PREDICTED BY RF-SCORE:    0.00 PKD
ROOT
HETATM    1  C   UNL     1      -8.850  15.118  69.261  1.00  0.00    -0.207 C  
HETATM    2  C   UNL     1      -8.568  14.226  68.050  1.00  0.00    -0.169 C  
HETATM    3  C   UNL     1      -9.020  12.785  68.354  1.00  0.00    -0.120 C  
HETATM    4  C   UNL     1      -7.090  14.353  67.671  1.00  0.00    -0.202 C  
ENDROOT
BRANCH   3   5
HETATM    5  N   UNL     1      -8.824  11.849  67.264  1.00  0.00    -0.172 NA 
HETATM    6  C   UNL     1      -7.873  10.860  67.315  1.00  0.00    -0.116 A  
HETATM    7  N   UNL     1      -7.926  10.076  66.270  1.00  0.00    -0.108 NA 
HETATM    8  C   UNL     1      -8.926  10.604  65.479  1.00  0.00    -0.191 A  
HETATM    9  C   UNL     1      -9.477  11.758  66.051  1.00  0.00    -0.230 A  
HETATM   10  C   UNL     1     -10.482  12.493  65.356  1.00  0.00    -0.308 A  
HETATM   11  C   UNL     1     -11.105  13.676  65.823  1.00  0.00    -0.292 A  
HETATM   12  C   UNL     1     -12.060  14.329  65.047  1.00  0.00    -0.428 A  
HETATM   13  C   UNL     1     -12.402  13.816  63.804  1.00  0.00    -0.313 A  
HETATM   14  C   UNL     1     -11.794  12.645  63.346  1.00  0.00    -0.594 A  
HETATM   15  C   UNL     1     -10.843  11.965  64.092  1.00  0.00    -0.356 A  
HETATM   16  N   UNL     1     -10.328  10.843  63.564  1.00  0.00    -0.333 NA 
HETATM   17  C   UNL     1      -9.397  10.135  64.235  1.00  0.00    -0.295 A  
HETATM   18  N   UNL     1      -8.924   8.968  63.645  1.00  0.00    -0.418 NA 
HETATM   19  H2  UNL     1      -9.038   8.213  64.321  1.00  0.00     0.000 HD 
HETATM   20  H1  UNL     1      -9.265   8.629  62.746  1.00  0.00     0.000 HD 
ENDBRANCH   3   5
TORSDOF 1
ENDMDL
MODEL       92
REMARK 921   NORMALIZED FREE ENERGY PREDICTED BY IDOCK:   -4.63 KCAL/MOL
REMARK 922        TOTAL FREE ENERGY PREDICTED BY IDOCK:   -5.14 KCAL/MOL
REMARK 923 INTER-LIGAND FREE ENERGY PREDICTED BY IDOCK:   -4.72 KCAL/MOL
REMARK 924 INTRA-LIGAND FREE ENERGY PREDICTED BY IDOCK:   -0.42 KCAL/MOL
REMARK 927      BINDING AFFINITY PREDICTED BY RF-SCORE:    0.00 PKD
ROOT
HETATM    1  C   UNL     1      -9.236   4.034  71.558  1.00  0.00    -0.190 C  
HETATM    2  C   UNL     1      -9.199   5.225  70.596  1.00  0.00    -0.187 C  
HETATM    3  C   UNL     1      -8.894   6.514  71.382  1.00  0.00    -0.137 C  
HETATM    4  C   UNL     1     -10.508   5.266  69.804  1.00  0.00    -0.340 C  
ENDROOT
BRANCH   3   5
HETATM    5  N   UNL     1      -8.809   7.710  70.568  1.00  0.00    -0.148 NA 
HETATM    6  C   UNL     1      -7.725   7.971  69.768  1.00  0.00    -0.101 A  
HETATM    7  N   UNL     1      -7.892   9.054  69.054  1.00  0.00    -0.089 NA 
HETATM    8  C   UNL     1      -9.121   9.548  69.439  1.00  0.00    -0.168 A  
HETATM    9  C   UNL     1      -9.704   8.753  70.435  1.00  0.00    -0.180 A  
HETATM   10  C   UNL     1     -10.949   9.132  71.017  1.00  0.00    -0.375 A  
HETATM   11  C   UNL     1     -11.630   8.421  72.035  1.00  0.00    -0.418 A  
HETATM   12  C   UNL     1     -12.833   8.897  72.550  1.00  0.00    -0.401 A  
HETATM   13  C   UNL     1     -13.368  10.081  72.063  1.00  0.00    -0.513 A  
HETATM   14  C   UNL     1     -12.702  10.779  71.052  1.00  0.00    -0.513 A  
HETATM   15  C   UNL     1     -11.506  10.333  70.512  1.00  0.00    -0.343 A  
HETATM   16  N   UNL     1     -10.953  11.073  69.538  1.00  0.00    -0.250 NA 
HETATM   17  C   UNL     1      -9.788  10.699  68.970  1.00  0.00    -0.205 A  
HETATM   18  N   UNL     1      -9.282  11.495  67.948  1.00  0.00    -0.162 NA 
HETATM   19  H2  UNL     1      -9.110  10.891  67.144  1.00  0.00     0.000 HD 
HETATM   20  H1  UNL     1      -9.764  12.327  67.609  1.00  0.00     0.000 HD 
ENDBRANCH   3   5
TORSDOF 1
ENDMDL
MODEL       93
REMARK 921   NORMALIZED FREE ENERGY PREDICTED BY IDOCK:   -4.61 KCAL/MOL
REMARK 922        TOTAL FREE ENERGY PREDICTED BY IDOCK:   -5.12 KCAL/MOL
REMARK 923 INTER-LIGAND FREE ENERGY PREDICTED BY IDOCK:   -4.72 KCAL/MOL
REMARK 924 INTRA-LIGAND FREE ENERGY PREDICTED BY IDOCK:   -0.40 KCAL/MOL
REMARK 927      BINDING AFFINITY PREDICTED BY RF-SCORE:    0.00 PKD
ROOT
HETATM    1  C   UNL     1     -10.829   7.741  73.097  1.00  0.00    -0.401 C  
HETATM    2  C   UNL     1     -10.633   7.543  71.591  1.00  0.00    -0.232 C  
HETATM    3  C   UNL     1      -9.692   8.635  71.045  1.00  0.00    -0.210 C  
HETATM    4  C   UNL     1     -12.003   7.497  70.912  1.00  0.00    -0.278 C  
ENDROOT
BRANCH   3   5
HETATM    5  N   UNL     1      -9.411   8.533  69.627  1.00  0.00    -0.164 NA 
HETATM    6  C   UNL     1      -8.636   7.526  69.108  1.00  0.00    -0.136 A  
HETATM    7  N   UNL     1      -8.584   7.571  67.803  1.00  0.00    -0.121 NA 
HETATM    8  C   UNL     1      -9.320   8.684  67.455  1.00  0.00    -0.144 A  
HETATM    9  C   UNL     1      -9.812   9.349  68.587  1.00  0.00    -0.163 A  
HETATM   10  C   UNL     1     -10.543  10.564  68.445  1.00  0.00    -0.230 A  
HETATM   11  C   UNL     1     -11.078  11.330  69.509  1.00  0.00    -0.299 A  
HETATM   12  C   UNL     1     -11.757  12.519  69.255  1.00  0.00    -0.379 A  
HETATM   13  C   UNL     1     -11.908  12.959  67.948  1.00  0.00    -0.388 A  
HETATM   14  C   UNL     1     -11.388  12.200  66.897  1.00  0.00    -0.402 A  
HETATM   15  C   UNL     1     -10.711  11.008  67.110  1.00  0.00    -0.265 A  
HETATM   16  N   UNL     1     -10.260  10.351  66.030  1.00  0.00    -0.243 NA 
HETATM   17  C   UNL     1      -9.591   9.188  66.165  1.00  0.00    -0.266 A  
HETATM   18  N   UNL     1      -9.173   8.544  65.006  1.00  0.00    -0.395 NA 
HETATM   19  H2  UNL     1      -9.525   7.586  65.042  1.00  0.00     0.000 HD 
HETATM   20  H1  UNL     1      -9.369   8.907  64.074  1.00  0.00     0.000 HD 
ENDBRANCH   3   5
TORSDOF 1
ENDMDL
MODEL       94
REMARK 921   NORMALIZED FREE ENERGY PREDICTED BY IDOCK:   -4.61 KCAL/MOL
REMARK 922        TOTAL FREE ENERGY PREDICTED BY IDOCK:   -5.11 KCAL/MOL
REMARK 923 INTER-LIGAND FREE ENERGY PREDICTED BY IDOCK:   -4.80 KCAL/MOL
REMARK 924 INTRA-LIGAND FREE ENERGY PREDICTED BY IDOCK:   -0.31 KCAL/MOL
REMARK 927      BINDING AFFINITY PREDICTED BY RF-SCORE:    0.00 PKD
ROOT
HETATM    1  C   UNL     1      -9.600  12.614  67.129  1.00  0.00    -0.207 C  
HETATM    2  C   UNL     1     -10.005  11.188  67.513  1.00  0.00    -0.204 C  
HETATM    3  C   UNL     1      -9.026  10.642  68.570  1.00  0.00    -0.156 C  
HETATM    4  C   UNL     1     -10.098  10.338  66.244  1.00  0.00    -0.300 C  
ENDROOT
BRANCH   3   5
HETATM    5  N   UNL     1      -9.326   9.301  69.032  1.00  0.00    -0.149 NA 
HETATM    6  C   UNL     1      -8.610   8.208  68.609  1.00  0.00    -0.127 A  
HETATM    7  N   UNL     1      -8.986   7.112  69.214  1.00  0.00    -0.139 NA 
HETATM    8  C   UNL     1     -10.025   7.498  70.036  1.00  0.00    -0.186 A  
HETATM    9  C   UNL     1     -10.304   8.865  69.904  1.00  0.00    -0.206 A  
HETATM   10  C   UNL     1     -11.389   9.449  70.619  1.00  0.00    -0.352 A  
HETATM   11  C   UNL     1     -11.775  10.810  70.560  1.00  0.00    -0.449 A  
HETATM   12  C   UNL     1     -12.872  11.269  71.285  1.00  0.00    -0.491 A  
HETATM   13  C   UNL     1     -13.595  10.383  72.071  1.00  0.00    -0.257 A  
HETATM   14  C   UNL     1     -13.211   9.041  72.137  1.00  0.00    -0.504 A  
HETATM   15  C   UNL     1     -12.122   8.550  71.434  1.00  0.00    -0.303 A  
HETATM   16  N   UNL     1     -11.831   7.247  71.575  1.00  0.00    -0.288 NA 
HETATM   17  C   UNL     1     -10.787   6.702  70.917  1.00  0.00    -0.252 A  
HETATM   18  N   UNL     1     -10.524   5.353  71.127  1.00  0.00    -0.233 NA 
HETATM   19  H2  UNL     1      -9.546   5.270  71.406  1.00  0.00     0.000 HD 
HETATM   20  H1  UNL     1     -11.074   4.778  71.764  1.00  0.00     0.000 HD 
ENDBRANCH   3   5
TORSDOF 1
ENDMDL
MODEL       95
REMARK 921   NORMALIZED FREE ENERGY PREDICTED BY IDOCK:   -4.59 KCAL/MOL
REMARK 922        TOTAL FREE ENERGY PREDICTED BY IDOCK:   -5.10 KCAL/MOL
REMARK 923 INTER-LIGAND FREE ENERGY PREDICTED BY IDOCK:   -4.86 KCAL/MOL
REMARK 924 INTRA-LIGAND FREE ENERGY PREDICTED BY IDOCK:   -0.24 KCAL/MOL
REMARK 927      BINDING AFFINITY PREDICTED BY RF-SCORE:    0.00 PKD
ROOT
HETATM    1  C   UNL     1     -11.573  15.539  69.073  1.00  0.00    -0.377 C  
HETATM    2  C   UNL     1     -10.640  16.256  68.094  1.00  0.00    -0.307 C  
HETATM    3  C   UNL     1     -10.848  17.779  68.205  1.00  0.00    -0.183 C  
HETATM    4  C   UNL     1     -10.864  15.693  66.689  1.00  0.00    -0.266 C  
ENDROOT
BRANCH   3   5
HETATM    5  N   UNL     1      -9.996  18.568  67.338  1.00  0.00    -0.316 NA 
HETATM    6  C   UNL     1     -10.505  19.349  66.330  1.00  0.00    -0.493 A  
HETATM    7  N   UNL     1      -9.574  20.043  65.730  1.00  0.00    -0.288 NA 
HETATM    8  C   UNL     1      -8.398  19.665  66.343  1.00  0.00    -0.353 A  
HETATM    9  C   UNL     1      -8.621  18.692  67.327  1.00  0.00    -0.266 A  
HETATM   10  C   UNL     1      -7.523  18.120  68.032  1.00  0.00    -0.242 A  
HETATM   11  C   UNL     1      -7.619  17.125  69.035  1.00  0.00    -0.187 A  
HETATM   12  C   UNL     1      -6.474  16.617  69.643  1.00  0.00    -0.195 A  
HETATM   13  C   UNL     1      -5.226  17.088  69.260  1.00  0.00    -0.135 A  
HETATM   14  C   UNL     1      -5.130  18.075  68.276  1.00  0.00    -0.156 A  
HETATM   15  C   UNL     1      -6.248  18.609  67.653  1.00  0.00    -0.191 A  
HETATM   16  N   UNL     1      -6.045  19.560  66.728  1.00  0.00    -0.176 NA 
HETATM   17  C   UNL     1      -7.088  20.120  66.081  1.00  0.00    -0.276 A  
HETATM   18  N   UNL     1      -6.813  21.118  65.153  1.00  0.00    -0.451 NA 
HETATM   19  H2  UNL     1      -7.376  21.932  65.401  1.00  0.00     0.000 HD 
HETATM   20  H1  UNL     1      -5.866  21.447  64.964  1.00  0.00     0.000 HD 
ENDBRANCH   3   5
TORSDOF 1
ENDMDL
MODEL       96
REMARK 921   NORMALIZED FREE ENERGY PREDICTED BY IDOCK:   -4.53 KCAL/MOL
REMARK 922        TOTAL FREE ENERGY PREDICTED BY IDOCK:   -5.04 KCAL/MOL
REMARK 923 INTER-LIGAND FREE ENERGY PREDICTED BY IDOCK:   -4.72 KCAL/MOL
REMARK 924 INTRA-LIGAND FREE ENERGY PREDICTED BY IDOCK:   -0.32 KCAL/MOL
REMARK 927      BINDING AFFINITY PREDICTED BY RF-SCORE:    0.00 PKD
ROOT
HETATM    1  C   UNL     1      -9.437  19.500  68.596  1.00  0.00    -0.462 C  
HETATM    2  C   UNL     1     -10.189  18.227  68.198  1.00  0.00    -0.406 C  
HETATM    3  C   UNL     1      -9.643  17.033  69.004  1.00  0.00    -0.197 C  
HETATM    4  C   UNL     1     -10.102  18.052  66.680  1.00  0.00    -0.372 C  
ENDROOT
BRANCH   3   5
HETATM    5  N   UNL     1     -10.299  15.770  68.727  1.00  0.00    -0.213 NA 
HETATM    6  C   UNL     1     -11.652  15.602  68.888  1.00  0.00    -0.383 A  
HETATM    7  N   UNL     1     -12.048  14.418  68.500  1.00  0.00    -0.290 NA 
HETATM    8  C   UNL     1     -10.896  13.767  68.111  1.00  0.00    -0.246 A  
HETATM    9  C   UNL     1      -9.764  14.573  68.294  1.00  0.00    -0.218 A  
HETATM   10  C   UNL     1      -8.464  14.060  68.015  1.00  0.00    -0.171 A  
HETATM   11  C   UNL     1      -7.249  14.770  68.170  1.00  0.00    -0.125 A  
HETATM   12  C   UNL     1      -6.029  14.159  67.890  1.00  0.00    -0.143 A  
HETATM   13  C   UNL     1      -6.004  12.841  67.457  1.00  0.00    -0.143 A  
HETATM   14  C   UNL     1      -7.203  12.142  67.294  1.00  0.00    -0.144 A  
HETATM   15  C   UNL     1      -8.436  12.718  67.558  1.00  0.00    -0.181 A  
HETATM   16  N   UNL     1      -9.528  11.962  67.360  1.00  0.00    -0.173 NA 
HETATM   17  C   UNL     1     -10.758  12.460  67.600  1.00  0.00    -0.221 A  
HETATM   18  N   UNL     1     -11.849  11.634  67.349  1.00  0.00    -0.630 NA 
HETATM   19  H2  UNL     1     -12.482  12.140  66.730  1.00  0.00     0.000 HD 
HETATM   20  H1  UNL     1     -11.750  10.689  66.980  1.00  0.00     0.000 HD 
ENDBRANCH   3   5
TORSDOF 1
ENDMDL
MODEL       97
REMARK 921   NORMALIZED FREE ENERGY PREDICTED BY IDOCK:   -4.53 KCAL/MOL
REMARK 922        TOTAL FREE ENERGY PREDICTED BY IDOCK:   -5.04 KCAL/MOL
REMARK 923 INTER-LIGAND FREE ENERGY PREDICTED BY IDOCK:   -4.62 KCAL/MOL
REMARK 924 INTRA-LIGAND FREE ENERGY PREDICTED BY IDOCK:   -0.42 KCAL/MOL
REMARK 927      BINDING AFFINITY PREDICTED BY RF-SCORE:    0.00 PKD
ROOT
HETATM    1  C   UNL     1     -10.298   5.610  74.104  1.00  0.00    -0.299 C  
HETATM    2  C   UNL     1     -10.682   5.354  72.644  1.00  0.00    -0.288 C  
HETATM    3  C   UNL     1      -9.491   5.696  71.730  1.00  0.00    -0.149 C  
HETATM    4  C   UNL     1     -11.963   6.128  72.323  1.00  0.00    -0.285 C  
ENDROOT
BRANCH   3   5
HETATM    5  N   UNL     1      -9.730   5.469  70.319  1.00  0.00    -0.172 NA 
HETATM    6  C   UNL     1      -9.635   4.220  69.756  1.00  0.00    -0.209 A  
HETATM    7  N   UNL     1      -9.976   4.224  68.494  1.00  0.00    -0.031 NA 
HETATM    8  C   UNL     1     -10.263   5.542  68.207  1.00  0.00    -0.178 A  
HETATM    9  C   UNL     1     -10.063   6.366  69.323  1.00  0.00    -0.172 A  
HETATM   10  C   UNL     1     -10.241   7.776  69.216  1.00  0.00    -0.211 A  
HETATM   11  C   UNL     1     -10.059   8.709  70.265  1.00  0.00    -0.206 A  
HETATM   12  C   UNL     1     -10.236  10.072  70.041  1.00  0.00    -0.306 A  
HETATM   13  C   UNL     1     -10.591  10.520  68.777  1.00  0.00    -0.233 A  
HETATM   14  C   UNL     1     -10.779   9.600  67.742  1.00  0.00    -0.316 A  
HETATM   15  C   UNL     1     -10.617   8.235  67.929  1.00  0.00    -0.147 A  
HETATM   16  N   UNL     1     -10.832   7.436  66.872  1.00  0.00    -0.293 NA 
HETATM   17  C   UNL     1     -10.689   6.099  66.983  1.00  0.00    -0.350 A  
HETATM   18  N   UNL     1     -10.952   5.326  65.858  1.00  0.00    -0.769 NA 
HETATM   19  H2  UNL     1     -11.633   4.615  66.126  1.00  0.00     0.000 HD 
HETATM   20  H1  UNL     1     -11.261   5.728  64.974  1.00  0.00     0.000 HD 
ENDBRANCH   3   5
TORSDOF 1
ENDMDL
MODEL       98
REMARK 921   NORMALIZED FREE ENERGY PREDICTED BY IDOCK:   -4.49 KCAL/MOL
REMARK 922        TOTAL FREE ENERGY PREDICTED BY IDOCK:   -4.99 KCAL/MOL
REMARK 923 INTER-LIGAND FREE ENERGY PREDICTED BY IDOCK:   -5.61 KCAL/MOL
REMARK 924 INTRA-LIGAND FREE ENERGY PREDICTED BY IDOCK:    0.62 KCAL/MOL
REMARK 927      BINDING AFFINITY PREDICTED BY RF-SCORE:    0.00 PKD
ROOT
HETATM    1  C   UNL     1      -7.113  19.990  65.093  1.00  0.00    -0.171 C  
HETATM    2  C   UNL     1      -7.642  19.464  66.430  1.00  0.00    -0.283 C  
HETATM    3  C   UNL     1      -8.991  18.754  66.208  1.00  0.00    -0.236 C  
HETATM    4  C   UNL     1      -7.698  20.619  67.433  1.00  0.00    -0.355 C  
ENDROOT
BRANCH   3   5
HETATM    5  N   UNL     1      -9.579  18.190  67.406  1.00  0.00    -0.271 NA 
HETATM    6  C   UNL     1      -9.452  18.793  68.633  1.00  0.00    -0.368 A  
HETATM    7  N   UNL     1     -10.131  18.167  69.559  1.00  0.00     0.042 NA 
HETATM    8  C   UNL     1     -10.689  17.080  68.918  1.00  0.00    -0.300 A  
HETATM    9  C   UNL     1     -10.315  17.033  67.568  1.00  0.00    -0.329 A  
HETATM   10  C   UNL     1     -10.734  15.947  66.745  1.00  0.00    -0.281 A  
HETATM   11  C   UNL     1     -10.412  15.782  65.376  1.00  0.00    -0.438 A  
HETATM   12  C   UNL     1     -10.856  14.665  64.672  1.00  0.00    -0.332 A  
HETATM   13  C   UNL     1     -11.618  13.703  65.320  1.00  0.00    -0.334 A  
HETATM   14  C   UNL     1     -11.943  13.869  66.669  1.00  0.00    -0.474 A  
HETATM   15  C   UNL     1     -11.524  14.970  67.400  1.00  0.00    -0.317 A  
HETATM   16  N   UNL     1     -11.900  15.037  68.687  1.00  0.00    -0.320 NA 
HETATM   17  C   UNL     1     -11.525  16.080  69.457  1.00  0.00    -0.326 A  
HETATM   18  N   UNL     1     -11.969  16.103  70.774  1.00  0.00    -0.513 NA 
HETATM   19  H2  UNL     1     -12.428  17.002  70.928  1.00  0.00     0.000 HD 
HETATM   20  H1  UNL     1     -12.573  15.380  71.163  1.00  0.00     0.000 HD 
ENDBRANCH   3   5
TORSDOF 1
ENDMDL
MODEL       99
REMARK 921   NORMALIZED FREE ENERGY PREDICTED BY IDOCK:   -4.47 KCAL/MOL
REMARK 922        TOTAL FREE ENERGY PREDICTED BY IDOCK:   -4.97 KCAL/MOL
REMARK 923 INTER-LIGAND FREE ENERGY PREDICTED BY IDOCK:   -4.68 KCAL/MOL
REMARK 924 INTRA-LIGAND FREE ENERGY PREDICTED BY IDOCK:   -0.29 KCAL/MOL
REMARK 927      BINDING AFFINITY PREDICTED BY RF-SCORE:    0.00 PKD
ROOT
HETATM    1  C   UNL     1      -7.590  19.042  68.310  1.00  0.00    -0.331 C  
HETATM    2  C   UNL     1      -8.551  17.892  67.994  1.00  0.00    -0.256 C  
HETATM    3  C   UNL     1      -8.499  17.576  66.487  1.00  0.00    -0.268 C  
HETATM    4  C   UNL     1      -9.945  18.253  68.512  1.00  0.00    -0.413 C  
ENDROOT
BRANCH   3   5
HETATM    5  N   UNL     1      -9.353  16.482  66.072  1.00  0.00    -0.434 NA 
HETATM    6  C   UNL     1     -10.462  16.682  65.287  1.00  0.00    -0.173 A  
HETATM    7  N   UNL     1     -11.038  15.555  64.957  1.00  0.00    -0.404 NA 
HETATM    8  C   UNL     1     -10.299  14.578  65.591  1.00  0.00    -0.349 A  
HETATM    9  C   UNL     1      -9.259  15.133  66.350  1.00  0.00    -0.300 A  
HETATM   10  C   UNL     1      -8.419  14.293  67.138  1.00  0.00    -0.220 A  
HETATM   11  C   UNL     1      -7.348  14.735  67.952  1.00  0.00    -0.162 A  
HETATM   12  C   UNL     1      -6.605  13.826  68.702  1.00  0.00    -0.096 A  
HETATM   13  C   UNL     1      -6.920  12.475  68.653  1.00  0.00    -0.091 A  
HETATM   14  C   UNL     1      -7.971  12.037  67.843  1.00  0.00    -0.147 A  
HETATM   15  C   UNL     1      -8.729  12.912  67.079  1.00  0.00    -0.195 A  
HETATM   16  N   UNL     1      -9.709  12.387  66.327  1.00  0.00    -0.243 NA 
HETATM   17  C   UNL     1     -10.486  13.181  65.562  1.00  0.00    -0.288 A  
HETATM   18  N   UNL     1     -11.467  12.572  64.788  1.00  0.00    -0.312 NA 
HETATM   19  H2  UNL     1     -11.337  12.884  63.825  1.00  0.00     0.000 HD 
HETATM   20  H1  UNL     1     -11.603  11.561  64.767  1.00  0.00     0.000 HD 
ENDBRANCH   3   5
TORSDOF 1
ENDMDL
MODEL      100
REMARK 921   NORMALIZED FREE ENERGY PREDICTED BY IDOCK:   -4.47 KCAL/MOL
REMARK 922        TOTAL FREE ENERGY PREDICTED BY IDOCK:   -4.96 KCAL/MOL
REMARK 923 INTER-LIGAND FREE ENERGY PREDICTED BY IDOCK:   -4.65 KCAL/MOL
REMARK 924 INTRA-LIGAND FREE ENERGY PREDICTED BY IDOCK:   -0.31 KCAL/MOL
REMARK 927      BINDING AFFINITY PREDICTED BY RF-SCORE:    0.00 PKD
ROOT
HETATM    1  C   UNL     1     -10.750  12.802  66.116  1.00  0.00    -0.297 C  
HETATM    2  C   UNL     1     -10.517  12.065  67.438  1.00  0.00    -0.239 C  
HETATM    3  C   UNL     1     -11.870  11.621  68.026  1.00  0.00    -0.225 C  
HETATM    4  C   UNL     1      -9.692  12.958  68.368  1.00  0.00    -0.186 C  
ENDROOT
BRANCH   3   5
HETATM    5  N   UNL     1     -11.773  10.887  69.272  1.00  0.00    -0.306 NA 
HETATM    6  C   UNL     1     -12.149  11.437  70.473  1.00  0.00    -0.394 A  
HETATM    7  N   UNL     1     -12.065  10.577  71.454  1.00  0.00    -0.323 NA 
HETATM    8  C   UNL     1     -11.568   9.427  70.877  1.00  0.00    -0.312 A  
HETATM    9  C   UNL     1     -11.320   9.604  69.509  1.00  0.00    -0.040 A  
HETATM   10  C   UNL     1     -10.740   8.552  68.742  1.00  0.00    -0.089 A  
HETATM   11  C   UNL     1     -10.433   8.615  67.361  1.00  0.00    -0.351 A  
HETATM   12  C   UNL     1      -9.842   7.531  66.716  1.00  0.00    -0.295 A  
HETATM   13  C   UNL     1      -9.550   6.380  67.434  1.00  0.00    -0.133 A  
HETATM   14  C   UNL     1      -9.861   6.313  68.794  1.00  0.00    -0.156 A  
HETATM   15  C   UNL     1     -10.454   7.370  69.469  1.00  0.00    -0.232 A  
HETATM   16  N   UNL     1     -10.720   7.199  70.774  1.00  0.00    -0.227 NA 
HETATM   17  C   UNL     1     -11.293   8.187  71.491  1.00  0.00    -0.263 A  
HETATM   18  N   UNL     1     -11.567   7.937  72.831  1.00  0.00    -0.586 NA 
HETATM   19  H2  UNL     1     -12.554   8.145  72.988  1.00  0.00     0.000 HD 
HETATM   20  H1  UNL     1     -11.368   7.041  73.275  1.00  0.00     0.000 HD 
ENDBRANCH   3   5
TORSDOF 1
ENDMDL
MODEL      101
REMARK 921   NORMALIZED FREE ENERGY PREDICTED BY IDOCK:   -4.45 KCAL/MOL
REMARK 922        TOTAL FREE ENERGY PREDICTED BY IDOCK:   -4.95 KCAL/MOL
REMARK 923 INTER-LIGAND FREE ENERGY PREDICTED BY IDOCK:   -4.80 KCAL/MOL
REMARK 924 INTRA-LIGAND FREE ENERGY PREDICTED BY IDOCK:   -0.15 KCAL/MOL
REMARK 927      BINDING AFFINITY PREDICTED BY RF-SCORE:    0.00 PKD
ROOT
HETATM    1  C   UNL     1     -14.306   8.161  71.871  1.00  0.00    -0.566 C  
HETATM    2  C   UNL     1     -12.783   8.035  71.773  1.00  0.00    -0.352 C  
HETATM    3  C   UNL     1     -12.193   9.341  71.207  1.00  0.00    -0.334 C  
HETATM    4  C   UNL     1     -12.438   6.786  70.958  1.00  0.00    -0.318 C  
ENDROOT
BRANCH   3   5
HETATM    5  N   UNL     1     -10.748   9.349  71.092  1.00  0.00    -0.324 NA 
HETATM    6  C   UNL     1      -9.937   8.826  72.068  1.00  0.00    -0.321 A  
HETATM    7  N   UNL     1      -8.675   8.855  71.725  1.00  0.00    -0.356 NA 
HETATM    8  C   UNL     1      -8.658   9.465  70.487  1.00  0.00    -0.223 A  
HETATM    9  C   UNL     1      -9.945   9.841  70.082  1.00  0.00    -0.263 A  
HETATM   10  C   UNL     1     -10.135  10.548  68.859  1.00  0.00    -0.215 A  
HETATM   11  C   UNL     1     -11.380  10.990  68.350  1.00  0.00    -0.363 A  
HETATM   12  C   UNL     1     -11.446  11.697  67.152  1.00  0.00    -0.344 A  
HETATM   13  C   UNL     1     -10.280  11.974  66.452  1.00  0.00    -0.243 A  
HETATM   14  C   UNL     1      -9.052  11.531  66.949  1.00  0.00    -0.181 A  
HETATM   15  C   UNL     1      -8.948  10.819  68.135  1.00  0.00    -0.140 A  
HETATM   16  N   UNL     1      -7.721  10.432  68.518  1.00  0.00    -0.096 NA 
HETATM   17  C   UNL     1      -7.547   9.739  69.662  1.00  0.00    -0.120 A  
HETATM   18  N   UNL     1      -6.254   9.345  69.989  1.00  0.00    -0.042 NA 
HETATM   19  H2  UNL     1      -6.272   8.338  70.154  1.00  0.00     0.000 HD 
HETATM   20  H1  UNL     1      -5.452   9.543  69.392  1.00  0.00     0.000 HD 
ENDBRANCH   3   5
TORSDOF 1
ENDMDL
MODEL      102
REMARK 921   NORMALIZED FREE ENERGY PREDICTED BY IDOCK:   -4.45 KCAL/MOL
REMARK 922        TOTAL FREE ENERGY PREDICTED BY IDOCK:   -4.94 KCAL/MOL
REMARK 923 INTER-LIGAND FREE ENERGY PREDICTED BY IDOCK:   -4.66 KCAL/MOL
REMARK 924 INTRA-LIGAND FREE ENERGY PREDICTED BY IDOCK:   -0.28 KCAL/MOL
REMARK 927      BINDING AFFINITY PREDICTED BY RF-SCORE:    0.00 PKD
ROOT
HETATM    1  C   UNL     1      -9.806  17.281  67.166  1.00  0.00    -0.269 C  
HETATM    2  C   UNL     1      -9.703  15.860  67.727  1.00  0.00    -0.220 C  
HETATM    3  C   UNL     1     -11.114  15.260  67.876  1.00  0.00    -0.321 C  
HETATM    4  C   UNL     1      -8.896  15.895  69.027  1.00  0.00    -0.243 C  
ENDROOT
BRANCH   3   5
HETATM    5  N   UNL     1     -11.141  13.901  68.377  1.00  0.00    -0.244 NA 
HETATM    6  C   UNL     1     -11.375  13.617  69.700  1.00  0.00    -0.161 A  
HETATM    7  N   UNL     1     -11.445  12.330  69.920  1.00  0.00    -0.179 NA 
HETATM    8  C   UNL     1     -11.200  11.746  68.695  1.00  0.00    -0.257 A  
HETATM    9  C   UNL     1     -10.948  12.708  67.708  1.00  0.00    -0.234 A  
HETATM   10  C   UNL     1     -10.605  12.307  66.384  1.00  0.00    -0.272 A  
HETATM   11  C   UNL     1     -10.319  13.182  65.308  1.00  0.00    -0.319 A  
HETATM   12  C   UNL     1      -9.969  12.678  64.058  1.00  0.00    -0.172 A  
HETATM   13  C   UNL     1      -9.899  11.305  63.865  1.00  0.00    -0.341 A  
HETATM   14  C   UNL     1     -10.189  10.441  64.924  1.00  0.00    -0.330 A  
HETATM   15  C   UNL     1     -10.546  10.905  66.181  1.00  0.00    -0.206 A  
HETATM   16  N   UNL     1     -10.815   9.990  67.125  1.00  0.00    -0.215 NA 
HETATM   17  C   UNL     1     -11.165  10.373  68.370  1.00  0.00    -0.258 A  
HETATM   18  N   UNL     1     -11.456   9.376  69.295  1.00  0.00    -0.423 NA 
HETATM   19  H2  UNL     1     -12.379   9.577  69.683  1.00  0.00     0.000 HD 
HETATM   20  H1  UNL     1     -11.432   8.384  69.060  1.00  0.00     0.000 HD 
ENDBRANCH   3   5
TORSDOF 1
ENDMDL
MODEL      103
REMARK 921   NORMALIZED FREE ENERGY PREDICTED BY IDOCK:   -4.43 KCAL/MOL
REMARK 922        TOTAL FREE ENERGY PREDICTED BY IDOCK:   -4.92 KCAL/MOL
REMARK 923 INTER-LIGAND FREE ENERGY PREDICTED BY IDOCK:   -4.84 KCAL/MOL
REMARK 924 INTRA-LIGAND FREE ENERGY PREDICTED BY IDOCK:   -0.08 KCAL/MOL
REMARK 927      BINDING AFFINITY PREDICTED BY RF-SCORE:    0.00 PKD
ROOT
HETATM    1  C   UNL     1      -8.925  11.174  66.402  1.00  0.00    -0.190 C  
HETATM    2  C   UNL     1     -10.106  11.681  67.234  1.00  0.00    -0.221 C  
HETATM    3  C   UNL     1     -10.052  11.056  68.642  1.00  0.00    -0.197 C  
HETATM    4  C   UNL     1     -11.406  11.405  66.475  1.00  0.00    -0.195 C  
ENDROOT
BRANCH   3   5
HETATM    5  N   UNL     1     -11.112  11.485  69.532  1.00  0.00    -0.226 NA 
HETATM    6  C   UNL     1     -11.953  10.591  70.147  1.00  0.00    -0.316 A  
HETATM    7  N   UNL     1     -12.776  11.182  70.973  1.00  0.00    -0.381 NA 
HETATM    8  C   UNL     1     -12.490  12.526  70.860  1.00  0.00    -0.269 A  
HETATM    9  C   UNL     1     -11.481  12.759  69.916  1.00  0.00    -0.069 A  
HETATM   10  C   UNL     1     -11.086  14.092  69.601  1.00  0.00    -0.188 A  
HETATM   11  C   UNL     1     -10.091  14.454  68.661  1.00  0.00    -0.242 A  
HETATM   12  C   UNL     1      -9.802  15.794  68.414  1.00  0.00    -0.206 A  
HETATM   13  C   UNL     1     -10.498  16.783  69.094  1.00  0.00    -0.343 A  
HETATM   14  C   UNL     1     -11.474  16.428  70.028  1.00  0.00    -0.097 A  
HETATM   15  C   UNL     1     -11.785  15.105  70.304  1.00  0.00    -0.300 A  
HETATM   16  N   UNL     1     -12.731  14.872  71.227  1.00  0.00    -0.315 NA 
HETATM   17  C   UNL     1     -13.085  13.608  71.542  1.00  0.00    -0.350 A  
HETATM   18  N   UNL     1     -14.053  13.435  72.525  1.00  0.00    -0.735 NA 
HETATM   19  H2  UNL     1     -13.668  12.803  73.228  1.00  0.00     0.000 HD 
HETATM   20  H1  UNL     1     -14.483  14.217  73.018  1.00  0.00     0.000 HD 
ENDBRANCH   3   5
TORSDOF 1
ENDMDL
MODEL      104
REMARK 921   NORMALIZED FREE ENERGY PREDICTED BY IDOCK:   -4.42 KCAL/MOL
REMARK 922        TOTAL FREE ENERGY PREDICTED BY IDOCK:   -4.92 KCAL/MOL
REMARK 923 INTER-LIGAND FREE ENERGY PREDICTED BY IDOCK:   -4.81 KCAL/MOL
REMARK 924 INTRA-LIGAND FREE ENERGY PREDICTED BY IDOCK:   -0.11 KCAL/MOL
REMARK 927      BINDING AFFINITY PREDICTED BY RF-SCORE:    0.00 PKD
ROOT
HETATM    1  C   UNL     1     -11.463  15.667  67.586  1.00  0.00    -0.167 C  
HETATM    2  C   UNL     1     -11.050  14.445  68.411  1.00  0.00    -0.272 C  
HETATM    3  C   UNL     1     -12.143  13.363  68.313  1.00  0.00    -0.236 C  
HETATM    4  C   UNL     1     -10.737  14.893  69.841  1.00  0.00    -0.198 C  
ENDROOT
BRANCH   3   5
HETATM    5  N   UNL     1     -11.849  12.143  69.038  1.00  0.00    -0.314 NA 
HETATM    6  C   UNL     1     -12.151  11.996  70.369  1.00  0.00    -0.321 A  
HETATM    7  N   UNL     1     -11.884  10.792  70.802  1.00  0.00    -0.342 NA 
HETATM    8  C   UNL     1     -11.341  10.136  69.717  1.00  0.00    -0.256 A  
HETATM    9  C   UNL     1     -11.252  10.978  68.600  1.00  0.00    -0.263 A  
HETATM   10  C   UNL     1     -10.655  10.509  67.393  1.00  0.00    -0.313 A  
HETATM   11  C   UNL     1     -10.498  11.265  66.207  1.00  0.00    -0.308 A  
HETATM   12  C   UNL     1      -9.875  10.712  65.090  1.00  0.00    -0.344 A  
HETATM   13  C   UNL     1      -9.401   9.409  65.143  1.00  0.00    -0.288 A  
HETATM   14  C   UNL     1      -9.564   8.659  66.310  1.00  0.00    -0.322 A  
HETATM   15  C   UNL     1     -10.183   9.173  67.439  1.00  0.00    -0.247 A  
HETATM   16  N   UNL     1     -10.297   8.365  68.505  1.00  0.00    -0.209 NA 
HETATM   17  C   UNL     1     -10.887   8.803  69.637  1.00  0.00    -0.169 A  
HETATM   18  N   UNL     1     -10.996   7.908  70.696  1.00  0.00    -0.242 NA 
HETATM   19  H2  UNL     1     -11.977   7.882  70.975  1.00  0.00     0.000 HD 
HETATM   20  H1  UNL     1     -10.668   6.945  70.638  1.00  0.00     0.000 HD 
ENDBRANCH   3   5
TORSDOF 1
ENDMDL
MODEL      105
REMARK 921   NORMALIZED FREE ENERGY PREDICTED BY IDOCK:   -4.35 KCAL/MOL
REMARK 922        TOTAL FREE ENERGY PREDICTED BY IDOCK:   -4.84 KCAL/MOL
REMARK 923 INTER-LIGAND FREE ENERGY PREDICTED BY IDOCK:   -4.58 KCAL/MOL
REMARK 924 INTRA-LIGAND FREE ENERGY PREDICTED BY IDOCK:   -0.26 KCAL/MOL
REMARK 927      BINDING AFFINITY PREDICTED BY RF-SCORE:    0.00 PKD
ROOT
HETATM    1  C   UNL     1      -9.467   9.843  65.499  1.00  0.00    -0.313 C  
HETATM    2  C   UNL     1      -9.424   9.507  66.992  1.00  0.00    -0.197 C  
HETATM    3  C   UNL     1     -10.820   9.719  67.608  1.00  0.00    -0.239 C  
HETATM    4  C   UNL     1      -8.314  10.326  67.655  1.00  0.00    -0.114 C  
ENDROOT
BRANCH   3   5
HETATM    5  N   UNL     1     -10.908   9.406  69.021  1.00  0.00    -0.181 NA 
HETATM    6  C   UNL     1     -11.164  10.370  69.965  1.00  0.00    -0.316 A  
HETATM    7  N   UNL     1     -11.290   9.860  71.163  1.00  0.00    -0.376 NA 
HETATM    8  C   UNL     1     -11.061   8.509  71.001  1.00  0.00    -0.260 A  
HETATM    9  C   UNL     1     -10.761   8.196  69.668  1.00  0.00    -0.195 A  
HETATM   10  C   UNL     1     -10.426   6.859  69.303  1.00  0.00    -0.233 A  
HETATM   11  C   UNL     1     -10.095   6.422  67.998  1.00  0.00    -0.168 A  
HETATM   12  C   UNL     1      -9.758   5.092  67.759  1.00  0.00    -0.192 A  
HETATM   13  C   UNL     1      -9.745   4.187  68.811  1.00  0.00    -0.166 A  
HETATM   14  C   UNL     1     -10.079   4.615  70.098  1.00  0.00    -0.283 A  
HETATM   15  C   UNL     1     -10.425   5.929  70.373  1.00  0.00    -0.259 A  
HETATM   16  N   UNL     1     -10.740   6.234  71.642  1.00  0.00    -0.231 NA 
HETATM   17  C   UNL     1     -11.082   7.494  71.980  1.00  0.00    -0.247 A  
HETATM   18  N   UNL     1     -11.422   7.738  73.306  1.00  0.00    -0.609 NA 
HETATM   19  H2  UNL     1     -12.338   8.188  73.311  1.00  0.00     0.000 HD 
HETATM   20  H1  UNL     1     -11.438   7.004  74.013  1.00  0.00     0.000 HD 
ENDBRANCH   3   5
TORSDOF 1
ENDMDL
MODEL      106
REMARK 921   NORMALIZED FREE ENERGY PREDICTED BY IDOCK:   -4.29 KCAL/MOL
REMARK 922        TOTAL FREE ENERGY PREDICTED BY IDOCK:   -4.78 KCAL/MOL
REMARK 923 INTER-LIGAND FREE ENERGY PREDICTED BY IDOCK:   -4.51 KCAL/MOL
REMARK 924 INTRA-LIGAND FREE ENERGY PREDICTED BY IDOCK:   -0.27 KCAL/MOL
REMARK 927      BINDING AFFINITY PREDICTED BY RF-SCORE:    0.00 PKD
ROOT
HETATM    1  C   UNL     1     -12.008  13.921  66.287  1.00  0.00    -0.462 C  
HETATM    2  C   UNL     1     -11.005  15.078  66.276  1.00  0.00    -0.338 C  
HETATM    3  C   UNL     1     -11.213  15.953  67.526  1.00  0.00    -0.171 C  
HETATM    4  C   UNL     1     -11.132  15.835  64.952  1.00  0.00    -0.411 C  
ENDROOT
BRANCH   3   5
HETATM    5  N   UNL     1     -10.298  17.071  67.638  1.00  0.00    -0.321 NA 
HETATM    6  C   UNL     1     -10.726  18.374  67.560  1.00  0.00    -0.365 A  
HETATM    7  N   UNL     1      -9.755  19.222  67.774  1.00  0.00    -0.312 NA 
HETATM    8  C   UNL     1      -8.632  18.441  67.954  1.00  0.00    -0.272 A  
HETATM    9  C   UNL     1      -8.929  17.078  67.819  1.00  0.00    -0.224 A  
HETATM   10  C   UNL     1      -7.890  16.105  67.904  1.00  0.00    -0.151 A  
HETATM   11  C   UNL     1      -8.062  14.706  67.773  1.00  0.00    -0.160 A  
HETATM   12  C   UNL     1      -6.968  13.847  67.848  1.00  0.00    -0.165 A  
HETATM   13  C   UNL     1      -5.698  14.368  68.050  1.00  0.00    -0.139 A  
HETATM   14  C   UNL     1      -5.528  15.747  68.188  1.00  0.00    -0.122 A  
HETATM   15  C   UNL     1      -6.593  16.633  68.124  1.00  0.00    -0.143 A  
HETATM   16  N   UNL     1      -6.323  17.939  68.279  1.00  0.00    -0.183 NA 
HETATM   17  C   UNL     1      -7.312  18.855  68.225  1.00  0.00    -0.278 A  
HETATM   18  N   UNL     1      -6.968  20.188  68.420  1.00  0.00    -0.291 NA 
HETATM   19  H2  UNL     1      -7.563  20.554  69.164  1.00  0.00     0.000 HD 
HETATM   20  H1  UNL     1      -6.014  20.487  68.616  1.00  0.00     0.000 HD 
ENDBRANCH   3   5
TORSDOF 1
ENDMDL
MODEL      107
REMARK 921   NORMALIZED FREE ENERGY PREDICTED BY IDOCK:   -4.28 KCAL/MOL
REMARK 922        TOTAL FREE ENERGY PREDICTED BY IDOCK:   -4.77 KCAL/MOL
REMARK 923 INTER-LIGAND FREE ENERGY PREDICTED BY IDOCK:   -4.71 KCAL/MOL
REMARK 924 INTRA-LIGAND FREE ENERGY PREDICTED BY IDOCK:   -0.05 KCAL/MOL
REMARK 927      BINDING AFFINITY PREDICTED BY RF-SCORE:    0.00 PKD
ROOT
HETATM    1  C   UNL     1     -10.901  19.575  65.747  1.00  0.00    -0.403 C  
HETATM    2  C   UNL     1      -9.695  18.790  66.271  1.00  0.00    -0.354 C  
HETATM    3  C   UNL     1      -9.891  17.289  65.980  1.00  0.00    -0.200 C  
HETATM    4  C   UNL     1      -9.490  19.120  67.751  1.00  0.00    -0.362 C  
ENDROOT
BRANCH   3   5
HETATM    5  N   UNL     1      -8.795  16.444  66.410  1.00  0.00    -0.282 NA 
HETATM    6  C   UNL     1      -7.489  16.868  66.372  1.00  0.00    -0.288 A  
HETATM    7  N   UNL     1      -6.673  15.987  66.887  1.00  0.00    -0.270 NA 
HETATM    8  C   UNL     1      -7.475  14.920  67.236  1.00  0.00    -0.161 A  
HETATM    9  C   UNL     1      -8.815  15.153  66.898  1.00  0.00    -0.256 A  
HETATM   10  C   UNL     1      -9.796  14.142  67.116  1.00  0.00    -0.253 A  
HETATM   11  C   UNL     1     -11.173  14.253  66.806  1.00  0.00    -0.337 A  
HETATM   12  C   UNL     1     -12.041  13.189  67.039  1.00  0.00    -0.366 A  
HETATM   13  C   UNL     1     -11.551  12.008  67.577  1.00  0.00    -0.401 A  
HETATM   14  C   UNL     1     -10.193  11.900  67.891  1.00  0.00    -0.203 A  
HETATM   15  C   UNL     1      -9.301  12.939  67.678  1.00  0.00    -0.195 A  
HETATM   16  N   UNL     1      -8.020  12.735  68.024  1.00  0.00    -0.148 NA 
HETATM   17  C   UNL     1      -7.098  13.703  67.842  1.00  0.00    -0.149 A  
HETATM   18  N   UNL     1      -5.794  13.438  68.245  1.00  0.00    -0.087 NA 
HETATM   19  H2  UNL     1      -5.505  14.193  68.868  1.00  0.00     0.000 HD 
HETATM   20  H1  UNL     1      -5.522  12.558  68.683  1.00  0.00     0.000 HD 
ENDBRANCH   3   5
TORSDOF 1
ENDMDL
MODEL      108
REMARK 921   NORMALIZED FREE ENERGY PREDICTED BY IDOCK:   -4.27 KCAL/MOL
REMARK 922        TOTAL FREE ENERGY PREDICTED BY IDOCK:   -4.76 KCAL/MOL
REMARK 923 INTER-LIGAND FREE ENERGY PREDICTED BY IDOCK:   -4.33 KCAL/MOL
REMARK 924 INTRA-LIGAND FREE ENERGY PREDICTED BY IDOCK:   -0.42 KCAL/MOL
REMARK 927      BINDING AFFINITY PREDICTED BY RF-SCORE:    0.00 PKD
ROOT
HETATM    1  C   UNL     1     -11.752  13.581  68.156  1.00  0.00    -0.396 C  
HETATM    2  C   UNL     1     -10.794  13.104  67.062  1.00  0.00    -0.278 C  
HETATM    3  C   UNL     1     -11.411  11.898  66.326  1.00  0.00    -0.334 C  
HETATM    4  C   UNL     1      -9.424  12.824  67.685  1.00  0.00    -0.190 C  
ENDROOT
BRANCH   3   5
HETATM    5  N   UNL     1     -10.600  11.373  65.246  1.00  0.00    -0.280 NA 
HETATM    6  C   UNL     1     -10.553  11.974  64.012  1.00  0.00    -0.377 A  
HETATM    7  N   UNL     1      -9.695  11.391  63.216  1.00  0.00    -0.365 NA 
HETATM    8  C   UNL     1      -9.192  10.334  63.946  1.00  0.00    -0.274 A  
HETATM    9  C   UNL     1      -9.784  10.260  65.215  1.00  0.00    -0.291 A  
HETATM   10  C   UNL     1      -9.449   9.195  66.102  1.00  0.00    -0.309 A  
HETATM   11  C   UNL     1      -9.985   9.007  67.398  1.00  0.00    -0.266 A  
HETATM   12  C   UNL     1      -9.604   7.913  68.172  1.00  0.00    -0.163 A  
HETATM   13  C   UNL     1      -8.692   6.998  67.665  1.00  0.00    -0.121 A  
HETATM   14  C   UNL     1      -8.155   7.187  66.389  1.00  0.00    -0.116 A  
HETATM   15  C   UNL     1      -8.507   8.267  65.593  1.00  0.00    -0.158 A  
HETATM   16  N   UNL     1      -7.925   8.361  64.386  1.00  0.00    -0.142 NA 
HETATM   17  C   UNL     1      -8.224   9.384  63.560  1.00  0.00    -0.168 A  
HETATM   18  N   UNL     1      -7.567   9.438  62.335  1.00  0.00    -0.105 NA 
HETATM   19  H2  UNL     1      -7.140  10.362  62.256  1.00  0.00     0.000 HD 
HETATM   20  H1  UNL     1      -6.867   8.752  62.056  1.00  0.00     0.000 HD 
ENDBRANCH   3   5
TORSDOF 1
ENDMDL
MODEL      109
REMARK 921   NORMALIZED FREE ENERGY PREDICTED BY IDOCK:   -4.25 KCAL/MOL
REMARK 922        TOTAL FREE ENERGY PREDICTED BY IDOCK:   -4.74 KCAL/MOL
REMARK 923 INTER-LIGAND FREE ENERGY PREDICTED BY IDOCK:   -4.53 KCAL/MOL
REMARK 924 INTRA-LIGAND FREE ENERGY PREDICTED BY IDOCK:   -0.20 KCAL/MOL
REMARK 927      BINDING AFFINITY PREDICTED BY RF-SCORE:    0.00 PKD
ROOT
HETATM    1  C   UNL     1     -10.610   8.651  67.954  1.00  0.00    -0.223 C  
HETATM    2  C   UNL     1     -10.156  10.082  68.253  1.00  0.00    -0.182 C  
HETATM    3  C   UNL     1      -9.000  10.465  67.308  1.00  0.00    -0.135 C  
HETATM    4  C   UNL     1      -9.814  10.196  69.740  1.00  0.00    -0.245 C  
ENDROOT
BRANCH   3   5
HETATM    5  N   UNL     1      -8.501  11.814  67.482  1.00  0.00    -0.147 NA 
HETATM    6  C   UNL     1      -7.458  12.101  68.327  1.00  0.00    -0.107 A  
HETATM    7  N   UNL     1      -7.112  13.361  68.267  1.00  0.00    -0.097 NA 
HETATM    8  C   UNL     1      -7.997  13.931  67.377  1.00  0.00    -0.170 A  
HETATM    9  C   UNL     1      -8.925  12.994  66.904  1.00  0.00    -0.209 A  
HETATM   10  C   UNL     1      -9.970  13.400  66.023  1.00  0.00    -0.300 A  
HETATM   11  C   UNL     1     -10.970  12.551  65.489  1.00  0.00    -0.322 A  
HETATM   12  C   UNL     1     -11.962  13.061  64.654  1.00  0.00    -0.445 A  
HETATM   13  C   UNL     1     -11.971  14.414  64.346  1.00  0.00    -0.471 A  
HETATM   14  C   UNL     1     -10.980  15.251  64.865  1.00  0.00    -0.445 A  
HETATM   15  C   UNL     1      -9.974  14.778  65.694  1.00  0.00    -0.360 A  
HETATM   16  N   UNL     1      -9.065  15.664  66.131  1.00  0.00    -0.337 NA 
HETATM   17  C   UNL     1      -8.062  15.272  66.943  1.00  0.00    -0.189 A  
HETATM   18  N   UNL     1      -7.138  16.233  67.339  1.00  0.00    -0.151 NA 
HETATM   19  H2  UNL     1      -6.209  15.880  67.108  1.00  0.00     0.000 HD 
HETATM   20  H1  UNL     1      -7.184  17.202  67.025  1.00  0.00     0.000 HD 
ENDBRANCH   3   5
TORSDOF 1
ENDMDL
MODEL      110
REMARK 921   NORMALIZED FREE ENERGY PREDICTED BY IDOCK:   -4.23 KCAL/MOL
REMARK 922        TOTAL FREE ENERGY PREDICTED BY IDOCK:   -4.72 KCAL/MOL
REMARK 923 INTER-LIGAND FREE ENERGY PREDICTED BY IDOCK:   -4.41 KCAL/MOL
REMARK 924 INTRA-LIGAND FREE ENERGY PREDICTED BY IDOCK:   -0.31 KCAL/MOL
REMARK 927      BINDING AFFINITY PREDICTED BY RF-SCORE:    0.00 PKD
ROOT
HETATM    1  C   UNL     1      -6.763   8.913  67.780  1.00  0.00    -0.066 C  
HETATM    2  C   UNL     1      -7.687   9.128  68.982  1.00  0.00    -0.078 C  
HETATM    3  C   UNL     1      -9.150   9.192  68.503  1.00  0.00    -0.132 C  
HETATM    4  C   UNL     1      -7.224  10.368  69.751  1.00  0.00    -0.155 C  
ENDROOT
BRANCH   3   5
HETATM    5  N   UNL     1     -10.123   9.369  69.562  1.00  0.00    -0.194 NA 
HETATM    6  C   UNL     1     -10.733  10.576  69.796  1.00  0.00    -0.264 A  
HETATM    7  N   UNL     1     -11.638  10.494  70.736  1.00  0.00    -0.347 NA 
HETATM    8  C   UNL     1     -11.586   9.184  71.166  1.00  0.00    -0.317 A  
HETATM    9  C   UNL     1     -10.600   8.459  70.484  1.00  0.00    -0.216 A  
HETATM   10  C   UNL     1     -10.340   7.100  70.830  1.00  0.00    -0.214 A  
HETATM   11  C   UNL     1      -9.366   6.270  70.224  1.00  0.00    -0.170 A  
HETATM   12  C   UNL     1      -9.179   4.961  70.660  1.00  0.00    -0.189 A  
HETATM   13  C   UNL     1      -9.954   4.466  71.700  1.00  0.00    -0.256 A  
HETATM   14  C   UNL     1     -10.921   5.281  72.293  1.00  0.00    -0.249 A  
HETATM   15  C   UNL     1     -11.139   6.588  71.882  1.00  0.00    -0.261 A  
HETATM   16  N   UNL     1     -12.100   7.282  72.512  1.00  0.00    -0.115 NA 
HETATM   17  C   UNL     1     -12.362   8.559  72.164  1.00  0.00    -0.382 A  
HETATM   18  N   UNL     1     -13.387   9.214  72.837  1.00  0.00    -0.802 NA 
HETATM   19  H2  UNL     1     -14.030   9.583  72.136  1.00  0.00     0.000 HD 
HETATM   20  H1  UNL     1     -13.948   8.762  73.559  1.00  0.00     0.000 HD 
ENDBRANCH   3   5
TORSDOF 1
ENDMDL
MODEL      111
REMARK 921   NORMALIZED FREE ENERGY PREDICTED BY IDOCK:   -4.23 KCAL/MOL
REMARK 922        TOTAL FREE ENERGY PREDICTED BY IDOCK:   -4.72 KCAL/MOL
REMARK 923 INTER-LIGAND FREE ENERGY PREDICTED BY IDOCK:   -4.31 KCAL/MOL
REMARK 924 INTRA-LIGAND FREE ENERGY PREDICTED BY IDOCK:   -0.40 KCAL/MOL
REMARK 927      BINDING AFFINITY PREDICTED BY RF-SCORE:    0.00 PKD
ROOT
HETATM    1  C   UNL     1      -9.924   9.833  66.023  1.00  0.00    -0.342 C  
HETATM    2  C   UNL     1      -9.491   8.556  66.748  1.00  0.00    -0.253 C  
HETATM    3  C   UNL     1     -10.734   7.715  67.099  1.00  0.00    -0.290 C  
HETATM    4  C   UNL     1      -8.628   8.935  67.954  1.00  0.00    -0.126 C  
ENDROOT
BRANCH   3   5
HETATM    5  N   UNL     1     -10.444   6.463  67.769  1.00  0.00    -0.195 NA 
HETATM    6  C   UNL     1     -10.098   5.330  67.076  1.00  0.00    -0.210 A  
HETATM    7  N   UNL     1      -9.794   4.341  67.876  1.00  0.00    -0.107 NA 
HETATM    8  C   UNL     1      -9.994   4.837  69.147  1.00  0.00    -0.163 A  
HETATM    9  C   UNL     1     -10.459   6.158  69.115  1.00  0.00    -0.251 A  
HETATM   10  C   UNL     1     -10.793   6.831  70.327  1.00  0.00    -0.314 A  
HETATM   11  C   UNL     1     -11.281   8.157  70.423  1.00  0.00    -0.221 A  
HETATM   12  C   UNL     1     -11.599   8.708  71.662  1.00  0.00    -0.379 A  
HETATM   13  C   UNL     1     -11.438   7.949  72.813  1.00  0.00    -0.428 A  
HETATM   14  C   UNL     1     -10.948   6.644  72.720  1.00  0.00    -0.291 A  
HETATM   15  C   UNL     1     -10.616   6.064  71.506  1.00  0.00    -0.243 A  
HETATM   16  N   UNL     1     -10.144   4.808  71.528  1.00  0.00    -0.192 NA 
HETATM   17  C   UNL     1      -9.804   4.182  70.382  1.00  0.00    -0.167 A  
HETATM   18  N   UNL     1      -9.297   2.891  70.477  1.00  0.00    -0.141 NA 
HETATM   19  H2  UNL     1      -8.406   2.873  69.980  1.00  0.00     0.000 HD 
HETATM   20  H1  UNL     1      -9.160   2.418  71.370  1.00  0.00     0.000 HD 
ENDBRANCH   3   5
TORSDOF 1
ENDMDL
MODEL      112
REMARK 921   NORMALIZED FREE ENERGY PREDICTED BY IDOCK:   -4.21 KCAL/MOL
REMARK 922        TOTAL FREE ENERGY PREDICTED BY IDOCK:   -4.69 KCAL/MOL
REMARK 923 INTER-LIGAND FREE ENERGY PREDICTED BY IDOCK:   -4.27 KCAL/MOL
REMARK 924 INTRA-LIGAND FREE ENERGY PREDICTED BY IDOCK:   -0.42 KCAL/MOL
REMARK 927      BINDING AFFINITY PREDICTED BY RF-SCORE:    0.00 PKD
ROOT
HETATM    1  C   UNL     1     -14.141   7.402  71.520  1.00  0.00    -0.541 C  
HETATM    2  C   UNL     1     -12.635   7.169  71.672  1.00  0.00    -0.410 C  
HETATM    3  C   UNL     1     -11.975   8.431  72.261  1.00  0.00    -0.389 C  
HETATM    4  C   UNL     1     -12.060   6.731  70.323  1.00  0.00    -0.211 C  
ENDROOT
BRANCH   3   5
HETATM    5  N   UNL     1     -10.545   8.319  72.474  1.00  0.00    -0.337 NA 
HETATM    6  C   UNL     1     -10.020   7.666  73.562  1.00  0.00    -0.295 A  
HETATM    7  N   UNL     1      -8.715   7.605  73.514  1.00  0.00    -0.190 NA 
HETATM    8  C   UNL     1      -8.369   8.289  72.367  1.00  0.00    -0.170 A  
HETATM    9  C   UNL     1      -9.499   8.802  71.714  1.00  0.00    -0.293 A  
HETATM   10  C   UNL     1      -9.350   9.600  70.542  1.00  0.00    -0.227 A  
HETATM   11  C   UNL     1     -10.410  10.181  69.805  1.00  0.00    -0.297 A  
HETATM   12  C   UNL     1     -10.147  10.966  68.684  1.00  0.00    -0.200 A  
HETATM   13  C   UNL     1      -8.835  11.183  68.290  1.00  0.00    -0.155 A  
HETATM   14  C   UNL     1      -7.789  10.603  69.012  1.00  0.00    -0.137 A  
HETATM   15  C   UNL     1      -8.011   9.811  70.128  1.00  0.00    -0.186 A  
HETATM   16  N   UNL     1      -6.937   9.294  70.744  1.00  0.00    -0.099 NA 
HETATM   17  C   UNL     1      -7.082   8.517  71.838  1.00  0.00    -0.089 A  
HETATM   18  N   UNL     1      -5.930   7.990  72.413  1.00  0.00    -0.042 NA 
HETATM   19  H2  UNL     1      -6.058   6.981  72.487  1.00  0.00     0.000 HD 
HETATM   20  H1  UNL     1      -5.000   8.155  72.031  1.00  0.00     0.000 HD 
ENDBRANCH   3   5
TORSDOF 1
ENDMDL
MODEL      113
REMARK 921   NORMALIZED FREE ENERGY PREDICTED BY IDOCK:   -4.20 KCAL/MOL
REMARK 922        TOTAL FREE ENERGY PREDICTED BY IDOCK:   -4.69 KCAL/MOL
REMARK 923 INTER-LIGAND FREE ENERGY PREDICTED BY IDOCK:   -4.29 KCAL/MOL
REMARK 924 INTRA-LIGAND FREE ENERGY PREDICTED BY IDOCK:   -0.40 KCAL/MOL
REMARK 927      BINDING AFFINITY PREDICTED BY RF-SCORE:    0.00 PKD
ROOT
HETATM    1  C   UNL     1     -13.088  13.698  65.386  1.00  0.00    -0.180 C  
HETATM    2  C   UNL     1     -11.592  13.472  65.619  1.00  0.00    -0.343 C  
HETATM    3  C   UNL     1     -11.137  14.268  66.857  1.00  0.00    -0.312 C  
HETATM    4  C   UNL     1     -10.830  13.817  64.337  1.00  0.00    -0.343 C  
ENDROOT
BRANCH   3   5
HETATM    5  N   UNL     1      -9.736  14.111  67.193  1.00  0.00    -0.241 NA 
HETATM    6  C   UNL     1      -9.228  12.927  67.666  1.00  0.00    -0.193 A  
HETATM    7  N   UNL     1      -7.931  12.977  67.820  1.00  0.00    -0.149 NA 
HETATM    8  C   UNL     1      -7.580  14.265  67.474  1.00  0.00    -0.184 A  
HETATM    9  C   UNL     1      -8.704  15.027  67.126  1.00  0.00    -0.220 A  
HETATM   10  C   UNL     1      -8.563  16.408  66.801  1.00  0.00    -0.270 A  
HETATM   11  C   UNL     1      -9.620  17.280  66.446  1.00  0.00    -0.290 A  
HETATM   12  C   UNL     1      -9.370  18.623  66.172  1.00  0.00    -0.166 A  
HETATM   13  C   UNL     1      -8.073  19.110  66.250  1.00  0.00    -0.308 A  
HETATM   14  C   UNL     1      -7.028  18.248  66.592  1.00  0.00    -0.237 A  
HETATM   15  C   UNL     1      -7.238  16.905  66.866  1.00  0.00    -0.216 A  
HETATM   16  N   UNL     1      -6.163  16.161  67.175  1.00  0.00    -0.299 NA 
HETATM   17  C   UNL     1      -6.296  14.849  67.456  1.00  0.00    -0.043 A  
HETATM   18  N   UNL     1      -5.141  14.129  67.741  1.00  0.00    -0.295 NA 
HETATM   19  H2  UNL     1      -5.120  13.321  67.119  1.00  0.00     0.000 HD 
HETATM   20  H1  UNL     1      -4.213  14.551  67.728  1.00  0.00     0.000 HD 
ENDBRANCH   3   5
TORSDOF 1
ENDMDL
MODEL      114
REMARK 921   NORMALIZED FREE ENERGY PREDICTED BY IDOCK:   -4.19 KCAL/MOL
REMARK 922        TOTAL FREE ENERGY PREDICTED BY IDOCK:   -4.68 KCAL/MOL
REMARK 923 INTER-LIGAND FREE ENERGY PREDICTED BY IDOCK:   -4.38 KCAL/MOL
REMARK 924 INTRA-LIGAND FREE ENERGY PREDICTED BY IDOCK:   -0.30 KCAL/MOL
REMARK 927      BINDING AFFINITY PREDICTED BY RF-SCORE:    0.00 PKD
ROOT
HETATM    1  C   UNL     1     -14.383   6.923  71.461  1.00  0.00    -0.336 C  
HETATM    2  C   UNL     1     -13.114   7.779  71.491  1.00  0.00    -0.356 C  
HETATM    3  C   UNL     1     -11.914   6.909  71.911  1.00  0.00    -0.327 C  
HETATM    4  C   UNL     1     -13.354   8.994  72.390  1.00  0.00    -0.516 C  
ENDROOT
BRANCH   3   5
HETATM    5  N   UNL     1     -10.646   7.610  71.951  1.00  0.00    -0.213 NA 
HETATM    6  C   UNL     1     -10.093   8.050  73.128  1.00  0.00    -0.232 A  
HETATM    7  N   UNL     1      -8.910   8.576  72.947  1.00  0.00    -0.359 NA 
HETATM    8  C   UNL     1      -8.699   8.517  71.585  1.00  0.00    -0.199 A  
HETATM    9  C   UNL     1      -9.800   7.963  70.918  1.00  0.00    -0.178 A  
HETATM   10  C   UNL     1      -9.809   7.877  69.495  1.00  0.00    -0.176 A  
HETATM   11  C   UNL     1     -10.863   7.350  68.711  1.00  0.00    -0.077 A  
HETATM   12  C   UNL     1     -10.776   7.338  67.321  1.00  0.00    -0.391 A  
HETATM   13  C   UNL     1      -9.645   7.849  66.699  1.00  0.00    -0.293 A  
HETATM   14  C   UNL     1      -8.600   8.361  67.472  1.00  0.00    -0.129 A  
HETATM   15  C   UNL     1      -8.650   8.385  68.858  1.00  0.00    -0.135 A  
HETATM   16  N   UNL     1      -7.588   8.889  69.506  1.00  0.00    -0.078 NA 
HETATM   17  C   UNL     1      -7.571   8.946  70.854  1.00  0.00    -0.110 A  
HETATM   18  N   UNL     1      -6.431   9.455  71.465  1.00  0.00    -0.270 NA 
HETATM   19  H2  UNL     1      -6.112   8.764  72.145  1.00  0.00     0.000 HD 
HETATM   20  H1  UNL     1      -5.615   9.764  70.937  1.00  0.00     0.000 HD 
ENDBRANCH   3   5
TORSDOF 1
ENDMDL
MODEL      115
REMARK 921   NORMALIZED FREE ENERGY PREDICTED BY IDOCK:   -4.18 KCAL/MOL
REMARK 922        TOTAL FREE ENERGY PREDICTED BY IDOCK:   -4.66 KCAL/MOL
REMARK 923 INTER-LIGAND FREE ENERGY PREDICTED BY IDOCK:   -4.25 KCAL/MOL
REMARK 924 INTRA-LIGAND FREE ENERGY PREDICTED BY IDOCK:   -0.41 KCAL/MOL
REMARK 927      BINDING AFFINITY PREDICTED BY RF-SCORE:    0.00 PKD
ROOT
HETATM    1  C   UNL     1      -6.325   6.764  67.088  1.00  0.00    -0.041 C  
HETATM    2  C   UNL     1      -7.162   6.905  68.363  1.00  0.00    -0.088 C  
HETATM    3  C   UNL     1      -8.658   6.932  67.997  1.00  0.00    -0.123 C  
HETATM    4  C   UNL     1      -6.684   8.135  69.138  1.00  0.00    -0.047 C  
ENDROOT
BRANCH   3   5
HETATM    5  N   UNL     1      -9.554   7.038  69.132  1.00  0.00    -0.149 NA 
HETATM    6  C   UNL     1      -9.752   5.996  70.003  1.00  0.00    -0.165 A  
HETATM    7  N   UNL     1     -10.527   6.333  71.001  1.00  0.00    -0.217 NA 
HETATM    8  C   UNL     1     -10.887   7.640  70.746  1.00  0.00    -0.239 A  
HETATM    9  C   UNL     1     -10.335   8.100  69.543  1.00  0.00    -0.222 A  
HETATM   10  C   UNL     1     -10.642   9.407  69.065  1.00  0.00    -0.233 A  
HETATM   11  C   UNL     1     -10.158   9.977  67.863  1.00  0.00    -0.203 A  
HETATM   12  C   UNL     1     -10.545  11.259  67.480  1.00  0.00    -0.257 A  
HETATM   13  C   UNL     1     -11.416  11.982  68.281  1.00  0.00    -0.361 A  
HETATM   14  C   UNL     1     -11.889  11.424  69.471  1.00  0.00    -0.426 A  
HETATM   15  C   UNL     1     -11.521  10.154  69.889  1.00  0.00    -0.254 A  
HETATM   16  N   UNL     1     -12.024   9.715  71.054  1.00  0.00    -0.322 NA 
HETATM   17  C   UNL     1     -11.710   8.488  71.517  1.00  0.00    -0.297 A  
HETATM   18  N   UNL     1     -12.243   8.104  72.742  1.00  0.00    -0.611 NA 
HETATM   19  H2  UNL     1     -11.468   7.807  73.336  1.00  0.00     0.000 HD 
HETATM   20  H1  UNL     1     -12.838   8.717  73.300  1.00  0.00     0.000 HD 
ENDBRANCH   3   5
TORSDOF 1
ENDMDL
MODEL      116
REMARK 921   NORMALIZED FREE ENERGY PREDICTED BY IDOCK:   -4.18 KCAL/MOL
REMARK 922        TOTAL FREE ENERGY PREDICTED BY IDOCK:   -4.66 KCAL/MOL
REMARK 923 INTER-LIGAND FREE ENERGY PREDICTED BY IDOCK:   -4.63 KCAL/MOL
REMARK 924 INTRA-LIGAND FREE ENERGY PREDICTED BY IDOCK:   -0.03 KCAL/MOL
REMARK 927      BINDING AFFINITY PREDICTED BY RF-SCORE:    0.00 PKD
ROOT
HETATM    1  C   UNL     1     -13.055   9.079  72.550  1.00  0.00    -0.450 C  
HETATM    2  C   UNL     1     -12.121   8.304  71.616  1.00  0.00    -0.346 C  
HETATM    3  C   UNL     1     -11.472   9.277  70.613  1.00  0.00    -0.274 C  
HETATM    4  C   UNL     1     -12.904   7.162  70.965  1.00  0.00    -0.268 C  
ENDROOT
BRANCH   3   5
HETATM    5  N   UNL     1     -10.543   8.658  69.689  1.00  0.00    -0.222 NA 
HETATM    6  C   UNL     1      -9.770   7.581  70.045  1.00  0.00    -0.172 A  
HETATM    7  N   UNL     1      -9.071   7.125  69.038  1.00  0.00    -0.133 NA 
HETATM    8  C   UNL     1      -9.366   7.970  67.989  1.00  0.00    -0.138 A  
HETATM    9  C   UNL     1     -10.251   8.985  68.379  1.00  0.00    -0.201 A  
HETATM   10  C   UNL     1     -10.629  10.002  67.456  1.00  0.00    -0.336 A  
HETATM   11  C   UNL     1     -11.502  11.081  67.734  1.00  0.00    -0.339 A  
HETATM   12  C   UNL     1     -11.784  12.036  66.760  1.00  0.00    -0.339 A  
HETATM   13  C   UNL     1     -11.201  11.930  65.505  1.00  0.00    -0.353 A  
HETATM   14  C   UNL     1     -10.345  10.861  65.227  1.00  0.00    -0.334 A  
HETATM   15  C   UNL     1     -10.046   9.889  66.169  1.00  0.00    -0.245 A  
HETATM   16  N   UNL     1      -9.221   8.898  65.795  1.00  0.00    -0.223 NA 
HETATM   17  C   UNL     1      -8.885   7.922  66.664  1.00  0.00    -0.146 A  
HETATM   18  N   UNL     1      -8.048   6.911  66.206  1.00  0.00    -0.107 NA 
HETATM   19  H2  UNL     1      -8.507   6.020  66.399  1.00  0.00     0.000 HD 
HETATM   20  H1  UNL     1      -7.700   6.875  65.248  1.00  0.00     0.000 HD 
ENDBRANCH   3   5
TORSDOF 1
ENDMDL
MODEL      117
REMARK 921   NORMALIZED FREE ENERGY PREDICTED BY IDOCK:   -4.17 KCAL/MOL
REMARK 922        TOTAL FREE ENERGY PREDICTED BY IDOCK:   -4.65 KCAL/MOL
REMARK 923 INTER-LIGAND FREE ENERGY PREDICTED BY IDOCK:   -4.24 KCAL/MOL
REMARK 924 INTRA-LIGAND FREE ENERGY PREDICTED BY IDOCK:   -0.41 KCAL/MOL
REMARK 927      BINDING AFFINITY PREDICTED BY RF-SCORE:    0.00 PKD
ROOT
HETATM    1  C   UNL     1     -11.370  10.710  70.376  1.00  0.00    -0.389 C  
HETATM    2  C   UNL     1     -10.727  11.176  69.066  1.00  0.00    -0.265 C  
HETATM    3  C   UNL     1     -11.489  10.568  67.873  1.00  0.00    -0.109 C  
HETATM    4  C   UNL     1      -9.235  10.838  69.096  1.00  0.00    -0.131 C  
ENDROOT
BRANCH   3   5
HETATM    5  N   UNL     1     -10.983  10.961  66.573  1.00  0.00    -0.180 NA 
HETATM    6  C   UNL     1     -11.333  12.152  65.985  1.00  0.00    -0.358 A  
HETATM    7  N   UNL     1     -10.697  12.347  64.859  1.00  0.00    -0.283 NA 
HETATM    8  C   UNL     1      -9.931  11.213  64.681  1.00  0.00    -0.292 A  
HETATM    9  C   UNL     1     -10.131  10.291  65.717  1.00  0.00    -0.255 A  
HETATM   10  C   UNL     1      -9.481   9.023  65.685  1.00  0.00    -0.273 A  
HETATM   11  C   UNL     1      -9.611   8.008  66.663  1.00  0.00    -0.297 A  
HETATM   12  C   UNL     1      -8.947   6.792  66.516  1.00  0.00    -0.162 A  
HETATM   13  C   UNL     1      -8.153   6.573  65.400  1.00  0.00    -0.129 A  
HETATM   14  C   UNL     1      -8.017   7.577  64.438  1.00  0.00    -0.117 A  
HETATM   15  C   UNL     1      -8.658   8.802  64.552  1.00  0.00    -0.099 A  
HETATM   16  N   UNL     1      -8.452   9.701  63.578  1.00  0.00    -0.173 NA 
HETATM   17  C   UNL     1      -9.047  10.911  63.625  1.00  0.00    -0.186 A  
HETATM   18  N   UNL     1      -8.771  11.807  62.597  1.00  0.00    -0.543 NA 
HETATM   19  H2  UNL     1      -8.453  12.677  63.025  1.00  0.00     0.000 HD 
HETATM   20  H1  UNL     1      -8.132  11.589  61.834  1.00  0.00     0.000 HD 
ENDBRANCH   3   5
TORSDOF 1
ENDMDL
MODEL      118
REMARK 921   NORMALIZED FREE ENERGY PREDICTED BY IDOCK:   -4.15 KCAL/MOL
REMARK 922        TOTAL FREE ENERGY PREDICTED BY IDOCK:   -4.63 KCAL/MOL
REMARK 923 INTER-LIGAND FREE ENERGY PREDICTED BY IDOCK:   -4.32 KCAL/MOL
REMARK 924 INTRA-LIGAND FREE ENERGY PREDICTED BY IDOCK:   -0.31 KCAL/MOL
REMARK 927      BINDING AFFINITY PREDICTED BY RF-SCORE:    0.00 PKD
ROOT
HETATM    1  C   UNL     1      -8.624   9.376  64.186  1.00  0.00    -0.216 C  
HETATM    2  C   UNL     1      -9.098  10.777  64.580  1.00  0.00    -0.223 C  
HETATM    3  C   UNL     1     -10.078  10.676  65.765  1.00  0.00    -0.266 C  
HETATM    4  C   UNL     1      -9.675  11.473  63.345  1.00  0.00    -0.379 C  
ENDROOT
BRANCH   3   5
HETATM    5  N   UNL     1     -10.577  11.950  66.244  1.00  0.00    -0.244 NA 
HETATM    6  C   UNL     1     -11.856  12.376  65.983  1.00  0.00    -0.395 A  
HETATM    7  N   UNL     1     -12.127  13.507  66.581  1.00  0.00    -0.405 NA 
HETATM    8  C   UNL     1     -10.958  13.859  67.223  1.00  0.00    -0.290 A  
HETATM    9  C   UNL     1      -9.940  12.925  66.985  1.00  0.00    -0.244 A  
HETATM   10  C   UNL     1      -8.631  13.142  67.506  1.00  0.00    -0.196 A  
HETATM   11  C   UNL     1      -7.522  12.281  67.325  1.00  0.00    -0.147 A  
HETATM   12  C   UNL     1      -6.278  12.605  67.860  1.00  0.00    -0.108 A  
HETATM   13  C   UNL     1      -6.123  13.784  68.576  1.00  0.00    -0.092 A  
HETATM   14  C   UNL     1      -7.219  14.630  68.762  1.00  0.00    -0.124 A  
HETATM   15  C   UNL     1      -8.474  14.338  68.249  1.00  0.00    -0.167 A  
HETATM   16  N   UNL     1      -9.462  15.214  68.495  1.00  0.00    -0.197 NA 
HETATM   17  C   UNL     1     -10.706  14.993  68.023  1.00  0.00    -0.262 A  
HETATM   18  N   UNL     1     -11.690  15.925  68.335  1.00  0.00    -0.367 NA 
HETATM   19  H2  UNL     1     -12.470  15.419  68.756  1.00  0.00     0.000 HD 
HETATM   20  H1  UNL     1     -11.508  16.744  68.913  1.00  0.00     0.000 HD 
ENDBRANCH   3   5
TORSDOF 1
ENDMDL
MODEL      119
REMARK 921   NORMALIZED FREE ENERGY PREDICTED BY IDOCK:   -4.14 KCAL/MOL
REMARK 922        TOTAL FREE ENERGY PREDICTED BY IDOCK:   -4.62 KCAL/MOL
REMARK 923 INTER-LIGAND FREE ENERGY PREDICTED BY IDOCK:   -4.23 KCAL/MOL
REMARK 924 INTRA-LIGAND FREE ENERGY PREDICTED BY IDOCK:   -0.40 KCAL/MOL
REMARK 927      BINDING AFFINITY PREDICTED BY RF-SCORE:    0.00 PKD
ROOT
HETATM    1  C   UNL     1      -6.711   5.527  66.447  1.00  0.00    -0.057 C  
HETATM    2  C   UNL     1      -7.372   6.336  67.566  1.00  0.00    -0.080 C  
HETATM    3  C   UNL     1      -8.863   6.546  67.239  1.00  0.00    -0.112 C  
HETATM    4  C   UNL     1      -6.586   7.632  67.775  1.00  0.00    -0.062 C  
ENDROOT
BRANCH   3   5
HETATM    5  N   UNL     1      -9.602   7.282  68.245  1.00  0.00    -0.147 NA 
HETATM    6  C   UNL     1      -9.849   6.764  69.493  1.00  0.00    -0.157 A  
HETATM    7  N   UNL     1     -10.452   7.625  70.270  1.00  0.00    -0.219 NA 
HETATM    8  C   UNL     1     -10.647   8.740  69.483  1.00  0.00    -0.219 A  
HETATM    9  C   UNL     1     -10.173   8.538  68.180  1.00  0.00    -0.208 A  
HETATM   10  C   UNL     1     -10.342   9.549  67.189  1.00  0.00    -0.320 A  
HETATM   11  C   UNL     1      -9.917   9.458  65.842  1.00  0.00    -0.327 A  
HETATM   12  C   UNL     1     -10.157  10.501  64.950  1.00  0.00    -0.403 A  
HETATM   13  C   UNL     1     -10.822  11.639  65.386  1.00  0.00    -0.336 A  
HETATM   14  C   UNL     1     -11.234  11.733  66.718  1.00  0.00    -0.388 A  
HETATM   15  C   UNL     1     -11.007  10.718  67.635  1.00  0.00    -0.306 A  
HETATM   16  N   UNL     1     -11.435  10.914  68.893  1.00  0.00    -0.276 NA 
HETATM   17  C   UNL     1     -11.250   9.966  69.835  1.00  0.00    -0.250 A  
HETATM   18  N   UNL     1     -11.693  10.241  71.124  1.00  0.00    -0.361 NA 
HETATM   19  H2  UNL     1     -10.907  10.093  71.757  1.00  0.00     0.000 HD 
HETATM   20  H1  UNL     1     -12.128  11.127  71.378  1.00  0.00     0.000 HD 
ENDBRANCH   3   5
TORSDOF 1
ENDMDL
MODEL      120
REMARK 921   NORMALIZED FREE ENERGY PREDICTED BY IDOCK:   -4.12 KCAL/MOL
REMARK 922        TOTAL FREE ENERGY PREDICTED BY IDOCK:   -4.60 KCAL/MOL
REMARK 923 INTER-LIGAND FREE ENERGY PREDICTED BY IDOCK:   -4.29 KCAL/MOL
REMARK 924 INTRA-LIGAND FREE ENERGY PREDICTED BY IDOCK:   -0.31 KCAL/MOL
REMARK 927      BINDING AFFINITY PREDICTED BY RF-SCORE:    0.00 PKD
ROOT
HETATM    1  C   UNL     1      -8.880  16.657  66.162  1.00  0.00    -0.323 C  
HETATM    2  C   UNL     1      -9.461  15.562  67.061  1.00  0.00    -0.238 C  
HETATM    3  C   UNL     1      -9.820  14.331  66.207  1.00  0.00    -0.307 C  
HETATM    4  C   UNL     1     -10.636  16.140  67.854  1.00  0.00    -0.309 C  
ENDROOT
BRANCH   3   5
HETATM    5  N   UNL     1     -10.359  13.214  66.958  1.00  0.00    -0.247 NA 
HETATM    6  C   UNL     1     -11.691  12.881  66.913  1.00  0.00    -0.382 A  
HETATM    7  N   UNL     1     -11.946  11.792  67.591  1.00  0.00    -0.606 NA 
HETATM    8  C   UNL     1     -10.736  11.424  68.141  1.00  0.00    -0.202 A  
HETATM    9  C   UNL     1      -9.722  12.332  67.808  1.00  0.00    -0.199 A  
HETATM   10  C   UNL     1      -8.408  12.166  68.335  1.00  0.00    -0.143 A  
HETATM   11  C   UNL     1      -7.308  13.020  68.082  1.00  0.00    -0.118 A  
HETATM   12  C   UNL     1      -6.070  12.776  68.672  1.00  0.00    -0.068 A  
HETATM   13  C   UNL     1      -5.915  11.687  69.518  1.00  0.00    -0.090 A  
HETATM   14  C   UNL     1      -6.998  10.840  69.763  1.00  0.00    -0.141 A  
HETATM   15  C   UNL     1      -8.243  11.047  69.189  1.00  0.00    -0.045 A  
HETATM   16  N   UNL     1      -9.214  10.167  69.481  1.00  0.00    -0.214 NA 
HETATM   17  C   UNL     1     -10.450  10.311  68.960  1.00  0.00    -0.217 A  
HETATM   18  N   UNL     1     -11.402   9.351  69.281  1.00  0.00    -0.440 NA 
HETATM   19  H2  UNL     1     -11.789   8.996  68.406  1.00  0.00     0.000 HD 
HETATM   20  H1  UNL     1     -11.195   8.547  69.873  1.00  0.00     0.000 HD 
ENDBRANCH   3   5
TORSDOF 1
ENDMDL
MODEL      121
REMARK 921   NORMALIZED FREE ENERGY PREDICTED BY IDOCK:   -4.10 KCAL/MOL
REMARK 922        TOTAL FREE ENERGY PREDICTED BY IDOCK:   -4.57 KCAL/MOL
REMARK 923 INTER-LIGAND FREE ENERGY PREDICTED BY IDOCK:   -5.00 KCAL/MOL
REMARK 924 INTRA-LIGAND FREE ENERGY PREDICTED BY IDOCK:    0.43 KCAL/MOL
REMARK 927      BINDING AFFINITY PREDICTED BY RF-SCORE:    0.00 PKD
ROOT
HETATM    1  C   UNL     1     -11.741  12.904  69.786  1.00  0.00    -0.351 C  
HETATM    2  C   UNL     1     -11.814  11.588  69.007  1.00  0.00    -0.408 C  
HETATM    3  C   UNL     1     -10.670  10.659  69.456  1.00  0.00    -0.251 C  
HETATM    4  C   UNL     1     -11.820  11.896  67.508  1.00  0.00    -0.249 C  
ENDROOT
BRANCH   3   5
HETATM    5  N   UNL     1     -10.651   9.366  68.802  1.00  0.00    -0.222 NA 
HETATM    6  C   UNL     1     -10.637   9.242  67.435  1.00  0.00    -0.255 A  
HETATM    7  N   UNL     1     -10.532   7.994  67.057  1.00  0.00    -0.340 NA 
HETATM    8  C   UNL     1     -10.523   7.267  68.230  1.00  0.00    -0.199 A  
HETATM    9  C   UNL     1     -10.654   8.099  69.350  1.00  0.00    -0.200 A  
HETATM   10  C   UNL     1     -10.734   7.535  70.657  1.00  0.00    -0.239 A  
HETATM   11  C   UNL     1     -10.878   8.267  71.860  1.00  0.00    -0.350 A  
HETATM   12  C   UNL     1     -10.972   7.609  73.084  1.00  0.00    -0.411 A  
HETATM   13  C   UNL     1     -10.927   6.223  73.124  1.00  0.00    -0.251 A  
HETATM   14  C   UNL     1     -10.777   5.500  71.938  1.00  0.00    -0.292 A  
HETATM   15  C   UNL     1     -10.674   6.120  70.703  1.00  0.00    -0.275 A  
HETATM   16  N   UNL     1     -10.522   5.333  69.626  1.00  0.00    -0.284 NA 
HETATM   17  C   UNL     1     -10.419   5.870  68.393  1.00  0.00    -0.237 A  
HETATM   18  N   UNL     1     -10.237   5.002  67.323  1.00  0.00    -0.187 NA 
HETATM   19  H2  UNL     1      -9.410   5.313  66.811  1.00  0.00     0.000 HD 
HETATM   20  H1  UNL     1     -10.162   3.992  67.441  1.00  0.00     0.000 HD 
ENDBRANCH   3   5
TORSDOF 1
ENDMDL
MODEL      122
REMARK 921   NORMALIZED FREE ENERGY PREDICTED BY IDOCK:   -4.07 KCAL/MOL
REMARK 922        TOTAL FREE ENERGY PREDICTED BY IDOCK:   -4.54 KCAL/MOL
REMARK 923 INTER-LIGAND FREE ENERGY PREDICTED BY IDOCK:   -4.57 KCAL/MOL
REMARK 924 INTRA-LIGAND FREE ENERGY PREDICTED BY IDOCK:    0.02 KCAL/MOL
REMARK 927      BINDING AFFINITY PREDICTED BY RF-SCORE:    0.00 PKD
ROOT
HETATM    1  C   UNL     1     -11.654  14.604  69.415  1.00  0.00    -0.342 C  
HETATM    2  C   UNL     1     -11.789  13.402  70.353  1.00  0.00    -0.283 C  
HETATM    3  C   UNL     1     -12.001  12.121  69.522  1.00  0.00    -0.275 C  
HETATM    4  C   UNL     1     -12.900  13.683  71.367  1.00  0.00    -0.442 C  
ENDROOT
BRANCH   3   5
HETATM    5  N   UNL     1     -12.117  10.908  70.306  1.00  0.00    -0.324 NA 
HETATM    6  C   UNL     1     -13.281  10.564  70.948  1.00  0.00    -0.202 A  
HETATM    7  N   UNL     1     -13.196   9.392  71.521  1.00  0.00    -0.370 NA 
HETATM    8  C   UNL     1     -11.905   8.970  71.281  1.00  0.00    -0.312 A  
HETATM    9  C   UNL     1     -11.177   9.929  70.563  1.00  0.00    -0.330 A  
HETATM   10  C   UNL     1      -9.799   9.713  70.270  1.00  0.00    -0.321 A  
HETATM   11  C   UNL     1      -8.959  10.609  69.565  1.00  0.00     0.025 A  
HETATM   12  C   UNL     1      -7.615  10.306  69.358  1.00  0.00    -0.137 A  
HETATM   13  C   UNL     1      -7.095   9.117  69.849  1.00  0.00    -0.056 A  
HETATM   14  C   UNL     1      -7.925   8.229  70.537  1.00  0.00    -0.099 A  
HETATM   15  C   UNL     1      -9.268   8.493  70.758  1.00  0.00    -0.172 A  
HETATM   16  N   UNL     1      -9.980   7.569  71.422  1.00  0.00    -0.185 NA 
HETATM   17  C   UNL     1     -11.290   7.763  71.674  1.00  0.00    -0.253 A  
HETATM   18  N   UNL     1     -11.976   6.756  72.343  1.00  0.00    -0.486 NA 
HETATM   19  H2  UNL     1     -12.794   6.515  71.782  1.00  0.00     0.000 HD 
HETATM   20  H1  UNL     1     -11.532   5.883  72.627  1.00  0.00     0.000 HD 
ENDBRANCH   3   5
TORSDOF 1
ENDMDL
MODEL      123
REMARK 921   NORMALIZED FREE ENERGY PREDICTED BY IDOCK:   -4.03 KCAL/MOL
REMARK 922        TOTAL FREE ENERGY PREDICTED BY IDOCK:   -4.50 KCAL/MOL
REMARK 923 INTER-LIGAND FREE ENERGY PREDICTED BY IDOCK:   -4.08 KCAL/MOL
REMARK 924 INTRA-LIGAND FREE ENERGY PREDICTED BY IDOCK:   -0.42 KCAL/MOL
REMARK 927      BINDING AFFINITY PREDICTED BY RF-SCORE:    0.00 PKD
ROOT
HETATM    1  C   UNL     1     -10.561   4.325  65.092  1.00  0.00    -0.169 C  
HETATM    2  C   UNL     1     -10.081   4.922  66.418  1.00  0.00    -0.286 C  
HETATM    3  C   UNL     1     -11.109   5.954  66.921  1.00  0.00    -0.082 C  
HETATM    4  C   UNL     1      -8.670   5.483  66.229  1.00  0.00    -0.128 C  
ENDROOT
BRANCH   3   5
HETATM    5  N   UNL     1     -10.772   6.571  68.188  1.00  0.00    -0.253 NA 
HETATM    6  C   UNL     1     -10.929   5.913  69.383  1.00  0.00    -0.350 A  
HETATM    7  N   UNL     1     -10.483   6.615  70.392  1.00  0.00    -0.205 NA 
HETATM    8  C   UNL     1     -10.057   7.804  69.836  1.00  0.00    -0.203 A  
HETATM    9  C   UNL     1     -10.277   7.832  68.453  1.00  0.00    -0.200 A  
HETATM   10  C   UNL     1      -9.967   9.003  67.700  1.00  0.00    -0.252 A  
HETATM   11  C   UNL     1     -10.154   9.156  66.305  1.00  0.00    -0.319 A  
HETATM   12  C   UNL     1      -9.838  10.357  65.675  1.00  0.00    -0.321 A  
HETATM   13  C   UNL     1      -9.338  11.414  66.421  1.00  0.00    -0.219 A  
HETATM   14  C   UNL     1      -9.146  11.262  67.797  1.00  0.00    -0.152 A  
HETATM   15  C   UNL     1      -9.443  10.080  68.458  1.00  0.00    -0.148 A  
HETATM   16  N   UNL     1      -9.211  10.034  69.779  1.00  0.00    -0.219 NA 
HETATM   17  C   UNL     1      -9.480   8.916  70.484  1.00  0.00    -0.204 A  
HETATM   18  N   UNL     1      -9.193   8.926  71.845  1.00  0.00    -0.366 NA 
HETATM   19  H2  UNL     1      -8.602   8.117  72.040  1.00  0.00     0.000 HD 
HETATM   20  H1  UNL     1      -8.775   9.729  72.313  1.00  0.00     0.000 HD 
ENDBRANCH   3   5
TORSDOF 1
ENDMDL
MODEL      124
REMARK 921   NORMALIZED FREE ENERGY PREDICTED BY IDOCK:   -3.98 KCAL/MOL
REMARK 922        TOTAL FREE ENERGY PREDICTED BY IDOCK:   -4.45 KCAL/MOL
REMARK 923 INTER-LIGAND FREE ENERGY PREDICTED BY IDOCK:   -4.22 KCAL/MOL
REMARK 924 INTRA-LIGAND FREE ENERGY PREDICTED BY IDOCK:   -0.24 KCAL/MOL
REMARK 927      BINDING AFFINITY PREDICTED BY RF-SCORE:    0.00 PKD
ROOT
HETATM    1  C   UNL     1     -12.249  13.952  70.303  1.00  0.00    -0.428 C  
HETATM    2  C   UNL     1     -11.920  15.382  69.868  1.00  0.00    -0.384 C  
HETATM    3  C   UNL     1     -10.845  15.350  68.764  1.00  0.00    -0.252 C  
HETATM    4  C   UNL     1     -11.530  16.201  71.100  1.00  0.00    -0.433 C  
ENDROOT
BRANCH   3   5
HETATM    5  N   UNL     1     -10.468  16.653  68.252  1.00  0.00    -0.304 NA 
HETATM    6  C   UNL     1     -11.403  17.582  67.866  1.00  0.00     0.413 A  
HETATM    7  N   UNL     1     -10.852  18.716  67.521  1.00  0.00    -0.396 NA 
HETATM    8  C   UNL     1      -9.494  18.505  67.644  1.00  0.00    -0.279 A  
HETATM    9  C   UNL     1      -9.214  17.194  68.051  1.00  0.00    -0.250 A  
HETATM   10  C   UNL     1      -7.863  16.753  68.172  1.00  0.00    -0.182 A  
HETATM   11  C   UNL     1      -7.455  15.455  68.562  1.00  0.00    -0.117 A  
HETATM   12  C   UNL     1      -6.103  15.125  68.623  1.00  0.00    -0.086 A  
HETATM   13  C   UNL     1      -5.148  16.077  68.296  1.00  0.00    -0.104 A  
HETATM   14  C   UNL     1      -5.550  17.361  67.920  1.00  0.00    -0.132 A  
HETATM   15  C   UNL     1      -6.885  17.728  67.853  1.00  0.00    -0.192 A  
HETATM   16  N   UNL     1      -7.163  18.990  67.491  1.00  0.00    -0.217 NA 
HETATM   17  C   UNL     1      -8.442  19.412  67.402  1.00  0.00    -0.296 A  
HETATM   18  N   UNL     1      -8.661  20.738  67.047  1.00  0.00    -0.578 NA 
HETATM   19  H2  UNL     1      -9.265  21.152  67.758  1.00  0.00     0.000 HD 
HETATM   20  H1  UNL     1      -7.900  21.394  66.872  1.00  0.00     0.000 HD 
ENDBRANCH   3   5
TORSDOF 1
ENDMDL
MODEL      125
REMARK 921   NORMALIZED FREE ENERGY PREDICTED BY IDOCK:   -3.98 KCAL/MOL
REMARK 922        TOTAL FREE ENERGY PREDICTED BY IDOCK:   -4.45 KCAL/MOL
REMARK 923 INTER-LIGAND FREE ENERGY PREDICTED BY IDOCK:   -4.14 KCAL/MOL
REMARK 924 INTRA-LIGAND FREE ENERGY PREDICTED BY IDOCK:   -0.31 KCAL/MOL
REMARK 927      BINDING AFFINITY PREDICTED BY RF-SCORE:    0.00 PKD
ROOT
HETATM    1  C   UNL     1      -7.788   4.668  67.397  1.00  0.00    -0.090 C  
HETATM    2  C   UNL     1      -8.890   5.732  67.368  1.00  0.00    -0.106 C  
HETATM    3  C   UNL     1      -8.446   6.955  68.193  1.00  0.00    -0.124 C  
HETATM    4  C   UNL     1     -10.203   5.101  67.836  1.00  0.00    -0.180 C  
ENDROOT
BRANCH   3   5
HETATM    5  N   UNL     1      -9.403   8.043  68.218  1.00  0.00    -0.140 NA 
HETATM    6  C   UNL     1     -10.184   8.301  69.318  1.00  0.00    -0.204 A  
HETATM    7  N   UNL     1     -10.910   9.377  69.161  1.00  0.00    -0.196 NA 
HETATM    8  C   UNL     1     -10.625   9.816  67.884  1.00  0.00    -0.259 A  
HETATM    9  C   UNL     1      -9.718   8.965  67.239  1.00  0.00    -0.181 A  
HETATM   10  C   UNL     1      -9.345   9.206  65.885  1.00  0.00    -0.306 A  
HETATM   11  C   UNL     1      -8.451   8.414  65.125  1.00  0.00    -0.179 A  
HETATM   12  C   UNL     1      -8.176   8.730  63.797  1.00  0.00    -0.163 A  
HETATM   13  C   UNL     1      -8.787   9.830  63.212  1.00  0.00    -0.260 A  
HETATM   14  C   UNL     1      -9.664  10.617  63.963  1.00  0.00    -0.373 A  
HETATM   15  C   UNL     1      -9.957  10.337  65.289  1.00  0.00    -0.317 A  
HETATM   16  N   UNL     1     -10.804  11.163  65.923  1.00  0.00    -0.205 NA 
HETATM   17  C   UNL     1     -11.135  10.947  67.213  1.00  0.00    -0.283 A  
HETATM   18  N   UNL     1     -11.997  11.854  67.819  1.00  0.00    -0.573 NA 
HETATM   19  H2  UNL     1     -11.546  12.182  68.674  1.00  0.00     0.000 HD 
HETATM   20  H1  UNL     1     -12.365  12.672  67.334  1.00  0.00     0.000 HD 
ENDBRANCH   3   5
TORSDOF 1
ENDMDL
MODEL      126
REMARK 921   NORMALIZED FREE ENERGY PREDICTED BY IDOCK:   -3.97 KCAL/MOL
REMARK 922        TOTAL FREE ENERGY PREDICTED BY IDOCK:   -4.44 KCAL/MOL
REMARK 923 INTER-LIGAND FREE ENERGY PREDICTED BY IDOCK:   -4.89 KCAL/MOL
REMARK 924 INTRA-LIGAND FREE ENERGY PREDICTED BY IDOCK:    0.45 KCAL/MOL
REMARK 927      BINDING AFFINITY PREDICTED BY RF-SCORE:    0.00 PKD
ROOT
HETATM    1  C   UNL     1     -12.120  15.918  72.842  1.00  0.00    -0.612 C  
HETATM    2  C   UNL     1     -12.085  15.310  71.437  1.00  0.00    -0.415 C  
HETATM    3  C   UNL     1     -10.936  15.942  70.630  1.00  0.00    -0.291 C  
HETATM    4  C   UNL     1     -13.465  15.466  70.793  1.00  0.00    -0.324 C  
ENDROOT
BRANCH   3   5
HETATM    5  N   UNL     1     -10.788  15.424  69.285  1.00  0.00    -0.238 NA 
HETATM    6  C   UNL     1     -11.617  14.451  68.784  1.00  0.00    -0.315 A  
HETATM    7  N   UNL     1     -11.367  14.193  67.527  1.00  0.00    -0.306 NA 
HETATM    8  C   UNL     1     -10.297  15.001  67.204  1.00  0.00    -0.257 A  
HETATM    9  C   UNL     1      -9.869  15.752  68.308  1.00  0.00    -0.213 A  
HETATM   10  C   UNL     1      -8.730  16.602  68.200  1.00  0.00    -0.201 A  
HETATM   11  C   UNL     1      -8.197  17.398  69.243  1.00  0.00     0.183 A  
HETATM   12  C   UNL     1      -7.060  18.175  69.032  1.00  0.00    -0.244 A  
HETATM   13  C   UNL     1      -6.443  18.167  67.789  1.00  0.00    -0.188 A  
HETATM   14  C   UNL     1      -6.973  17.388  66.757  1.00  0.00    -0.246 A  
HETATM   15  C   UNL     1      -8.106  16.607  66.928  1.00  0.00    -0.214 A  
HETATM   16  N   UNL     1      -8.539  15.905  65.868  1.00  0.00    -0.101 NA 
HETATM   17  C   UNL     1      -9.633  15.122  65.966  1.00  0.00    -0.330 A  
HETATM   18  N   UNL     1     -10.044  14.441  64.825  1.00  0.00    -0.574 NA 
HETATM   19  H2  UNL     1     -11.026  14.667  64.669  1.00  0.00     0.000 HD 
HETATM   20  H1  UNL     1      -9.564  14.528  63.930  1.00  0.00     0.000 HD 
ENDBRANCH   3   5
TORSDOF 1
ENDMDL
MODEL      127
REMARK 921   NORMALIZED FREE ENERGY PREDICTED BY IDOCK:   -3.92 KCAL/MOL
REMARK 922        TOTAL FREE ENERGY PREDICTED BY IDOCK:   -4.39 KCAL/MOL
REMARK 923 INTER-LIGAND FREE ENERGY PREDICTED BY IDOCK:   -5.02 KCAL/MOL
REMARK 924 INTRA-LIGAND FREE ENERGY PREDICTED BY IDOCK:    0.64 KCAL/MOL
REMARK 927      BINDING AFFINITY PREDICTED BY RF-SCORE:    0.00 PKD
ROOT
HETATM    1  C   UNL     1     -11.974  16.026  71.713  1.00  0.00    -0.592 C  
HETATM    2  C   UNL     1     -11.461  15.432  70.399  1.00  0.00    -0.355 C  
HETATM    3  C   UNL     1     -12.364  14.258  69.975  1.00  0.00    -0.346 C  
HETATM    4  C   UNL     1      -9.985  15.061  70.562  1.00  0.00     0.486 C  
ENDROOT
BRANCH   3   5
HETATM    5  N   UNL     1     -11.988  13.630  68.724  1.00  0.00    -0.360 NA 
HETATM    6  C   UNL     1     -12.033  12.269  68.551  1.00  0.00    -0.219 A  
HETATM    7  N   UNL     1     -11.739  11.922  67.325  1.00  0.00    -0.577 NA 
HETATM    8  C   UNL     1     -11.445  13.105  66.680  1.00  0.00    -0.348 A  
HETATM    9  C   UNL     1     -11.538  14.200  67.550  1.00  0.00    -0.367 A  
HETATM   10  C   UNL     1     -11.207  15.510  67.094  1.00  0.00    -0.204 A  
HETATM   11  C   UNL     1     -11.250  16.688  67.877  1.00  0.00    -0.114 A  
HETATM   12  C   UNL     1     -10.880  17.916  67.334  1.00  0.00    -0.218 A  
HETATM   13  C   UNL     1     -10.462  17.984  66.012  1.00  0.00    -0.317 A  
HETATM   14  C   UNL     1     -10.427  16.823  65.236  1.00  0.00    -0.153 A  
HETATM   15  C   UNL     1     -10.793  15.585  65.740  1.00  0.00    -0.331 A  
HETATM   16  N   UNL     1     -10.733  14.534  64.907  1.00  0.00    -0.420 NA 
HETATM   17  C   UNL     1     -11.073  13.300  65.334  1.00  0.00    -0.282 A  
HETATM   18  N   UNL     1     -11.014  12.259  64.414  1.00  0.00    -0.308 NA 
HETATM   19  H2  UNL     1     -11.922  11.794  64.416  1.00  0.00     0.000 HD 
HETATM   20  H1  UNL     1     -10.744  12.400  63.440  1.00  0.00     0.000 HD 
ENDBRANCH   3   5
TORSDOF 1
ENDMDL
MODEL      128
REMARK 921   NORMALIZED FREE ENERGY PREDICTED BY IDOCK:   -3.90 KCAL/MOL
REMARK 922        TOTAL FREE ENERGY PREDICTED BY IDOCK:   -4.36 KCAL/MOL
REMARK 923 INTER-LIGAND FREE ENERGY PREDICTED BY IDOCK:   -4.06 KCAL/MOL
REMARK 924 INTRA-LIGAND FREE ENERGY PREDICTED BY IDOCK:   -0.30 KCAL/MOL
REMARK 927      BINDING AFFINITY PREDICTED BY RF-SCORE:    0.00 PKD
ROOT
HETATM    1  C   UNL     1     -13.030  11.843  63.829  1.00  0.00    -0.290 C  
HETATM    2  C   UNL     1     -11.632  11.998  64.435  1.00  0.00    -0.411 C  
HETATM    3  C   UNL     1     -11.720  12.833  65.727  1.00  0.00    -0.402 C  
HETATM    4  C   UNL     1     -10.691  12.577  63.377  1.00  0.00    -0.321 C  
ENDROOT
BRANCH   3   5
HETATM    5  N   UNL     1     -10.454  13.026  66.407  1.00  0.00    -0.273 NA 
HETATM    6  C   UNL     1      -9.830  14.248  66.451  1.00  0.00    -0.296 A  
HETATM    7  N   UNL     1      -8.750  14.220  67.187  1.00  0.00    -0.219 NA 
HETATM    8  C   UNL     1      -8.639  12.910  67.606  1.00  0.00    -0.182 A  
HETATM    9  C   UNL     1      -9.669  12.115  67.085  1.00  0.00    -0.199 A  
HETATM   10  C   UNL     1      -9.696  10.714  67.345  1.00  0.00    -0.192 A  
HETATM   11  C   UNL     1     -10.674   9.808  66.867  1.00  0.00    -0.192 A  
HETATM   12  C   UNL     1     -10.588   8.450  67.164  1.00  0.00    -0.326 A  
HETATM   13  C   UNL     1      -9.532   7.980  67.932  1.00  0.00    -0.161 A  
HETATM   14  C   UNL     1      -8.571   8.874  68.411  1.00  0.00    -0.134 A  
HETATM   15  C   UNL     1      -8.627  10.233  68.142  1.00  0.00    -0.119 A  
HETATM   16  N   UNL     1      -7.659  11.006  68.659  1.00  0.00    -0.115 NA 
HETATM   17  C   UNL     1      -7.651  12.336  68.433  1.00  0.00    -0.128 A  
HETATM   18  N   UNL     1      -6.636  13.084  69.019  1.00  0.00    -0.102 NA 
HETATM   19  H2  UNL     1      -7.075  13.840  69.545  1.00  0.00     0.000 HD 
HETATM   20  H1  UNL     1      -5.922  12.669  69.617  1.00  0.00     0.000 HD 
ENDBRANCH   3   5
TORSDOF 1
ENDMDL
MODEL      129
REMARK 921   NORMALIZED FREE ENERGY PREDICTED BY IDOCK:   -3.89 KCAL/MOL
REMARK 922        TOTAL FREE ENERGY PREDICTED BY IDOCK:   -4.35 KCAL/MOL
REMARK 923 INTER-LIGAND FREE ENERGY PREDICTED BY IDOCK:   -4.04 KCAL/MOL
REMARK 924 INTRA-LIGAND FREE ENERGY PREDICTED BY IDOCK:   -0.31 KCAL/MOL
REMARK 927      BINDING AFFINITY PREDICTED BY RF-SCORE:    0.00 PKD
ROOT
HETATM    1  C   UNL     1      -5.425  14.890  70.739  1.00  0.00    -0.142 C  
HETATM    2  C   UNL     1      -5.458  15.850  69.547  1.00  0.00    -0.116 C  
HETATM    3  C   UNL     1      -6.098  17.184  69.977  1.00  0.00    -0.116 C  
HETATM    4  C   UNL     1      -6.164  15.165  68.374  1.00  0.00    -0.108 C  
ENDROOT
BRANCH   3   5
HETATM    5  N   UNL     1      -6.161  18.187  68.932  1.00  0.00    -0.202 NA 
HETATM    6  C   UNL     1      -5.133  19.068  68.705  1.00  0.00    -0.192 A  
HETATM    7  N   UNL     1      -5.358  19.825  67.663  1.00  0.00    -0.182 NA 
HETATM    8  C   UNL     1      -6.608  19.452  67.215  1.00  0.00    -0.189 A  
HETATM    9  C   UNL     1      -7.169  18.458  68.028  1.00  0.00    -0.241 A  
HETATM   10  C   UNL     1      -8.489  17.983  67.775  1.00  0.00    -0.247 A  
HETATM   11  C   UNL     1      -9.166  16.994  68.529  1.00  0.00    -0.266 A  
HETATM   12  C   UNL     1     -10.469  16.623  68.206  1.00  0.00    -0.321 A  
HETATM   13  C   UNL     1     -11.110  17.230  67.136  1.00  0.00     0.192 A  
HETATM   14  C   UNL     1     -10.441  18.201  66.386  1.00  0.00    -0.364 A  
HETATM   15  C   UNL     1      -9.142  18.592  66.674  1.00  0.00    -0.305 A  
HETATM   16  N   UNL     1      -8.587  19.524  65.884  1.00  0.00    -0.416 NA 
HETATM   17  C   UNL     1      -7.328  19.953  66.110  1.00  0.00    -0.301 A  
HETATM   18  N   UNL     1      -6.803  20.901  65.240  1.00  0.00    -0.527 NA 
HETATM   19  H2  UNL     1      -5.915  20.540  64.890  1.00  0.00     0.000 HD 
HETATM   20  H1  UNL     1      -7.323  21.263  64.441  1.00  0.00     0.000 HD 
ENDBRANCH   3   5
TORSDOF 1
ENDMDL
MODEL      130
REMARK 921   NORMALIZED FREE ENERGY PREDICTED BY IDOCK:   -3.88 KCAL/MOL
REMARK 922        TOTAL FREE ENERGY PREDICTED BY IDOCK:   -4.34 KCAL/MOL
REMARK 923 INTER-LIGAND FREE ENERGY PREDICTED BY IDOCK:   -3.92 KCAL/MOL
REMARK 924 INTRA-LIGAND FREE ENERGY PREDICTED BY IDOCK:   -0.42 KCAL/MOL
REMARK 927      BINDING AFFINITY PREDICTED BY RF-SCORE:    0.00 PKD
ROOT
HETATM    1  C   UNL     1     -12.011  14.472  64.420  1.00  0.00    -0.467 C  
HETATM    2  C   UNL     1     -11.586  13.245  65.232  1.00  0.00    -0.335 C  
HETATM    3  C   UNL     1     -11.378  13.648  66.704  1.00  0.00    -0.326 C  
HETATM    4  C   UNL     1     -10.356  12.615  64.574  1.00  0.00    -0.369 C  
ENDROOT
BRANCH   3   5
HETATM    5  N   UNL     1     -10.996  12.557  67.579  1.00  0.00    -0.241 NA 
HETATM    6  C   UNL     1     -11.908  11.640  68.041  1.00  0.00    -0.225 A  
HETATM    7  N   UNL     1     -11.338  10.693  68.740  1.00  0.00    -0.271 NA 
HETATM    8  C   UNL     1     -10.001  11.031  68.774  1.00  0.00    -0.207 A  
HETATM    9  C   UNL     1      -9.758  12.234  68.097  1.00  0.00    -0.213 A  
HETATM   10  C   UNL     1      -8.446  12.792  68.074  1.00  0.00    -0.177 A  
HETATM   11  C   UNL     1      -8.080  14.002  67.437  1.00  0.00    -0.199 A  
HETATM   12  C   UNL     1      -6.768  14.468  67.500  1.00  0.00    -0.141 A  
HETATM   13  C   UNL     1      -5.814  13.741  68.196  1.00  0.00    -0.123 A  
HETATM   14  C   UNL     1      -6.173  12.543  68.819  1.00  0.00    -0.074 A  
HETATM   15  C   UNL     1      -7.466  12.045  68.773  1.00  0.00    -0.086 A  
HETATM   16  N   UNL     1      -7.703  10.879  69.396  1.00  0.00    -0.110 NA 
HETATM   17  C   UNL     1      -8.939  10.340  69.393  1.00  0.00    -0.176 A  
HETATM   18  N   UNL     1      -9.112   9.118  70.034  1.00  0.00    -0.176 NA 
HETATM   19  H2  UNL     1      -9.546   8.479  69.367  1.00  0.00     0.000 HD 
HETATM   20  H1  UNL     1      -8.344   8.618  70.482  1.00  0.00     0.000 HD 
ENDBRANCH   3   5
TORSDOF 1
ENDMDL
MODEL      131
REMARK 921   NORMALIZED FREE ENERGY PREDICTED BY IDOCK:   -3.86 KCAL/MOL
REMARK 922        TOTAL FREE ENERGY PREDICTED BY IDOCK:   -4.32 KCAL/MOL
REMARK 923 INTER-LIGAND FREE ENERGY PREDICTED BY IDOCK:   -4.25 KCAL/MOL
REMARK 924 INTRA-LIGAND FREE ENERGY PREDICTED BY IDOCK:   -0.07 KCAL/MOL
REMARK 927      BINDING AFFINITY PREDICTED BY RF-SCORE:    0.00 PKD
ROOT
HETATM    1  C   UNL     1     -10.083  19.874  66.148  1.00  0.00    -0.611 C  
HETATM    2  C   UNL     1      -9.942  18.437  66.660  1.00  0.00    -0.382 C  
HETATM    3  C   UNL     1     -10.183  17.451  65.501  1.00  0.00     0.018 C  
HETATM    4  C   UNL     1     -10.877  18.241  67.856  1.00  0.00    -0.232 C  
ENDROOT
BRANCH   3   5
HETATM    5  N   UNL     1     -10.051  16.054  65.862  1.00  0.00    -0.331 NA 
HETATM    6  C   UNL     1     -11.057  15.146  65.643  1.00  0.00    -0.334 A  
HETATM    7  N   UNL     1     -10.698  13.930  65.960  1.00  0.00    -0.284 NA 
HETATM    8  C   UNL     1      -9.414  14.054  66.450  1.00  0.00    -0.259 A  
HETATM    9  C   UNL     1      -8.994  15.391  66.456  1.00  0.00    -0.309 A  
HETATM   10  C   UNL     1      -7.719  15.741  66.989  1.00  0.00    -0.267 A  
HETATM   11  C   UNL     1      -7.190  17.052  67.059  1.00  0.00    -0.224 A  
HETATM   12  C   UNL     1      -5.939  17.283  67.626  1.00  0.00    -0.151 A  
HETATM   13  C   UNL     1      -5.205  16.217  68.128  1.00  0.00    -0.106 A  
HETATM   14  C   UNL     1      -5.723  14.922  68.051  1.00  0.00    -0.148 A  
HETATM   15  C   UNL     1      -6.962  14.653  67.490  1.00  0.00    -0.168 A  
HETATM   16  N   UNL     1      -7.361  13.372  67.456  1.00  0.00    -0.165 NA 
HETATM   17  C   UNL     1      -8.557  13.041  66.926  1.00  0.00    -0.119 A  
HETATM   18  N   UNL     1      -8.900  11.694  66.898  1.00  0.00    -0.183 NA 
HETATM   19  H2  UNL     1      -9.147  11.459  65.937  1.00  0.00     0.000 HD 
HETATM   20  H1  UNL     1      -8.280  10.961  67.242  1.00  0.00     0.000 HD 
ENDBRANCH   3   5
TORSDOF 1
ENDMDL
MODEL      132
REMARK 921   NORMALIZED FREE ENERGY PREDICTED BY IDOCK:   -3.85 KCAL/MOL
REMARK 922        TOTAL FREE ENERGY PREDICTED BY IDOCK:   -4.31 KCAL/MOL
REMARK 923 INTER-LIGAND FREE ENERGY PREDICTED BY IDOCK:   -4.00 KCAL/MOL
REMARK 924 INTRA-LIGAND FREE ENERGY PREDICTED BY IDOCK:   -0.31 KCAL/MOL
REMARK 927      BINDING AFFINITY PREDICTED BY RF-SCORE:    0.00 PKD
ROOT
HETATM    1  C   UNL     1     -11.875  15.939  69.164  1.00  0.00    -0.340 C  
HETATM    2  C   UNL     1     -10.816  15.291  68.267  1.00  0.00    -0.262 C  
HETATM    3  C   UNL     1      -9.538  15.027  69.086  1.00  0.00    -0.202 C  
HETATM    4  C   UNL     1     -10.600  16.171  67.034  1.00  0.00    -0.292 C  
ENDROOT
BRANCH   3   5
HETATM    5  N   UNL     1      -8.469  14.388  68.345  1.00  0.00    -0.160 NA 
HETATM    6  C   UNL     1      -7.336  15.067  67.971  1.00  0.00    -0.127 A  
HETATM    7  N   UNL     1      -6.464  14.284  67.391  1.00  0.00    -0.300 NA 
HETATM    8  C   UNL     1      -7.074  13.047  67.344  1.00  0.00    -0.117 A  
HETATM    9  C   UNL     1      -8.365  13.090  67.887  1.00  0.00    -0.170 A  
HETATM   10  C   UNL     1      -9.189  11.927  67.872  1.00  0.00    -0.187 A  
HETATM   11  C   UNL     1     -10.509  11.849  68.378  1.00  0.00    -0.231 A  
HETATM   12  C   UNL     1     -11.235  10.663  68.287  1.00  0.00    -0.362 A  
HETATM   13  C   UNL     1     -10.659   9.549  67.692  1.00  0.00    -0.329 A  
HETATM   14  C   UNL     1      -9.354   9.623  67.200  1.00  0.00    -0.168 A  
HETATM   15  C   UNL     1      -8.599  10.783  67.278  1.00  0.00    -0.130 A  
HETATM   16  N   UNL     1      -7.352  10.744  66.784  1.00  0.00    -0.122 NA 
HETATM   17  C   UNL     1      -6.564  11.839  66.824  1.00  0.00    -0.060 A  
HETATM   18  N   UNL     1      -5.273  11.725  66.319  1.00  0.00    -0.441 NA 
HETATM   19  H2  UNL     1      -4.630  12.042  67.045  1.00  0.00     0.000 HD 
HETATM   20  H1  UNL     1      -4.905  10.852  65.943  1.00  0.00     0.000 HD 
ENDBRANCH   3   5
TORSDOF 1
ENDMDL
MODEL      133
REMARK 921   NORMALIZED FREE ENERGY PREDICTED BY IDOCK:   -3.84 KCAL/MOL
REMARK 922        TOTAL FREE ENERGY PREDICTED BY IDOCK:   -4.30 KCAL/MOL
REMARK 923 INTER-LIGAND FREE ENERGY PREDICTED BY IDOCK:   -3.88 KCAL/MOL
REMARK 924 INTRA-LIGAND FREE ENERGY PREDICTED BY IDOCK:   -0.42 KCAL/MOL
REMARK 927      BINDING AFFINITY PREDICTED BY RF-SCORE:    0.00 PKD
ROOT
HETATM    1  C   UNL     1      -9.662   8.719  66.825  1.00  0.00    -0.286 C  
HETATM    2  C   UNL     1     -10.281  10.032  67.311  1.00  0.00    -0.275 C  
HETATM    3  C   UNL     1      -9.677  11.210  66.522  1.00  0.00    -0.198 C  
HETATM    4  C   UNL     1     -10.103  10.136  68.827  1.00  0.00    -0.198 C  
ENDROOT
BRANCH   3   5
HETATM    5  N   UNL     1     -10.209  12.510  66.880  1.00  0.00    -0.225 NA 
HETATM    6  C   UNL     1     -11.445  12.933  66.458  1.00  0.00    -0.341 A  
HETATM    7  N   UNL     1     -11.765  14.094  66.966  1.00  0.00    -0.385 NA 
HETATM    8  C   UNL     1     -10.670  14.468  67.717  1.00  0.00    -0.256 A  
HETATM    9  C   UNL     1      -9.645  13.516  67.639  1.00  0.00    -0.222 A  
HETATM   10  C   UNL     1      -8.399  13.747  68.292  1.00  0.00    -0.161 A  
HETATM   11  C   UNL     1      -7.288  12.869  68.278  1.00  0.00    -0.118 A  
HETATM   12  C   UNL     1      -6.107  13.209  68.932  1.00  0.00    -0.083 A  
HETATM   13  C   UNL     1      -6.016  14.421  69.602  1.00  0.00    -0.111 A  
HETATM   14  C   UNL     1      -7.114  15.284  69.624  1.00  0.00    -0.187 A  
HETATM   15  C   UNL     1      -8.308  14.978  68.989  1.00  0.00    -0.194 A  
HETATM   16  N   UNL     1      -9.305  15.872  69.080  1.00  0.00    -0.238 NA 
HETATM   17  C   UNL     1     -10.492  15.639  68.484  1.00  0.00    -0.236 A  
HETATM   18  N   UNL     1     -11.491  16.593  68.638  1.00  0.00    -0.169 NA 
HETATM   19  H2  UNL     1     -12.320  16.116  68.994  1.00  0.00     0.000 HD 
HETATM   20  H1  UNL     1     -11.363  17.439  69.193  1.00  0.00     0.000 HD 
ENDBRANCH   3   5
TORSDOF 1
ENDMDL
MODEL      134
REMARK 921   NORMALIZED FREE ENERGY PREDICTED BY IDOCK:   -3.83 KCAL/MOL
REMARK 922        TOTAL FREE ENERGY PREDICTED BY IDOCK:   -4.29 KCAL/MOL
REMARK 923 INTER-LIGAND FREE ENERGY PREDICTED BY IDOCK:   -3.87 KCAL/MOL
REMARK 924 INTRA-LIGAND FREE ENERGY PREDICTED BY IDOCK:   -0.42 KCAL/MOL
REMARK 927      BINDING AFFINITY PREDICTED BY RF-SCORE:    0.00 PKD
ROOT
HETATM    1  C   UNL     1      -7.656  12.165  68.418  1.00  0.00    -0.128 C  
HETATM    2  C   UNL     1      -7.667  10.634  68.455  1.00  0.00    -0.106 C  
HETATM    3  C   UNL     1      -9.013  10.115  67.916  1.00  0.00    -0.128 C  
HETATM    4  C   UNL     1      -7.337  10.168  69.875  1.00  0.00    -0.169 C  
ENDROOT
BRANCH   3   5
HETATM    5  N   UNL     1      -9.130   8.671  67.879  1.00  0.00    -0.139 NA 
HETATM    6  C   UNL     1      -8.532   7.916  66.900  1.00  0.00    -0.128 A  
HETATM    7  N   UNL     1      -8.690   6.634  67.105  1.00  0.00    -0.111 NA 
HETATM    8  C   UNL     1      -9.463   6.548  68.243  1.00  0.00    -0.118 A  
HETATM    9  C   UNL     1      -9.807   7.817  68.728  1.00  0.00    -0.169 A  
HETATM   10  C   UNL     1     -10.662   7.946  69.862  1.00  0.00    -0.244 A  
HETATM   11  C   UNL     1     -11.087   9.168  70.435  1.00  0.00    -0.293 A  
HETATM   12  C   UNL     1     -11.946   9.177  71.531  1.00  0.00    -0.422 A  
HETATM   13  C   UNL     1     -12.391   7.975  72.065  1.00  0.00    -0.366 A  
HETATM   14  C   UNL     1     -11.965   6.768  71.505  1.00  0.00    -0.396 A  
HETATM   15  C   UNL     1     -11.106   6.721  70.417  1.00  0.00    -0.308 A  
HETATM   16  N   UNL     1     -10.750   5.509  69.963  1.00  0.00    -0.314 NA 
HETATM   17  C   UNL     1      -9.920   5.390  68.906  1.00  0.00    -0.180 A  
HETATM   18  N   UNL     1      -9.569   4.107  68.502  1.00  0.00    -0.148 NA 
HETATM   19  H2  UNL     1      -8.550   4.061  68.471  1.00  0.00     0.000 HD 
HETATM   20  H1  UNL     1      -9.899   3.269  68.981  1.00  0.00     0.000 HD 
ENDBRANCH   3   5
TORSDOF 1
ENDMDL
MODEL      135
REMARK 921   NORMALIZED FREE ENERGY PREDICTED BY IDOCK:   -3.82 KCAL/MOL
REMARK 922        TOTAL FREE ENERGY PREDICTED BY IDOCK:   -4.28 KCAL/MOL
REMARK 923 INTER-LIGAND FREE ENERGY PREDICTED BY IDOCK:   -4.14 KCAL/MOL
REMARK 924 INTRA-LIGAND FREE ENERGY PREDICTED BY IDOCK:   -0.13 KCAL/MOL
REMARK 927      BINDING AFFINITY PREDICTED BY RF-SCORE:    0.00 PKD
ROOT
HETATM    1  C   UNL     1      -5.492  11.743  67.069  1.00  0.00    -0.127 C  
HETATM    2  C   UNL     1      -6.913  11.240  67.338  1.00  0.00    -0.101 C  
HETATM    3  C   UNL     1      -7.108  11.033  68.853  1.00  0.00    -0.098 C  
HETATM    4  C   UNL     1      -7.166   9.988  66.496  1.00  0.00    -0.101 C  
ENDROOT
BRANCH   3   5
HETATM    5  N   UNL     1      -8.431  10.579  69.233  1.00  0.00    -0.153 NA 
HETATM    6  C   UNL     1      -8.629   9.410  69.925  1.00  0.00    -0.191 A  
HETATM    7  N   UNL     1      -9.886   9.236  70.243  1.00  0.00    -0.205 NA 
HETATM    8  C   UNL     1     -10.545  10.317  69.694  1.00  0.00    -0.256 A  
HETATM    9  C   UNL     1      -9.663  11.157  69.000  1.00  0.00    -0.096 A  
HETATM   10  C   UNL     1     -10.158  12.298  68.303  1.00  0.00    -0.218 A  
HETATM   11  C   UNL     1      -9.372  13.211  67.560  1.00  0.00    -0.207 A  
HETATM   12  C   UNL     1      -9.967  14.281  66.894  1.00  0.00    -0.263 A  
HETATM   13  C   UNL     1     -11.342  14.451  66.958  1.00  0.00    -0.357 A  
HETATM   14  C   UNL     1     -12.118  13.554  67.697  1.00  0.00    -0.321 A  
HETATM   15  C   UNL     1     -11.562  12.482  68.377  1.00  0.00    -0.322 A  
HETATM   16  N   UNL     1     -12.395  11.686  69.067  1.00  0.00    -0.279 NA 
HETATM   17  C   UNL     1     -11.920  10.623  69.748  1.00  0.00    -0.291 A  
HETATM   18  N   UNL     1     -12.832   9.855  70.463  1.00  0.00    -0.558 NA 
HETATM   19  H2  UNL     1     -12.494   9.791  71.424  1.00  0.00     0.000 HD 
HETATM   20  H1  UNL     1     -13.827  10.076  70.502  1.00  0.00     0.000 HD 
ENDBRANCH   3   5
TORSDOF 1
ENDMDL
MODEL      136
REMARK 921   NORMALIZED FREE ENERGY PREDICTED BY IDOCK:   -3.81 KCAL/MOL
REMARK 922        TOTAL FREE ENERGY PREDICTED BY IDOCK:   -4.27 KCAL/MOL
REMARK 923 INTER-LIGAND FREE ENERGY PREDICTED BY IDOCK:   -3.84 KCAL/MOL
REMARK 924 INTRA-LIGAND FREE ENERGY PREDICTED BY IDOCK:   -0.42 KCAL/MOL
REMARK 927      BINDING AFFINITY PREDICTED BY RF-SCORE:    0.00 PKD
ROOT
HETATM    1  C   UNL     1      -6.308  11.991  69.671  1.00  0.00    -0.120 C  
HETATM    2  C   UNL     1      -7.194  12.444  68.507  1.00  0.00    -0.103 C  
HETATM    3  C   UNL     1      -8.178  11.316  68.140  1.00  0.00    -0.140 C  
HETATM    4  C   UNL     1      -6.302  12.900  67.351  1.00  0.00    -0.119 C  
ENDROOT
BRANCH   3   5
HETATM    5  N   UNL     1      -9.090  11.641  67.061  1.00  0.00    -0.174 NA 
HETATM    6  C   UNL     1     -10.200  12.424  67.257  1.00  0.00    -0.215 A  
HETATM    7  N   UNL     1     -10.833  12.665  66.139  1.00  0.00    -0.268 NA 
HETATM    8  C   UNL     1     -10.131  11.972  65.175  1.00  0.00    -0.266 A  
HETATM    9  C   UNL     1      -9.055  11.267  65.732  1.00  0.00    -0.203 A  
HETATM   10  C   UNL     1      -8.242  10.432  64.912  1.00  0.00    -0.145 A  
HETATM   11  C   UNL     1      -7.138   9.665  65.358  1.00  0.00    -0.100 A  
HETATM   12  C   UNL     1      -6.427   8.861  64.471  1.00  0.00    -0.071 A  
HETATM   13  C   UNL     1      -6.806   8.809  63.137  1.00  0.00    -0.090 A  
HETATM   14  C   UNL     1      -7.889   9.572  62.693  1.00  0.00    -0.117 A  
HETATM   15  C   UNL     1      -8.617  10.388  63.546  1.00  0.00    -0.188 A  
HETATM   16  N   UNL     1      -9.633  11.087  63.016  1.00  0.00    -0.340 NA 
HETATM   17  C   UNL     1     -10.384  11.897  63.790  1.00  0.00    -0.415 A  
HETATM   18  N   UNL     1     -11.405  12.614  63.175  1.00  0.00    -0.769 NA 
HETATM   19  H2  UNL     1     -11.276  13.598  63.411  1.00  0.00     0.000 HD 
HETATM   20  H1  UNL     1     -11.588  12.560  62.173  1.00  0.00     0.000 HD 
ENDBRANCH   3   5
TORSDOF 1
ENDMDL
MODEL      137
REMARK 921   NORMALIZED FREE ENERGY PREDICTED BY IDOCK:   -3.78 KCAL/MOL
REMARK 922        TOTAL FREE ENERGY PREDICTED BY IDOCK:   -4.24 KCAL/MOL
REMARK 923 INTER-LIGAND FREE ENERGY PREDICTED BY IDOCK:   -4.59 KCAL/MOL
REMARK 924 INTRA-LIGAND FREE ENERGY PREDICTED BY IDOCK:    0.35 KCAL/MOL
REMARK 927      BINDING AFFINITY PREDICTED BY RF-SCORE:    0.00 PKD
ROOT
HETATM    1  C   UNL     1      -6.009  16.714  67.045  1.00  0.00    -0.188 C  
HETATM    2  C   UNL     1      -7.106  16.607  68.108  1.00  0.00    -0.157 C  
HETATM    3  C   UNL     1      -8.426  16.170  67.444  1.00  0.00    -0.170 C  
HETATM    4  C   UNL     1      -7.195  17.933  68.868  1.00  0.00    -0.258 C  
ENDROOT
BRANCH   3   5
HETATM    5  N   UNL     1      -9.537  16.010  68.361  1.00  0.00    -0.203 NA 
HETATM    6  C   UNL     1      -9.999  17.047  69.133  1.00  0.00    -0.229 A  
HETATM    7  N   UNL     1     -11.060  16.711  69.820  1.00  0.00    -0.233 NA 
HETATM    8  C   UNL     1     -11.274  15.382  69.517  1.00  0.00    -0.285 A  
HETATM    9  C   UNL     1     -10.297  14.892  68.641  1.00  0.00    -0.237 A  
HETATM   10  C   UNL     1     -10.301  13.519  68.257  1.00  0.00    -0.253 A  
HETATM   11  C   UNL     1      -9.364  12.905  67.391  1.00  0.00    -0.194 A  
HETATM   12  C   UNL     1      -9.449  11.545  67.103  1.00  0.00    -0.186 A  
HETATM   13  C   UNL     1     -10.459  10.784  67.674  1.00  0.00    -0.252 A  
HETATM   14  C   UNL     1     -11.389  11.390  68.522  1.00  0.00    -0.333 A  
HETATM   15  C   UNL     1     -11.340  12.742  68.827  1.00  0.00    -0.288 A  
HETATM   16  N   UNL     1     -12.288  13.226  69.644  1.00  0.00    -0.170 NA 
HETATM   17  C   UNL     1     -12.298  14.532  69.984  1.00  0.00    -0.323 A  
HETATM   18  N   UNL     1     -13.322  14.976  70.814  1.00  0.00    -0.628 NA 
HETATM   19  H2  UNL     1     -13.769  15.769  70.353  1.00  0.00     0.000 HD 
HETATM   20  H1  UNL     1     -14.062  14.361  71.151  1.00  0.00     0.000 HD 
ENDBRANCH   3   5
TORSDOF 1
ENDMDL
MODEL      138
REMARK 921   NORMALIZED FREE ENERGY PREDICTED BY IDOCK:   -3.77 KCAL/MOL
REMARK 922        TOTAL FREE ENERGY PREDICTED BY IDOCK:   -4.23 KCAL/MOL
REMARK 923 INTER-LIGAND FREE ENERGY PREDICTED BY IDOCK:   -3.98 KCAL/MOL
REMARK 924 INTRA-LIGAND FREE ENERGY PREDICTED BY IDOCK:   -0.25 KCAL/MOL
REMARK 927      BINDING AFFINITY PREDICTED BY RF-SCORE:    0.00 PKD
ROOT
HETATM    1  C   UNL     1     -13.944   7.935  71.473  1.00  0.00    -0.450 C  
HETATM    2  C   UNL     1     -12.425   7.758  71.403  1.00  0.00    -0.342 C  
HETATM    3  C   UNL     1     -12.037   6.396  72.012  1.00  0.00    -0.303 C  
HETATM    4  C   UNL     1     -11.752   8.958  72.072  1.00  0.00    -0.438 C  
ENDROOT
BRANCH   3   5
HETATM    5  N   UNL     1     -10.618   6.104  71.979  1.00  0.00    -0.211 NA 
HETATM    6  C   UNL     1      -9.876   5.966  73.125  1.00  0.00    -0.168 A  
HETATM    7  N   UNL     1      -8.642   5.617  72.871  1.00  0.00    -0.122 NA 
HETATM    8  C   UNL     1      -8.561   5.570  71.495  1.00  0.00    -0.132 A  
HETATM    9  C   UNL     1      -9.778   5.927  70.897  1.00  0.00    -0.172 A  
HETATM   10  C   UNL     1      -9.885   6.006  69.478  1.00  0.00    -0.202 A  
HETATM   11  C   UNL     1     -11.051   6.365  68.760  1.00  0.00    -0.404 A  
HETATM   12  C   UNL     1     -11.035   6.435  67.369  1.00  0.00    -0.463 A  
HETATM   13  C   UNL     1      -9.864   6.153  66.681  1.00  0.00    -0.202 A  
HETATM   14  C   UNL     1      -8.715   5.791  67.387  1.00  0.00    -0.107 A  
HETATM   15  C   UNL     1      -8.694   5.705  68.771  1.00  0.00    -0.106 A  
HETATM   16  N   UNL     1      -7.540   5.338  69.351  1.00  0.00    -0.068 NA 
HETATM   17  C   UNL     1      -7.450   5.238  70.693  1.00  0.00    -0.071 A  
HETATM   18  N   UNL     1      -6.234   4.827  71.229  1.00  0.00    -0.018 NA 
HETATM   19  H2  UNL     1      -6.421   4.032  71.841  1.00  0.00     0.000 HD 
HETATM   20  H1  UNL     1      -5.430   4.587  70.650  1.00  0.00     0.000 HD 
ENDBRANCH   3   5
TORSDOF 1
ENDMDL
MODEL      139
REMARK 921   NORMALIZED FREE ENERGY PREDICTED BY IDOCK:   -3.77 KCAL/MOL
REMARK 922        TOTAL FREE ENERGY PREDICTED BY IDOCK:   -4.23 KCAL/MOL
REMARK 923 INTER-LIGAND FREE ENERGY PREDICTED BY IDOCK:   -3.92 KCAL/MOL
REMARK 924 INTRA-LIGAND FREE ENERGY PREDICTED BY IDOCK:   -0.31 KCAL/MOL
REMARK 927      BINDING AFFINITY PREDICTED BY RF-SCORE:    0.00 PKD
ROOT
HETATM    1  C   UNL     1     -11.767   6.785  71.495  1.00  0.00    -0.361 C  
HETATM    2  C   UNL     1     -10.702   7.017  70.420  1.00  0.00    -0.259 C  
HETATM    3  C   UNL     1     -11.210   6.482  69.068  1.00  0.00    -0.284 C  
HETATM    4  C   UNL     1      -9.382   6.398  70.885  1.00  0.00    -0.168 C  
ENDROOT
BRANCH   3   5
HETATM    5  N   UNL     1     -10.291   6.669  67.963  1.00  0.00    -0.173 NA 
HETATM    6  C   UNL     1      -9.526   5.642  67.468  1.00  0.00    -0.114 A  
HETATM    7  N   UNL     1      -8.836   6.005  66.419  1.00  0.00    -0.132 NA 
HETATM    8  C   UNL     1      -9.128   7.343  66.247  1.00  0.00    -0.156 A  
HETATM    9  C   UNL     1     -10.001   7.809  67.239  1.00  0.00    -0.212 A  
HETATM   10  C   UNL     1     -10.374   9.185  67.278  1.00  0.00    -0.338 A  
HETATM   11  C   UNL     1     -11.235   9.775  68.234  1.00  0.00    -0.074 A  
HETATM   12  C   UNL     1     -11.512  11.140  68.192  1.00  0.00    -0.373 A  
HETATM   13  C   UNL     1     -10.935  11.928  67.207  1.00  0.00    -0.319 A  
HETATM   14  C   UNL     1     -10.091  11.345  66.258  1.00  0.00    -0.263 A  
HETATM   15  C   UNL     1      -9.797   9.990  66.265  1.00  0.00    -0.236 A  
HETATM   16  N   UNL     1      -8.983   9.529  65.302  1.00  0.00    -0.186 NA 
HETATM   17  C   UNL     1      -8.653   8.222  65.251  1.00  0.00    -0.132 A  
HETATM   18  N   UNL     1      -7.827   7.804  64.214  1.00  0.00    -0.134 NA 
HETATM   19  H2  UNL     1      -8.294   7.029  63.742  1.00  0.00     0.000 HD 
HETATM   20  H1  UNL     1      -7.484   8.439  63.494  1.00  0.00     0.000 HD 
ENDBRANCH   3   5
TORSDOF 1
ENDMDL
MODEL      140
REMARK 921   NORMALIZED FREE ENERGY PREDICTED BY IDOCK:   -3.76 KCAL/MOL
REMARK 922        TOTAL FREE ENERGY PREDICTED BY IDOCK:   -4.21 KCAL/MOL
REMARK 923 INTER-LIGAND FREE ENERGY PREDICTED BY IDOCK:   -3.93 KCAL/MOL
REMARK 924 INTRA-LIGAND FREE ENERGY PREDICTED BY IDOCK:   -0.28 KCAL/MOL
REMARK 927      BINDING AFFINITY PREDICTED BY RF-SCORE:    0.00 PKD
ROOT
HETATM    1  C   UNL     1     -13.003  13.646  65.359  1.00  0.00    -0.331 C  
HETATM    2  C   UNL     1     -11.690  14.398  65.594  1.00  0.00    -0.356 C  
HETATM    3  C   UNL     1     -11.647  14.919  67.044  1.00  0.00    -0.304 C  
HETATM    4  C   UNL     1     -11.544  15.490  64.531  1.00  0.00    -0.283 C  
ENDROOT
BRANCH   3   5
HETATM    5  N   UNL     1     -10.433  15.630  67.392  1.00  0.00    -0.284 NA 
HETATM    6  C   UNL     1     -10.430  16.974  67.671  1.00  0.00    -0.343 A  
HETATM    7  N   UNL     1      -9.251  17.394  68.047  1.00  0.00    -0.259 NA 
HETATM    8  C   UNL     1      -8.435  16.285  67.966  1.00  0.00    -0.174 A  
HETATM    9  C   UNL     1      -9.137  15.164  67.502  1.00  0.00    -0.183 A  
HETATM   10  C   UNL     1      -8.457  13.931  67.284  1.00  0.00    -0.212 A  
HETATM   11  C   UNL     1      -9.052  12.737  66.808  1.00  0.00    -0.209 A  
HETATM   12  C   UNL     1      -8.285  11.593  66.607  1.00  0.00    -0.140 A  
HETATM   13  C   UNL     1      -6.923  11.623  66.873  1.00  0.00    -0.123 A  
HETATM   14  C   UNL     1      -6.336  12.798  67.350  1.00  0.00    -0.139 A  
HETATM   15  C   UNL     1      -7.069  13.955  67.567  1.00  0.00    -0.158 A  
HETATM   16  N   UNL     1      -6.410  15.025  68.038  1.00  0.00    -0.136 NA 
HETATM   17  C   UNL     1      -7.061  16.184  68.269  1.00  0.00    -0.128 A  
HETATM   18  N   UNL     1      -6.326  17.247  68.780  1.00  0.00    -0.173 NA 
HETATM   19  H2  UNL     1      -6.802  17.574  69.622  1.00  0.00     0.000 HD 
HETATM   20  H1  UNL     1      -5.333  17.175  68.999  1.00  0.00     0.000 HD 
ENDBRANCH   3   5
TORSDOF 1
ENDMDL
MODEL      141
REMARK 921   NORMALIZED FREE ENERGY PREDICTED BY IDOCK:   -3.75 KCAL/MOL
REMARK 922        TOTAL FREE ENERGY PREDICTED BY IDOCK:   -4.21 KCAL/MOL
REMARK 923 INTER-LIGAND FREE ENERGY PREDICTED BY IDOCK:   -3.78 KCAL/MOL
REMARK 924 INTRA-LIGAND FREE ENERGY PREDICTED BY IDOCK:   -0.42 KCAL/MOL
REMARK 927      BINDING AFFINITY PREDICTED BY RF-SCORE:    0.00 PKD
ROOT
HETATM    1  C   UNL     1     -11.646   5.252  72.662  1.00  0.00    -0.226 C  
HETATM    2  C   UNL     1     -10.556   5.842  71.763  1.00  0.00    -0.293 C  
HETATM    3  C   UNL     1     -10.088   7.192  72.338  1.00  0.00    -0.182 C  
HETATM    4  C   UNL     1     -11.083   5.920  70.328  1.00  0.00    -0.368 C  
ENDROOT
BRANCH   3   5
HETATM    5  N   UNL     1      -9.034   7.836  71.580  1.00  0.00    -0.126 NA 
HETATM    6  C   UNL     1      -7.723   7.437  71.671  1.00  0.00    -0.086 A  
HETATM    7  N   UNL     1      -6.953   8.090  70.840  1.00  0.00    -0.044 NA 
HETATM    8  C   UNL     1      -7.791   8.988  70.211  1.00  0.00    -0.109 A  
HETATM    9  C   UNL     1      -9.102   8.893  70.695  1.00  0.00    -0.207 A  
HETATM   10  C   UNL     1     -10.109   9.783  70.219  1.00  0.00    -0.323 A  
HETATM   11  C   UNL     1     -11.461   9.793  70.639  1.00  0.00    -0.397 A  
HETATM   12  C   UNL     1     -12.357  10.728  70.124  1.00  0.00    -0.401 A  
HETATM   13  C   UNL     1     -11.919  11.659  69.194  1.00  0.00    -0.378 A  
HETATM   14  C   UNL     1     -10.587  11.645  68.773  1.00  0.00    -0.241 A  
HETATM   15  C   UNL     1      -9.668  10.727  69.259  1.00  0.00    -0.120 A  
HETATM   16  N   UNL     1      -8.415  10.793  68.781  1.00  0.00    -0.142 NA 
HETATM   17  C   UNL     1      -7.471   9.932  69.212  1.00  0.00    -0.096 A  
HETATM   18  N   UNL     1      -6.200  10.036  68.659  1.00  0.00    -0.045 NA 
HETATM   19  H2  UNL     1      -5.942   9.115  68.303  1.00  0.00     0.000 HD 
HETATM   20  H1  UNL     1      -5.969  10.719  67.937  1.00  0.00     0.000 HD 
ENDBRANCH   3   5
TORSDOF 1
ENDMDL
MODEL      142
REMARK 921   NORMALIZED FREE ENERGY PREDICTED BY IDOCK:   -3.75 KCAL/MOL
REMARK 922        TOTAL FREE ENERGY PREDICTED BY IDOCK:   -4.20 KCAL/MOL
REMARK 923 INTER-LIGAND FREE ENERGY PREDICTED BY IDOCK:   -4.05 KCAL/MOL
REMARK 924 INTRA-LIGAND FREE ENERGY PREDICTED BY IDOCK:   -0.15 KCAL/MOL
REMARK 927      BINDING AFFINITY PREDICTED BY RF-SCORE:    0.00 PKD
ROOT
HETATM    1  C   UNL     1     -10.423  14.892  65.252  1.00  0.00    -0.427 C  
HETATM    2  C   UNL     1     -11.026  13.829  66.174  1.00  0.00    -0.292 C  
HETATM    3  C   UNL     1      -9.896  12.993  66.805  1.00  0.00    -0.243 C  
HETATM    4  C   UNL     1     -12.048  13.007  65.384  1.00  0.00    -0.490 C  
ENDROOT
BRANCH   3   5
HETATM    5  N   UNL     1     -10.347  11.965  67.722  1.00  0.00    -0.195 NA 
HETATM    6  C   UNL     1     -11.358  12.186  68.625  1.00  0.00    -0.280 A  
HETATM    7  N   UNL     1     -11.666  11.104  69.290  1.00  0.00    -0.303 NA 
HETATM    8  C   UNL     1     -10.787  10.144  68.834  1.00  0.00    -0.223 A  
HETATM    9  C   UNL     1      -9.902  10.668  67.882  1.00  0.00    -0.161 A  
HETATM   10  C   UNL     1      -8.869   9.852  67.336  1.00  0.00    -0.137 A  
HETATM   11  C   UNL     1      -7.911  10.269  66.380  1.00  0.00    -0.119 A  
HETATM   12  C   UNL     1      -6.927   9.391  65.933  1.00  0.00    -0.090 A  
HETATM   13  C   UNL     1      -6.883   8.096  66.430  1.00  0.00    -0.066 A  
HETATM   14  C   UNL     1      -7.833   7.681  67.367  1.00  0.00    -0.118 A  
HETATM   15  C   UNL     1      -8.830   8.524  67.831  1.00  0.00    -0.137 A  
HETATM   16  N   UNL     1      -9.699   8.023  68.723  1.00  0.00    -0.153 NA 
HETATM   17  C   UNL     1     -10.692   8.790  69.219  1.00  0.00    -0.151 A  
HETATM   18  N   UNL     1     -11.574   8.203  70.119  1.00  0.00    -0.468 NA 
HETATM   19  H2  UNL     1     -12.520   8.356  69.768  1.00  0.00     0.000 HD 
HETATM   20  H1  UNL     1     -11.506   7.224  70.397  1.00  0.00     0.000 HD 
ENDBRANCH   3   5
TORSDOF 1
ENDMDL
MODEL      143
REMARK 921   NORMALIZED FREE ENERGY PREDICTED BY IDOCK:   -3.74 KCAL/MOL
REMARK 922        TOTAL FREE ENERGY PREDICTED BY IDOCK:   -4.19 KCAL/MOL
REMARK 923 INTER-LIGAND FREE ENERGY PREDICTED BY IDOCK:   -3.90 KCAL/MOL
REMARK 924 INTRA-LIGAND FREE ENERGY PREDICTED BY IDOCK:   -0.29 KCAL/MOL
REMARK 927      BINDING AFFINITY PREDICTED BY RF-SCORE:    0.00 PKD
ROOT
HETATM    1  C   UNL     1      -7.802  10.172  68.058  1.00  0.00    -0.096 C  
HETATM    2  C   UNL     1      -7.922  11.630  68.510  1.00  0.00    -0.144 C  
HETATM    3  C   UNL     1      -8.275  12.517  67.301  1.00  0.00    -0.184 C  
HETATM    4  C   UNL     1      -6.634  12.036  69.231  1.00  0.00    -0.109 C  
ENDROOT
BRANCH   3   5
HETATM    5  N   UNL     1      -8.440  13.923  67.613  1.00  0.00    -0.178 NA 
HETATM    6  C   UNL     1      -7.557  14.876  67.169  1.00  0.00    -0.110 A  
HETATM    7  N   UNL     1      -7.940  16.085  67.488  1.00  0.00    -0.136 NA 
HETATM    8  C   UNL     1      -9.102  15.911  68.211  1.00  0.00    -0.185 A  
HETATM    9  C   UNL     1      -9.417  14.554  68.357  1.00  0.00    -0.209 A  
HETATM   10  C   UNL     1     -10.547  14.159  69.131  1.00  0.00    -0.176 A  
HETATM   11  C   UNL     1     -10.959  12.824  69.361  1.00  0.00    -0.041 A  
HETATM   12  C   UNL     1     -12.069  12.551  70.157  1.00  0.00    -0.368 A  
HETATM   13  C   UNL     1     -12.775  13.597  70.734  1.00  0.00    -0.338 A  
HETATM   14  C   UNL     1     -12.374  14.915  70.501  1.00  0.00    -0.400 A  
HETATM   15  C   UNL     1     -11.278  15.226  69.710  1.00  0.00    -0.286 A  
HETATM   16  N   UNL     1     -10.984  16.525  69.542  1.00  0.00    -0.315 NA 
HETATM   17  C   UNL     1      -9.930  16.897  68.787  1.00  0.00    -0.276 A  
HETATM   18  N   UNL     1      -9.695  18.259  68.632  1.00  0.00    -0.352 NA 
HETATM   19  H2  UNL     1      -9.642  18.449  67.631  1.00  0.00     0.000 HD 
HETATM   20  H1  UNL     1     -10.294  18.971  69.048  1.00  0.00     0.000 HD 
ENDBRANCH   3   5
TORSDOF 1
ENDMDL
MODEL      144
REMARK 921   NORMALIZED FREE ENERGY PREDICTED BY IDOCK:   -3.73 KCAL/MOL
REMARK 922        TOTAL FREE ENERGY PREDICTED BY IDOCK:   -4.19 KCAL/MOL
REMARK 923 INTER-LIGAND FREE ENERGY PREDICTED BY IDOCK:   -3.80 KCAL/MOL
REMARK 924 INTRA-LIGAND FREE ENERGY PREDICTED BY IDOCK:   -0.39 KCAL/MOL
REMARK 927      BINDING AFFINITY PREDICTED BY RF-SCORE:    0.00 PKD
ROOT
HETATM    1  C   UNL     1      -5.525   7.816  70.230  1.00  0.00    -0.023 C  
HETATM    2  C   UNL     1      -7.045   7.766  70.054  1.00  0.00    -0.054 C  
HETATM    3  C   UNL     1      -7.729   8.334  71.312  1.00  0.00    -0.099 C  
HETATM    4  C   UNL     1      -7.460   6.334  69.706  1.00  0.00    -0.081 C  
ENDROOT
BRANCH   3   5
HETATM    5  N   UNL     1      -9.177   8.361  71.250  1.00  0.00    -0.162 NA 
HETATM    6  C   UNL     1      -9.862   9.393  70.658  1.00  0.00    -0.276 A  
HETATM    7  N   UNL     1     -11.151   9.176  70.634  1.00  0.00    -0.251 NA 
HETATM    8  C   UNL     1     -11.320   7.969  71.279  1.00  0.00    -0.264 A  
HETATM    9  C   UNL     1     -10.099   7.452  71.732  1.00  0.00    -0.175 A  
HETATM   10  C   UNL     1     -10.065   6.242  72.484  1.00  0.00    -0.193 A  
HETATM   11  C   UNL     1      -8.899   5.629  73.003  1.00  0.00    -0.123 A  
HETATM   12  C   UNL     1      -8.986   4.456  73.749  1.00  0.00    -0.102 A  
HETATM   13  C   UNL     1     -10.228   3.884  73.987  1.00  0.00    -0.222 A  
HETATM   14  C   UNL     1     -11.378   4.483  73.468  1.00  0.00    -0.355 A  
HETATM   15  C   UNL     1     -11.330   5.648  72.717  1.00  0.00    -0.299 A  
HETATM   16  N   UNL     1     -12.493   6.135  72.257  1.00  0.00    -0.126 NA 
HETATM   17  C   UNL     1     -12.519   7.266  71.522  1.00  0.00    -0.373 A  
HETATM   18  N   UNL     1     -13.753   7.704  71.053  1.00  0.00    -0.616 NA 
HETATM   19  H2  UNL     1     -13.671   7.831  70.044  1.00  0.00     0.000 HD 
HETATM   20  H1  UNL     1     -14.620   7.196  71.229  1.00  0.00     0.000 HD 
ENDBRANCH   3   5
TORSDOF 1
ENDMDL
MODEL      145
REMARK 921   NORMALIZED FREE ENERGY PREDICTED BY IDOCK:   -3.65 KCAL/MOL
REMARK 922        TOTAL FREE ENERGY PREDICTED BY IDOCK:   -4.10 KCAL/MOL
REMARK 923 INTER-LIGAND FREE ENERGY PREDICTED BY IDOCK:   -3.79 KCAL/MOL
REMARK 924 INTRA-LIGAND FREE ENERGY PREDICTED BY IDOCK:   -0.31 KCAL/MOL
REMARK 927      BINDING AFFINITY PREDICTED BY RF-SCORE:    0.00 PKD
ROOT
HETATM    1  C   UNL     1     -10.857  17.010  68.069  1.00  0.00    -0.330 C  
HETATM    2  C   UNL     1     -10.667  15.491  68.090  1.00  0.00    -0.282 C  
HETATM    3  C   UNL     1     -10.771  14.938  66.655  1.00  0.00    -0.312 C  
HETATM    4  C   UNL     1     -11.667  14.878  69.073  1.00  0.00    -0.347 C  
ENDROOT
BRANCH   3   5
HETATM    5  N   UNL     1     -10.582  13.506  66.547  1.00  0.00    -0.279 NA 
HETATM    6  C   UNL     1     -11.621  12.653  66.263  1.00  0.00    -0.386 A  
HETATM    7  N   UNL     1     -11.216  11.418  66.124  1.00  0.00    -0.207 NA 
HETATM    8  C   UNL     1      -9.860  11.457  66.372  1.00  0.00    -0.211 A  
HETATM    9  C   UNL     1      -9.435  12.752  66.698  1.00  0.00    -0.249 A  
HETATM   10  C   UNL     1      -8.076  12.994  67.055  1.00  0.00    -0.043 A  
HETATM   11  C   UNL     1      -7.532  14.250  67.414  1.00  0.00    -0.172 A  
HETATM   12  C   UNL     1      -6.190  14.367  67.771  1.00  0.00    -0.151 A  
HETATM   13  C   UNL     1      -5.381  13.239  67.778  1.00  0.00    -0.088 A  
HETATM   14  C   UNL     1      -5.915  12.000  67.416  1.00  0.00    -0.130 A  
HETATM   15  C   UNL     1      -7.244  11.847  67.050  1.00  0.00    -0.118 A  
HETATM   16  N   UNL     1      -7.654  10.614  66.710  1.00  0.00    -0.114 NA 
HETATM   17  C   UNL     1      -8.934  10.394  66.346  1.00  0.00    -0.149 A  
HETATM   18  N   UNL     1      -9.288   9.100  65.981  1.00  0.00    -0.219 NA 
HETATM   19  H2  UNL     1      -9.724   9.148  65.060  1.00  0.00     0.000 HD 
HETATM   20  H1  UNL     1      -8.618   8.331  65.962  1.00  0.00     0.000 HD 
ENDBRANCH   3   5
TORSDOF 1
ENDMDL
MODEL      146
REMARK 921   NORMALIZED FREE ENERGY PREDICTED BY IDOCK:   -3.63 KCAL/MOL
REMARK 922        TOTAL FREE ENERGY PREDICTED BY IDOCK:   -4.07 KCAL/MOL
REMARK 923 INTER-LIGAND FREE ENERGY PREDICTED BY IDOCK:   -3.77 KCAL/MOL
REMARK 924 INTRA-LIGAND FREE ENERGY PREDICTED BY IDOCK:   -0.30 KCAL/MOL
REMARK 927      BINDING AFFINITY PREDICTED BY RF-SCORE:    0.00 PKD
ROOT
HETATM    1  C   UNL     1     -12.152  12.066  63.723  1.00  0.00    -0.599 C  
HETATM    2  C   UNL     1     -11.127  12.794  64.596  1.00  0.00    -0.349 C  
HETATM    3  C   UNL     1     -11.320  12.385  66.069  1.00  0.00    -0.353 C  
HETATM    4  C   UNL     1     -11.237  14.300  64.343  1.00  0.00    -0.262 C  
ENDROOT
BRANCH   3   5
HETATM    5  N   UNL     1     -10.383  12.996  66.991  1.00  0.00    -0.246 NA 
HETATM    6  C   UNL     1     -10.732  14.062  67.784  1.00  0.00    -0.243 A  
HETATM    7  N   UNL     1      -9.769  14.399  68.602  1.00  0.00    -0.220 NA 
HETATM    8  C   UNL     1      -8.729  13.545  68.299  1.00  0.00    -0.172 A  
HETATM    9  C   UNL     1      -9.063  12.682  67.247  1.00  0.00    -0.191 A  
HETATM   10  C   UNL     1      -8.099  11.764  66.737  1.00  0.00    -0.133 A  
HETATM   11  C   UNL     1      -8.313  10.854  65.674  1.00  0.00    -0.105 A  
HETATM   12  C   UNL     1      -7.287  10.017  65.239  1.00  0.00    -0.137 A  
HETATM   13  C   UNL     1      -6.044  10.079  65.852  1.00  0.00    -0.080 A  
HETATM   14  C   UNL     1      -5.834  10.972  66.906  1.00  0.00    -0.083 A  
HETATM   15  C   UNL     1      -6.832  11.815  67.370  1.00  0.00    -0.122 A  
HETATM   16  N   UNL     1      -6.529  12.627  68.395  1.00  0.00    -0.072 NA 
HETATM   17  C   UNL     1      -7.452  13.475  68.893  1.00  0.00    -0.017 A  
HETATM   18  N   UNL     1      -7.082  14.271  69.973  1.00  0.00    -0.386 NA 
HETATM   19  H2  UNL     1      -7.772  14.128  70.711  1.00  0.00     0.000 HD 
HETATM   20  H1  UNL     1      -6.159  14.220  70.402  1.00  0.00     0.000 HD 
ENDBRANCH   3   5
TORSDOF 1
ENDMDL
MODEL      147
REMARK 921   NORMALIZED FREE ENERGY PREDICTED BY IDOCK:   -3.58 KCAL/MOL
REMARK 922        TOTAL FREE ENERGY PREDICTED BY IDOCK:   -4.02 KCAL/MOL
REMARK 923 INTER-LIGAND FREE ENERGY PREDICTED BY IDOCK:   -3.73 KCAL/MOL
REMARK 924 INTRA-LIGAND FREE ENERGY PREDICTED BY IDOCK:   -0.29 KCAL/MOL
REMARK 927      BINDING AFFINITY PREDICTED BY RF-SCORE:    0.00 PKD
ROOT
HETATM    1  C   UNL     1     -11.092   7.134  73.227  1.00  0.00    -0.252 C  
HETATM    2  C   UNL     1     -11.145   7.337  71.710  1.00  0.00    -0.265 C  
HETATM    3  C   UNL     1      -9.896   8.113  71.249  1.00  0.00    -0.164 C  
HETATM    4  C   UNL     1     -12.471   8.007  71.343  1.00  0.00    -0.320 C  
ENDROOT
BRANCH   3   5
HETATM    5  N   UNL     1      -9.823   8.344  69.820  1.00  0.00    -0.184 NA 
HETATM    6  C   UNL     1      -9.947   9.599  69.278  1.00  0.00    -0.191 A  
HETATM    7  N   UNL     1      -9.762   9.594  67.984  1.00  0.00    -0.144 NA 
HETATM    8  C   UNL     1      -9.554   8.269  67.659  1.00  0.00    -0.152 A  
HETATM    9  C   UNL     1      -9.642   7.444  68.789  1.00  0.00    -0.147 A  
HETATM   10  C   UNL     1      -9.523   6.030  68.656  1.00  0.00    -0.134 A  
HETATM   11  C   UNL     1      -9.605   5.095  69.716  1.00  0.00    -0.242 A  
HETATM   12  C   UNL     1      -9.500   3.729  69.467  1.00  0.00    -0.257 A  
HETATM   13  C   UNL     1      -9.316   3.279  68.167  1.00  0.00    -0.244 A  
HETATM   14  C   UNL     1      -9.226   4.201  67.121  1.00  0.00    -0.176 A  
HETATM   15  C   UNL     1      -9.321   5.568  67.331  1.00  0.00    -0.114 A  
HETATM   16  N   UNL     1      -9.211   6.368  66.258  1.00  0.00    -0.157 NA 
HETATM   17  C   UNL     1      -9.297   7.708  66.391  1.00  0.00    -0.172 A  
HETATM   18  N   UNL     1      -9.149   8.481  65.245  1.00  0.00    -0.419 NA 
HETATM   19  H2  UNL     1      -8.418   9.169  65.430  1.00  0.00     0.000 HD 
HETATM   20  H1  UNL     1      -8.963   8.076  64.328  1.00  0.00     0.000 HD 
ENDBRANCH   3   5
TORSDOF 1
ENDMDL
MODEL      148
REMARK 921   NORMALIZED FREE ENERGY PREDICTED BY IDOCK:   -3.57 KCAL/MOL
REMARK 922        TOTAL FREE ENERGY PREDICTED BY IDOCK:   -4.02 KCAL/MOL
REMARK 923 INTER-LIGAND FREE ENERGY PREDICTED BY IDOCK:   -3.62 KCAL/MOL
REMARK 924 INTRA-LIGAND FREE ENERGY PREDICTED BY IDOCK:   -0.40 KCAL/MOL
REMARK 927      BINDING AFFINITY PREDICTED BY RF-SCORE:    0.00 PKD
ROOT
HETATM    1  C   UNL     1      -8.919   3.737  67.010  1.00  0.00    -0.157 C  
HETATM    2  C   UNL     1      -8.859   4.236  68.457  1.00  0.00    -0.134 C  
HETATM    3  C   UNL     1     -10.234   4.797  68.867  1.00  0.00    -0.011 C  
HETATM    4  C   UNL     1      -7.708   5.236  68.591  1.00  0.00    -0.083 C  
ENDROOT
BRANCH   3   5
HETATM    5  N   UNL     1     -10.305   5.279  70.232  1.00  0.00    -0.279 NA 
HETATM    6  C   UNL     1     -10.258   4.428  71.308  1.00  0.00    -0.067 A  
HETATM    7  N   UNL     1     -10.248   5.075  72.444  1.00  0.00    -0.194 NA 
HETATM    8  C   UNL     1     -10.337   6.407  72.096  1.00  0.00    -0.189 A  
HETATM    9  C   UNL     1     -10.432   6.569  70.707  1.00  0.00    -0.220 A  
HETATM   10  C   UNL     1     -10.600   7.869  70.146  1.00  0.00    -0.237 A  
HETATM   11  C   UNL     1     -10.719   8.159  68.766  1.00  0.00    -0.074 A  
HETATM   12  C   UNL     1     -10.907   9.468  68.329  1.00  0.00    -0.194 A  
HETATM   13  C   UNL     1     -10.981  10.497  69.256  1.00  0.00    -0.291 A  
HETATM   14  C   UNL     1     -10.855  10.214  70.619  1.00  0.00    -0.305 A  
HETATM   15  C   UNL     1     -10.662   8.924  71.090  1.00  0.00    -0.263 A  
HETATM   16  N   UNL     1     -10.544   8.762  72.418  1.00  0.00    -0.248 NA 
HETATM   17  C   UNL     1     -10.357   7.534  72.944  1.00  0.00    -0.296 A  
HETATM   18  N   UNL     1     -10.216   7.437  74.324  1.00  0.00    -0.376 NA 
HETATM   19  H2  UNL     1      -9.351   6.929  74.510  1.00  0.00     0.000 HD 
HETATM   20  H1  UNL     1     -10.230   8.252  74.937  1.00  0.00     0.000 HD 
ENDBRANCH   3   5
TORSDOF 1
ENDMDL
MODEL      149
REMARK 921   NORMALIZED FREE ENERGY PREDICTED BY IDOCK:   -3.57 KCAL/MOL
REMARK 922        TOTAL FREE ENERGY PREDICTED BY IDOCK:   -4.02 KCAL/MOL
REMARK 923 INTER-LIGAND FREE ENERGY PREDICTED BY IDOCK:   -4.17 KCAL/MOL
REMARK 924 INTRA-LIGAND FREE ENERGY PREDICTED BY IDOCK:    0.15 KCAL/MOL
REMARK 927      BINDING AFFINITY PREDICTED BY RF-SCORE:    0.00 PKD
ROOT
HETATM    1  C   UNL     1     -12.731  15.669  71.558  1.00  0.00    -0.522 C  
HETATM    2  C   UNL     1     -11.887  14.512  71.016  1.00  0.00    -0.350 C  
HETATM    3  C   UNL     1     -11.586  14.748  69.524  1.00  0.00    -0.304 C  
HETATM    4  C   UNL     1     -12.604  13.192  71.311  1.00  0.00    -0.382 C  
ENDROOT
BRANCH   3   5
HETATM    5  N   UNL     1     -10.768  13.725  68.905  1.00  0.00    -0.246 NA 
HETATM    6  C   UNL     1     -11.251  12.467  68.639  1.00  0.00    -0.278 A  
HETATM    7  N   UNL     1     -10.379  11.732  68.001  1.00  0.00    -0.192 NA 
HETATM    8  C   UNL     1      -9.259  12.529  67.884  1.00  0.00    -0.200 A  
HETATM    9  C   UNL     1      -9.450  13.776  68.495  1.00  0.00    -0.162 A  
HETATM   10  C   UNL     1      -8.385  14.722  68.543  1.00  0.00    -0.160 A  
HETATM   11  C   UNL     1      -8.453  16.005  69.139  1.00  0.00    -0.247 A  
HETATM   12  C   UNL     1      -7.339  16.841  69.150  1.00  0.00    -0.213 A  
HETATM   13  C   UNL     1      -6.152  16.412  68.575  1.00  0.00    -0.123 A  
HETATM   14  C   UNL     1      -6.086  15.150  67.979  1.00  0.00    -0.159 A  
HETATM   15  C   UNL     1      -7.175  14.292  67.943  1.00  0.00    -0.158 A  
HETATM   16  N   UNL     1      -7.010  13.106  67.337  1.00  0.00    -0.146 NA 
HETATM   17  C   UNL     1      -8.027  12.223  67.269  1.00  0.00    -0.177 A  
HETATM   18  N   UNL     1      -7.798  11.023  66.605  1.00  0.00    -0.148 NA 
HETATM   19  H2  UNL     1      -8.527  10.918  65.899  1.00  0.00     0.000 HD 
HETATM   20  H1  UNL     1      -6.907  10.802  66.160  1.00  0.00     0.000 HD 
ENDBRANCH   3   5
TORSDOF 1
ENDMDL
MODEL      150
REMARK 921   NORMALIZED FREE ENERGY PREDICTED BY IDOCK:   -3.57 KCAL/MOL
REMARK 922        TOTAL FREE ENERGY PREDICTED BY IDOCK:   -4.02 KCAL/MOL
REMARK 923 INTER-LIGAND FREE ENERGY PREDICTED BY IDOCK:   -4.24 KCAL/MOL
REMARK 924 INTRA-LIGAND FREE ENERGY PREDICTED BY IDOCK:    0.22 KCAL/MOL
REMARK 927      BINDING AFFINITY PREDICTED BY RF-SCORE:    0.00 PKD
ROOT
HETATM    1  C   UNL     1     -12.351  13.280  70.608  1.00  0.00    -0.416 C  
HETATM    2  C   UNL     1     -12.051  12.538  69.302  1.00  0.00    -0.214 C  
HETATM    3  C   UNL     1     -10.706  11.798  69.427  1.00  0.00     0.003 C  
HETATM    4  C   UNL     1     -12.117  13.530  68.139  1.00  0.00    -0.290 C  
ENDROOT
BRANCH   3   5
HETATM    5  N   UNL     1     -10.327  11.036  68.254  1.00  0.00    -0.171 NA 
HETATM    6  C   UNL     1     -10.001  11.641  67.065  1.00  0.00    -0.204 A  
HETATM    7  N   UNL     1      -9.605  10.777  66.168  1.00  0.00    -0.187 NA 
HETATM    8  C   UNL     1      -9.722   9.547  66.782  1.00  0.00    -0.197 A  
HETATM    9  C   UNL     1     -10.229   9.669  68.083  1.00  0.00    -0.190 A  
HETATM   10  C   UNL     1     -10.487   8.506  68.865  1.00  0.00    -0.207 A  
HETATM   11  C   UNL     1     -11.008   8.500  70.182  1.00  0.00    -0.221 A  
HETATM   12  C   UNL     1     -11.246   7.298  70.845  1.00  0.00    -0.298 A  
HETATM   13  C   UNL     1     -10.973   6.096  70.208  1.00  0.00    -0.417 A  
HETATM   14  C   UNL     1     -10.452   6.101  68.912  1.00  0.00    -0.293 A  
HETATM   15  C   UNL     1     -10.197   7.276  68.222  1.00  0.00    -0.180 A  
HETATM   16  N   UNL     1      -9.686   7.170  66.985  1.00  0.00    -0.159 NA 
HETATM   17  C   UNL     1      -9.417   8.274  66.258  1.00  0.00    -0.203 A  
HETATM   18  N   UNL     1      -8.865   8.095  64.994  1.00  0.00    -0.394 NA 
HETATM   19  H2  UNL     1      -8.015   8.658  64.948  1.00  0.00     0.000 HD 
HETATM   20  H1  UNL     1      -8.645   7.175  64.615  1.00  0.00     0.000 HD 
ENDBRANCH   3   5
TORSDOF 1
ENDMDL
MODEL      151
REMARK 921   NORMALIZED FREE ENERGY PREDICTED BY IDOCK:   -3.56 KCAL/MOL
REMARK 922        TOTAL FREE ENERGY PREDICTED BY IDOCK:   -4.01 KCAL/MOL
REMARK 923 INTER-LIGAND FREE ENERGY PREDICTED BY IDOCK:   -3.70 KCAL/MOL
REMARK 924 INTRA-LIGAND FREE ENERGY PREDICTED BY IDOCK:   -0.31 KCAL/MOL
REMARK 927      BINDING AFFINITY PREDICTED BY RF-SCORE:    0.00 PKD
ROOT
HETATM    1  C   UNL     1      -6.152   8.534  67.781  1.00  0.00    -0.048 C  
HETATM    2  C   UNL     1      -7.207   7.915  68.702  1.00  0.00    -0.081 C  
HETATM    3  C   UNL     1      -6.874   8.251  70.168  1.00  0.00    -0.039 C  
HETATM    4  C   UNL     1      -7.306   6.416  68.408  1.00  0.00    -0.087 C  
ENDROOT
BRANCH   3   5
HETATM    5  N   UNL     1      -7.823   7.736  71.135  1.00  0.00    -0.087 NA 
HETATM    6  C   UNL     1      -7.528   6.669  71.947  1.00  0.00    -0.091 A  
HETATM    7  N   UNL     1      -8.487   6.426  72.803  1.00  0.00    -0.122 NA 
HETATM    8  C   UNL     1      -9.471   7.345  72.506  1.00  0.00    -0.152 A  
HETATM    9  C   UNL     1      -9.108   8.153  71.419  1.00  0.00    -0.153 A  
HETATM   10  C   UNL     1     -10.019   9.125  70.911  1.00  0.00    -0.357 A  
HETATM   11  C   UNL     1      -9.773   9.988  69.817  1.00  0.00    -0.259 A  
HETATM   12  C   UNL     1     -10.748  10.886  69.388  1.00  0.00    -0.265 A  
HETATM   13  C   UNL     1     -11.973  10.932  70.038  1.00  0.00    -0.429 A  
HETATM   14  C   UNL     1     -12.214  10.086  71.123  1.00  0.00    -0.477 A  
HETATM   15  C   UNL     1     -11.266   9.184  71.582  1.00  0.00    -0.377 A  
HETATM   16  N   UNL     1     -11.595   8.424  72.639  1.00  0.00    -0.361 NA 
HETATM   17  C   UNL     1     -10.721   7.524  73.135  1.00  0.00    -0.398 A  
HETATM   18  N   UNL     1     -11.113   6.788  74.247  1.00  0.00     0.086 NA 
HETATM   19  H2  UNL     1     -10.392   6.899  74.960  1.00  0.00     0.000 HD 
HETATM   20  H1  UNL     1     -12.017   6.917  74.702  1.00  0.00     0.000 HD 
ENDBRANCH   3   5
TORSDOF 1
ENDMDL
MODEL      152
REMARK 921   NORMALIZED FREE ENERGY PREDICTED BY IDOCK:   -3.56 KCAL/MOL
REMARK 922        TOTAL FREE ENERGY PREDICTED BY IDOCK:   -4.01 KCAL/MOL
REMARK 923 INTER-LIGAND FREE ENERGY PREDICTED BY IDOCK:   -3.70 KCAL/MOL
REMARK 924 INTRA-LIGAND FREE ENERGY PREDICTED BY IDOCK:   -0.31 KCAL/MOL
REMARK 927      BINDING AFFINITY PREDICTED BY RF-SCORE:    0.00 PKD
ROOT
HETATM    1  C   UNL     1     -10.045   4.355  65.940  1.00  0.00    -0.262 C  
HETATM    2  C   UNL     1      -9.241   5.212  66.922  1.00  0.00    -0.118 C  
HETATM    3  C   UNL     1      -9.415   6.701  66.569  1.00  0.00    -0.152 C  
HETATM    4  C   UNL     1      -7.787   4.733  66.925  1.00  0.00    -0.099 C  
ENDROOT
BRANCH   3   5
HETATM    5  N   UNL     1      -8.716   7.615  67.450  1.00  0.00    -0.124 NA 
HETATM    6  C   UNL     1      -7.590   8.292  67.052  1.00  0.00    -0.092 A  
HETATM    7  N   UNL     1      -7.172   9.127  67.967  1.00  0.00    -0.079 NA 
HETATM    8  C   UNL     1      -8.037   8.956  69.028  1.00  0.00    -0.115 A  
HETATM    9  C   UNL     1      -8.992   7.967  68.756  1.00  0.00    -0.141 A  
HETATM   10  C   UNL     1      -9.939   7.591  69.753  1.00  0.00    -0.186 A  
HETATM   11  C   UNL     1     -10.941   6.602  69.603  1.00  0.00    -0.367 A  
HETATM   12  C   UNL     1     -11.801   6.296  70.656  1.00  0.00    -0.202 A  
HETATM   13  C   UNL     1     -11.671   6.966  71.864  1.00  0.00    -0.334 A  
HETATM   14  C   UNL     1     -10.688   7.948  72.011  1.00  0.00    -0.299 A  
HETATM   15  C   UNL     1      -9.819   8.283  70.984  1.00  0.00    -0.187 A  
HETATM   16  N   UNL     1      -8.918   9.248  71.226  1.00  0.00    -0.305 NA 
HETATM   17  C   UNL     1      -8.040   9.620  70.272  1.00  0.00    -0.183 A  
HETATM   18  N   UNL     1      -7.150  10.644  70.577  1.00  0.00    -0.452 NA 
HETATM   19  H2  UNL     1      -7.236  11.354  69.850  1.00  0.00     0.000 HD 
HETATM   20  H1  UNL     1      -7.152  11.125  71.477  1.00  0.00     0.000 HD 
ENDBRANCH   3   5
TORSDOF 1
ENDMDL
MODEL      153
REMARK 921   NORMALIZED FREE ENERGY PREDICTED BY IDOCK:   -3.56 KCAL/MOL
REMARK 922        TOTAL FREE ENERGY PREDICTED BY IDOCK:   -4.00 KCAL/MOL
REMARK 923 INTER-LIGAND FREE ENERGY PREDICTED BY IDOCK:   -3.69 KCAL/MOL
REMARK 924 INTRA-LIGAND FREE ENERGY PREDICTED BY IDOCK:   -0.31 KCAL/MOL
REMARK 927      BINDING AFFINITY PREDICTED BY RF-SCORE:    0.00 PKD
ROOT
HETATM    1  C   UNL     1     -10.689   6.454  67.182  1.00  0.00    -0.433 C  
HETATM    2  C   UNL     1      -9.717   6.678  68.344  1.00  0.00    -0.126 C  
HETATM    3  C   UNL     1     -10.052   8.007  69.047  1.00  0.00    -0.201 C  
HETATM    4  C   UNL     1      -8.283   6.591  67.817  1.00  0.00    -0.115 C  
ENDROOT
BRANCH   3   5
HETATM    5  N   UNL     1      -9.209   8.316  70.185  1.00  0.00    -0.154 NA 
HETATM    6  C   UNL     1      -8.214   9.260  70.119  1.00  0.00    -0.167 A  
HETATM    7  N   UNL     1      -7.636   9.443  71.278  1.00  0.00    -0.332 NA 
HETATM    8  C   UNL     1      -8.250   8.547  72.128  1.00  0.00    -0.112 A  
HETATM    9  C   UNL     1      -9.211   7.778  71.457  1.00  0.00    -0.137 A  
HETATM   10  C   UNL     1      -9.913   6.746  72.144  1.00  0.00    -0.176 A  
HETATM   11  C   UNL     1     -10.894   5.898  71.574  1.00  0.00    -0.325 A  
HETATM   12  C   UNL     1     -11.500   4.902  72.336  1.00  0.00     0.093 A  
HETATM   13  C   UNL     1     -11.136   4.736  73.665  1.00  0.00    -0.380 A  
HETATM   14  C   UNL     1     -10.175   5.577  74.231  1.00  0.00    -0.292 A  
HETATM   15  C   UNL     1      -9.554   6.583  73.506  1.00  0.00    -0.158 A  
HETATM   16  N   UNL     1      -8.652   7.342  74.148  1.00  0.00    -0.184 NA 
HETATM   17  C   UNL     1      -8.008   8.336  73.501  1.00  0.00    -0.162 A  
HETATM   18  N   UNL     1      -7.105   9.101  74.230  1.00  0.00    -0.329 NA 
HETATM   19  H2  UNL     1      -7.365  10.081  74.111  1.00  0.00     0.000 HD 
HETATM   20  H1  UNL     1      -6.930   8.949  75.223  1.00  0.00     0.000 HD 
ENDBRANCH   3   5
TORSDOF 1
ENDMDL
MODEL      154
REMARK 921   NORMALIZED FREE ENERGY PREDICTED BY IDOCK:   -3.56 KCAL/MOL
REMARK 922        TOTAL FREE ENERGY PREDICTED BY IDOCK:   -4.00 KCAL/MOL
REMARK 923 INTER-LIGAND FREE ENERGY PREDICTED BY IDOCK:   -3.58 KCAL/MOL
REMARK 924 INTRA-LIGAND FREE ENERGY PREDICTED BY IDOCK:   -0.42 KCAL/MOL
REMARK 927      BINDING AFFINITY PREDICTED BY RF-SCORE:    0.00 PKD
ROOT
HETATM    1  C   UNL     1     -11.364  10.092  70.724  1.00  0.00    -0.436 C  
HETATM    2  C   UNL     1     -10.202  10.040  69.728  1.00  0.00    -0.286 C  
HETATM    3  C   UNL     1     -10.756   9.987  68.291  1.00  0.00    -0.240 C  
HETATM    4  C   UNL     1      -9.287   8.868  70.091  1.00  0.00    -0.197 C  
ENDROOT
BRANCH   3   5
HETATM    5  N   UNL     1      -9.743   9.960  67.255  1.00  0.00    -0.166 NA 
HETATM    6  C   UNL     1      -9.120  11.102  66.816  1.00  0.00    -0.166 A  
HETATM    7  N   UNL     1      -8.180  10.843  65.945  1.00  0.00    -0.156 NA 
HETATM    8  C   UNL     1      -8.220   9.475  65.773  1.00  0.00    -0.116 A  
HETATM    9  C   UNL     1      -9.234   8.891  66.545  1.00  0.00    -0.183 A  
HETATM   10  C   UNL     1      -9.486   7.491  66.458  1.00  0.00    -0.237 A  
HETATM   11  C   UNL     1     -10.485   6.790  67.175  1.00  0.00    -0.364 A  
HETATM   12  C   UNL     1     -10.660   5.420  66.994  1.00  0.00    -0.298 A  
HETATM   13  C   UNL     1      -9.848   4.736  66.099  1.00  0.00    -0.234 A  
HETATM   14  C   UNL     1      -8.857   5.426  65.397  1.00  0.00    -0.144 A  
HETATM   15  C   UNL     1      -8.650   6.787  65.555  1.00  0.00    -0.086 A  
HETATM   16  N   UNL     1      -7.663   7.351  64.841  1.00  0.00    -0.105 NA 
HETATM   17  C   UNL     1      -7.410   8.672  64.945  1.00  0.00    -0.090 A  
HETATM   18  N   UNL     1      -6.357   9.188  64.197  1.00  0.00    -0.082 NA 
HETATM   19  H2  UNL     1      -5.740   9.688  64.838  1.00  0.00     0.000 HD 
HETATM   20  H1  UNL     1      -5.771   8.608  63.598  1.00  0.00     0.000 HD 
ENDBRANCH   3   5
TORSDOF 1
ENDMDL
MODEL      155
REMARK 921   NORMALIZED FREE ENERGY PREDICTED BY IDOCK:   -3.55 KCAL/MOL
REMARK 922        TOTAL FREE ENERGY PREDICTED BY IDOCK:   -3.99 KCAL/MOL
REMARK 923 INTER-LIGAND FREE ENERGY PREDICTED BY IDOCK:   -4.13 KCAL/MOL
REMARK 924 INTRA-LIGAND FREE ENERGY PREDICTED BY IDOCK:    0.13 KCAL/MOL
REMARK 927      BINDING AFFINITY PREDICTED BY RF-SCORE:    0.00 PKD
ROOT
HETATM    1  C   UNL     1      -6.636   9.333  70.091  1.00  0.00    -0.052 C  
HETATM    2  C   UNL     1      -7.784   9.445  69.084  1.00  0.00    -0.079 C  
HETATM    3  C   UNL     1      -7.972  10.920  68.679  1.00  0.00    -0.140 C  
HETATM    4  C   UNL     1      -9.034   8.794  69.680  1.00  0.00    -0.145 C  
ENDROOT
BRANCH   3   5
HETATM    5  N   UNL     1      -9.020  11.147  67.705  1.00  0.00    -0.139 NA 
HETATM    6  C   UNL     1      -9.476  10.150  66.878  1.00  0.00    -0.169 A  
HETATM    7  N   UNL     1     -10.481  10.545  66.141  1.00  0.00    -0.205 NA 
HETATM    8  C   UNL     1     -10.661  11.873  66.468  1.00  0.00    -0.258 A  
HETATM    9  C   UNL     1      -9.719  12.302  67.413  1.00  0.00    -0.185 A  
HETATM   10  C   UNL     1      -9.693  13.664  67.833  1.00  0.00    -0.234 A  
HETATM   11  C   UNL     1      -8.785  14.217  68.769  1.00  0.00    -0.096 A  
HETATM   12  C   UNL     1      -8.835  15.572  69.089  1.00  0.00    -0.253 A  
HETATM   13  C   UNL     1      -9.780  16.387  68.483  1.00  0.00    -0.228 A  
HETATM   14  C   UNL     1     -10.681  15.840  67.566  1.00  0.00    -0.317 A  
HETATM   15  C   UNL     1     -10.666  14.496  67.227  1.00  0.00    -0.287 A  
HETATM   16  N   UNL     1     -11.583  14.070  66.343  1.00  0.00    -0.352 NA 
HETATM   17  C   UNL     1     -11.622  12.776  65.967  1.00  0.00    -0.383 A  
HETATM   18  N   UNL     1     -12.612  12.394  65.068  1.00  0.00    -0.604 NA 
HETATM   19  H2  UNL     1     -13.115  11.608  65.480  1.00  0.00     0.000 HD 
HETATM   20  H1  UNL     1     -13.307  13.046  64.706  1.00  0.00     0.000 HD 
ENDBRANCH   3   5
TORSDOF 1
ENDMDL
MODEL      156
REMARK 921   NORMALIZED FREE ENERGY PREDICTED BY IDOCK:   -3.53 KCAL/MOL
REMARK 922        TOTAL FREE ENERGY PREDICTED BY IDOCK:   -3.98 KCAL/MOL
REMARK 923 INTER-LIGAND FREE ENERGY PREDICTED BY IDOCK:   -3.75 KCAL/MOL
REMARK 924 INTRA-LIGAND FREE ENERGY PREDICTED BY IDOCK:   -0.23 KCAL/MOL
REMARK 927      BINDING AFFINITY PREDICTED BY RF-SCORE:    0.00 PKD
ROOT
HETATM    1  C   UNL     1     -10.458  10.669  67.248  1.00  0.00    -0.293 C  
HETATM    2  C   UNL     1     -10.823   9.731  68.402  1.00  0.00    -0.244 C  
HETATM    3  C   UNL     1     -10.037  10.137  69.664  1.00  0.00    -0.234 C  
HETATM    4  C   UNL     1     -10.596   8.284  67.960  1.00  0.00    -0.188 C  
ENDROOT
BRANCH   3   5
HETATM    5  N   UNL     1     -10.321   9.332  70.835  1.00  0.00    -0.272 NA 
HETATM    6  C   UNL     1     -11.605   9.056  71.235  1.00  0.00    -0.317 A  
HETATM    7  N   UNL     1     -11.635   8.243  72.259  1.00  0.00    -0.358 NA 
HETATM    8  C   UNL     1     -10.311   8.013  72.570  1.00  0.00    -0.306 A  
HETATM    9  C   UNL     1      -9.453   8.730  71.725  1.00  0.00    -0.293 A  
HETATM   10  C   UNL     1      -8.043   8.682  71.925  1.00  0.00    -0.149 A  
HETATM   11  C   UNL     1      -7.079   9.369  71.148  1.00  0.00    -0.013 A  
HETATM   12  C   UNL     1      -5.722   9.269  71.450  1.00  0.00    -0.067 A  
HETATM   13  C   UNL     1      -5.313   8.491  72.523  1.00  0.00    -0.046 A  
HETATM   14  C   UNL     1      -6.262   7.806  73.286  1.00  0.00    -0.065 A  
HETATM   15  C   UNL     1      -7.620   7.877  73.012  1.00  0.00    -0.120 A  
HETATM   16  N   UNL     1      -8.447   7.172  73.800  1.00  0.00    -0.136 NA 
HETATM   17  C   UNL     1      -9.780   7.198  73.591  1.00  0.00    -0.269 A  
HETATM   18  N   UNL     1     -10.579   6.425  74.426  1.00  0.00    -0.375 NA 
HETATM   19  H2  UNL     1     -11.161   5.833  73.833  1.00  0.00     0.000 HD 
HETATM   20  H1  UNL     1     -10.196   5.836  75.164  1.00  0.00     0.000 HD 
ENDBRANCH   3   5
TORSDOF 1
ENDMDL
MODEL      157
REMARK 921   NORMALIZED FREE ENERGY PREDICTED BY IDOCK:   -3.53 KCAL/MOL
REMARK 922        TOTAL FREE ENERGY PREDICTED BY IDOCK:   -3.98 KCAL/MOL
REMARK 923 INTER-LIGAND FREE ENERGY PREDICTED BY IDOCK:   -3.59 KCAL/MOL
REMARK 924 INTRA-LIGAND FREE ENERGY PREDICTED BY IDOCK:   -0.39 KCAL/MOL
REMARK 927      BINDING AFFINITY PREDICTED BY RF-SCORE:    0.00 PKD
ROOT
HETATM    1  C   UNL     1     -12.905  13.224  65.129  1.00  0.00    -0.376 C  
HETATM    2  C   UNL     1     -11.519  12.603  64.941  1.00  0.00    -0.361 C  
HETATM    3  C   UNL     1     -11.172  11.735  66.166  1.00  0.00    -0.306 C  
HETATM    4  C   UNL     1     -10.509  13.716  64.655  1.00  0.00    -0.442 C  
ENDROOT
BRANCH   3   5
HETATM    5  N   UNL     1      -9.886  11.072  66.090  1.00  0.00    -0.217 NA 
HETATM    6  C   UNL     1      -9.724   9.867  65.451  1.00  0.00    -0.306 A  
HETATM    7  N   UNL     1      -8.471   9.492  65.423  1.00  0.00    -0.140 NA 
HETATM    8  C   UNL     1      -7.791  10.473  66.114  1.00  0.00    -0.145 A  
HETATM    9  C   UNL     1      -8.661  11.458  66.598  1.00  0.00    -0.178 A  
HETATM   10  C   UNL     1      -8.162  12.527  67.398  1.00  0.00    -0.183 A  
HETATM   11  C   UNL     1      -8.941  13.572  67.952  1.00  0.00    -0.200 A  
HETATM   12  C   UNL     1      -8.350  14.555  68.743  1.00  0.00    -0.149 A  
HETATM   13  C   UNL     1      -6.986  14.508  68.992  1.00  0.00    -0.121 A  
HETATM   14  C   UNL     1      -6.215  13.482  68.439  1.00  0.00    -0.093 A  
HETATM   15  C   UNL     1      -6.767  12.490  67.643  1.00  0.00    -0.136 A  
HETATM   16  N   UNL     1      -5.936  11.556  67.153  1.00  0.00    -0.095 NA 
HETATM   17  C   UNL     1      -6.407  10.561  66.374  1.00  0.00    -0.100 A  
HETATM   18  N   UNL     1      -5.490   9.641  65.876  1.00  0.00    -0.043 NA 
HETATM   19  H2  UNL     1      -5.611   9.603  64.864  1.00  0.00     0.000 HD 
HETATM   20  H1  UNL     1      -4.490   9.705  66.064  1.00  0.00     0.000 HD 
ENDBRANCH   3   5
TORSDOF 1
ENDMDL
MODEL      158
REMARK 921   NORMALIZED FREE ENERGY PREDICTED BY IDOCK:   -3.52 KCAL/MOL
REMARK 922        TOTAL FREE ENERGY PREDICTED BY IDOCK:   -3.96 KCAL/MOL
REMARK 923 INTER-LIGAND FREE ENERGY PREDICTED BY IDOCK:   -3.65 KCAL/MOL
REMARK 924 INTRA-LIGAND FREE ENERGY PREDICTED BY IDOCK:   -0.31 KCAL/MOL
REMARK 927      BINDING AFFINITY PREDICTED BY RF-SCORE:    0.00 PKD
ROOT
HETATM    1  C   UNL     1      -8.313   8.445  72.070  1.00  0.00    -0.231 C  
HETATM    2  C   UNL     1      -9.165   7.642  71.083  1.00  0.00    -0.153 C  
HETATM    3  C   UNL     1      -8.764   8.007  69.641  1.00  0.00    -0.133 C  
HETATM    4  C   UNL     1     -10.645   7.872  71.400  1.00  0.00    -0.246 C  
ENDROOT
BRANCH   3   5
HETATM    5  N   UNL     1      -9.491   7.287  68.614  1.00  0.00    -0.138 NA 
HETATM    6  C   UNL     1     -10.502   7.871  67.892  1.00  0.00    -0.198 A  
HETATM    7  N   UNL     1     -10.961   7.077  66.960  1.00  0.00    -0.365 NA 
HETATM    8  C   UNL     1     -10.248   5.905  67.108  1.00  0.00    -0.203 A  
HETATM    9  C   UNL     1      -9.349   5.984  68.181  1.00  0.00    -0.115 A  
HETATM   10  C   UNL     1      -8.563   4.851  68.543  1.00  0.00    -0.099 A  
HETATM   11  C   UNL     1      -7.633   4.804  69.609  1.00  0.00    -0.055 A  
HETATM   12  C   UNL     1      -6.936   3.631  69.891  1.00  0.00    -0.041 A  
HETATM   13  C   UNL     1      -7.157   2.498  69.121  1.00  0.00    -0.044 A  
HETATM   14  C   UNL     1      -8.069   2.546  68.063  1.00  0.00    -0.067 A  
HETATM   15  C   UNL     1      -8.777   3.696  67.750  1.00  0.00    -0.106 A  
HETATM   16  N   UNL     1      -9.621   3.638  66.707  1.00  0.00    -0.189 NA 
HETATM   17  C   UNL     1     -10.344   4.720  66.350  1.00  0.00    -0.273 A  
HETATM   18  N   UNL     1     -11.180   4.602  65.245  1.00  0.00    -0.991 NA 
HETATM   19  H2  UNL     1     -10.949   5.360  64.602  1.00  0.00     0.000 HD 
HETATM   20  H1  UNL     1     -11.249   3.745  64.697  1.00  0.00     0.000 HD 
ENDBRANCH   3   5
TORSDOF 1
ENDMDL
MODEL      159
REMARK 921   NORMALIZED FREE ENERGY PREDICTED BY IDOCK:   -3.49 KCAL/MOL
REMARK 922        TOTAL FREE ENERGY PREDICTED BY IDOCK:   -3.94 KCAL/MOL
REMARK 923 INTER-LIGAND FREE ENERGY PREDICTED BY IDOCK:   -3.53 KCAL/MOL
REMARK 924 INTRA-LIGAND FREE ENERGY PREDICTED BY IDOCK:   -0.40 KCAL/MOL
REMARK 927      BINDING AFFINITY PREDICTED BY RF-SCORE:    0.00 PKD
ROOT
HETATM    1  C   UNL     1     -11.657  13.405  69.116  1.00  0.00    -0.365 C  
HETATM    2  C   UNL     1     -10.824  12.133  68.938  1.00  0.00    -0.241 C  
HETATM    3  C   UNL     1      -9.628  12.426  68.012  1.00  0.00    -0.211 C  
HETATM    4  C   UNL     1     -11.735  11.005  68.448  1.00  0.00    -0.329 C  
ENDROOT
BRANCH   3   5
HETATM    5  N   UNL     1      -8.748  11.296  67.788  1.00  0.00    -0.131 NA 
HETATM    6  C   UNL     1      -7.941  10.794  68.779  1.00  0.00    -0.136 A  
HETATM    7  N   UNL     1      -7.299   9.723  68.391  1.00  0.00    -0.078 NA 
HETATM    8  C   UNL     1      -7.668   9.544  67.074  1.00  0.00    -0.091 A  
HETATM    9  C   UNL     1      -8.540  10.552  66.643  1.00  0.00    -0.131 A  
HETATM   10  C   UNL     1      -8.986  10.586  65.290  1.00  0.00    -0.211 A  
HETATM   11  C   UNL     1      -9.854  11.557  64.735  1.00  0.00    -0.286 A  
HETATM   12  C   UNL     1     -10.206  11.507  63.388  1.00  0.00    -0.462 A  
HETATM   13  C   UNL     1      -9.698  10.498  62.582  1.00  0.00    -0.214 A  
HETATM   14  C   UNL     1      -8.847   9.535  63.130  1.00  0.00    -0.239 A  
HETATM   15  C   UNL     1      -8.480   9.549  64.467  1.00  0.00    -0.181 A  
HETATM   16  N   UNL     1      -7.666   8.571  64.896  1.00  0.00    -0.098 NA 
HETATM   17  C   UNL     1      -7.266   8.526  66.183  1.00  0.00    -0.081 A  
HETATM   18  N   UNL     1      -6.445   7.473  66.569  1.00  0.00    -0.048 NA 
HETATM   19  H2  UNL     1      -6.880   7.022  67.374  1.00  0.00     0.000 HD 
HETATM   20  H1  UNL     1      -6.155   6.738  65.925  1.00  0.00     0.000 HD 
ENDBRANCH   3   5
TORSDOF 1
ENDMDL
MODEL      160
REMARK 921   NORMALIZED FREE ENERGY PREDICTED BY IDOCK:   -3.49 KCAL/MOL
REMARK 922        TOTAL FREE ENERGY PREDICTED BY IDOCK:   -3.94 KCAL/MOL
REMARK 923 INTER-LIGAND FREE ENERGY PREDICTED BY IDOCK:   -3.63 KCAL/MOL
REMARK 924 INTRA-LIGAND FREE ENERGY PREDICTED BY IDOCK:   -0.31 KCAL/MOL
REMARK 927      BINDING AFFINITY PREDICTED BY RF-SCORE:    0.00 PKD
ROOT
HETATM    1  C   UNL     1     -10.734   6.577  70.958  1.00  0.00    -0.289 C  
HETATM    2  C   UNL     1     -11.011   8.082  71.007  1.00  0.00    -0.263 C  
HETATM    3  C   UNL     1     -10.951   8.664  69.582  1.00  0.00    -0.091 C  
HETATM    4  C   UNL     1     -10.040   8.735  71.994  1.00  0.00    -0.397 C  
ENDROOT
BRANCH   3   5
HETATM    5  N   UNL     1     -11.225  10.085  69.501  1.00  0.00    -0.229 NA 
HETATM    6  C   UNL     1     -12.387  10.633  69.986  1.00  0.00    -0.269 A  
HETATM    7  N   UNL     1     -12.390  11.937  69.891  1.00  0.00    -0.155 NA 
HETATM    8  C   UNL     1     -11.197  12.252  69.275  1.00  0.00    -0.213 A  
HETATM    9  C   UNL     1     -10.460  11.102  68.963  1.00  0.00    -0.206 A  
HETATM   10  C   UNL     1      -9.224  11.209  68.261  1.00  0.00    -0.169 A  
HETATM   11  C   UNL     1      -8.398  10.124  67.881  1.00  0.00    -0.117 A  
HETATM   12  C   UNL     1      -7.219  10.344  67.173  1.00  0.00    -0.091 A  
HETATM   13  C   UNL     1      -6.852  11.638  66.834  1.00  0.00    -0.129 A  
HETATM   14  C   UNL     1      -7.662  12.711  67.216  1.00  0.00    -0.140 A  
HETATM   15  C   UNL     1      -8.840  12.531  67.926  1.00  0.00    -0.185 A  
HETATM   16  N   UNL     1      -9.539  13.630  68.253  1.00  0.00    -0.214 NA 
HETATM   17  C   UNL     1     -10.695  13.527  68.941  1.00  0.00    -0.201 A  
HETATM   18  N   UNL     1     -11.357  14.704  69.270  1.00  0.00    -0.271 NA 
HETATM   19  H2  UNL     1     -11.521  14.694  70.278  1.00  0.00     0.000 HD 
HETATM   20  H1  UNL     1     -10.994  15.626  69.029  1.00  0.00     0.000 HD 
ENDBRANCH   3   5
TORSDOF 1
ENDMDL
MODEL      161
REMARK 921   NORMALIZED FREE ENERGY PREDICTED BY IDOCK:   -3.49 KCAL/MOL
REMARK 922        TOTAL FREE ENERGY PREDICTED BY IDOCK:   -3.93 KCAL/MOL
REMARK 923 INTER-LIGAND FREE ENERGY PREDICTED BY IDOCK:   -3.81 KCAL/MOL
REMARK 924 INTRA-LIGAND FREE ENERGY PREDICTED BY IDOCK:   -0.12 KCAL/MOL
REMARK 927      BINDING AFFINITY PREDICTED BY RF-SCORE:    0.00 PKD
ROOT
HETATM    1  C   UNL     1      -6.218  13.443  69.752  1.00  0.00    -0.113 C  
HETATM    2  C   UNL     1      -6.698  14.510  68.765  1.00  0.00    -0.091 C  
HETATM    3  C   UNL     1      -8.239  14.542  68.750  1.00  0.00    -0.146 C  
HETATM    4  C   UNL     1      -6.062  14.247  67.398  1.00  0.00     0.224 C  
ENDROOT
BRANCH   3   5
HETATM    5  N   UNL     1      -8.811  15.538  67.865  1.00  0.00    -0.170 NA 
HETATM    6  C   UNL     1      -9.682  15.202  66.858  1.00  0.00    -0.239 A  
HETATM    7  N   UNL     1     -10.145  16.257  66.240  1.00  0.00    -0.306 NA 
HETATM    8  C   UNL     1      -9.515  17.327  66.840  1.00  0.00    -0.257 A  
HETATM    9  C   UNL     1      -8.622  16.905  67.834  1.00  0.00    -0.208 A  
HETATM   10  C   UNL     1      -7.820  17.856  68.530  1.00  0.00    -0.301 A  
HETATM   11  C   UNL     1      -6.877  17.553  69.542  1.00  0.00    -0.064 A  
HETATM   12  C   UNL     1      -6.127  18.563  70.138  1.00  0.00    -0.087 A  
HETATM   13  C   UNL     1      -6.302  19.879  69.735  1.00  0.00    -0.402 A  
HETATM   14  C   UNL     1      -7.238  20.181  68.742  1.00  0.00    -0.171 A  
HETATM   15  C   UNL     1      -8.007  19.203  68.129  1.00  0.00    -0.304 A  
HETATM   16  N   UNL     1      -8.884  19.601  67.194  1.00  0.00    -0.301 NA 
HETATM   17  C   UNL     1      -9.661  18.701  66.557  1.00  0.00    -0.351 A  
HETATM   18  N   UNL     1     -10.568  19.181  65.618  1.00  0.00    -0.526 NA 
HETATM   19  H2  UNL     1     -11.489  18.819  65.867  1.00  0.00     0.000 HD 
HETATM   20  H1  UNL     1     -10.674  20.174  65.414  1.00  0.00     0.000 HD 
ENDBRANCH   3   5
TORSDOF 1
ENDMDL
MODEL      162
REMARK 921   NORMALIZED FREE ENERGY PREDICTED BY IDOCK:   -3.46 KCAL/MOL
REMARK 922        TOTAL FREE ENERGY PREDICTED BY IDOCK:   -3.90 KCAL/MOL
REMARK 923 INTER-LIGAND FREE ENERGY PREDICTED BY IDOCK:   -3.59 KCAL/MOL
REMARK 924 INTRA-LIGAND FREE ENERGY PREDICTED BY IDOCK:   -0.31 KCAL/MOL
REMARK 927      BINDING AFFINITY PREDICTED BY RF-SCORE:    0.00 PKD
ROOT
HETATM    1  C   UNL     1      -9.446   1.939  68.153  1.00  0.00    -0.215 C  
HETATM    2  C   UNL     1      -8.967   3.383  67.979  1.00  0.00    -0.180 C  
HETATM    3  C   UNL     1      -9.728   4.042  66.813  1.00  0.00    -0.190 C  
HETATM    4  C   UNL     1      -7.445   3.387  67.818  1.00  0.00    -0.058 C  
ENDROOT
BRANCH   3   5
HETATM    5  N   UNL     1      -9.375   5.426  66.569  1.00  0.00    -0.139 NA 
HETATM    6  C   UNL     1      -8.657   5.810  65.464  1.00  0.00    -0.151 A  
HETATM    7  N   UNL     1      -8.525   7.109  65.392  1.00  0.00    -0.119 NA 
HETATM    8  C   UNL     1      -9.146   7.593  66.525  1.00  0.00    -0.167 A  
HETATM    9  C   UNL     1      -9.646   6.552  67.320  1.00  0.00    -0.126 A  
HETATM   10  C   UNL     1     -10.266   6.839  68.572  1.00  0.00    -0.186 A  
HETATM   11  C   UNL     1     -10.797   5.877  69.465  1.00  0.00    -0.442 A  
HETATM   12  C   UNL     1     -11.360   6.270  70.677  1.00  0.00    -0.409 A  
HETATM   13  C   UNL     1     -11.398   7.615  71.013  1.00  0.00    -0.289 A  
HETATM   14  C   UNL     1     -10.882   8.566  70.129  1.00  0.00    -0.238 A  
HETATM   15  C   UNL     1     -10.319   8.214  68.911  1.00  0.00    -0.211 A  
HETATM   16  N   UNL     1      -9.862   9.206  68.131  1.00  0.00    -0.159 NA 
HETATM   17  C   UNL     1      -9.300   8.933  66.935  1.00  0.00    -0.168 A  
HETATM   18  N   UNL     1      -8.870  10.007  66.164  1.00  0.00    -0.145 NA 
HETATM   19  H2  UNL     1      -9.301   9.917  65.243  1.00  0.00     0.000 HD 
HETATM   20  H1  UNL     1      -8.981  10.977  66.460  1.00  0.00     0.000 HD 
ENDBRANCH   3   5
TORSDOF 1
ENDMDL
MODEL      163
REMARK 921   NORMALIZED FREE ENERGY PREDICTED BY IDOCK:   -3.44 KCAL/MOL
REMARK 922        TOTAL FREE ENERGY PREDICTED BY IDOCK:   -3.88 KCAL/MOL
REMARK 923 INTER-LIGAND FREE ENERGY PREDICTED BY IDOCK:   -3.59 KCAL/MOL
REMARK 924 INTRA-LIGAND FREE ENERGY PREDICTED BY IDOCK:   -0.29 KCAL/MOL
REMARK 927      BINDING AFFINITY PREDICTED BY RF-SCORE:    0.00 PKD
ROOT
HETATM    1  C   UNL     1     -10.295  10.733  64.481  1.00  0.00    -0.401 C  
HETATM    2  C   UNL     1      -9.363  10.278  65.608  1.00  0.00    -0.241 C  
HETATM    3  C   UNL     1      -9.613  11.137  66.862  1.00  0.00    -0.186 C  
HETATM    4  C   UNL     1      -7.919  10.310  65.102  1.00  0.00    -0.147 C  
ENDROOT
BRANCH   3   5
HETATM    5  N   UNL     1      -8.801  10.780  68.008  1.00  0.00    -0.129 NA 
HETATM    6  C   UNL     1      -7.817  11.607  68.491  1.00  0.00    -0.140 A  
HETATM    7  N   UNL     1      -7.269  11.134  69.579  1.00  0.00    -0.099 NA 
HETATM    8  C   UNL     1      -7.890   9.921  69.792  1.00  0.00    -0.163 A  
HETATM    9  C   UNL     1      -8.825   9.639  68.786  1.00  0.00    -0.130 A  
HETATM   10  C   UNL     1      -9.528   8.399  68.787  1.00  0.00    -0.147 A  
HETATM   11  C   UNL     1     -10.484   7.997  67.823  1.00  0.00    -0.280 A  
HETATM   12  C   UNL     1     -11.094   6.747  67.907  1.00  0.00    -0.262 A  
HETATM   13  C   UNL     1     -10.760   5.888  68.945  1.00  0.00    -0.370 A  
HETATM   14  C   UNL     1      -9.823   6.288  69.901  1.00  0.00    -0.198 A  
HETATM   15  C   UNL     1      -9.199   7.525  69.853  1.00  0.00    -0.147 A  
HETATM   16  N   UNL     1      -8.322   7.815  70.827  1.00  0.00    -0.114 NA 
HETATM   17  C   UNL     1      -7.678   9.000  70.839  1.00  0.00    -0.128 A  
HETATM   18  N   UNL     1      -6.801   9.248  71.890  1.00  0.00    -0.307 NA 
HETATM   19  H2  UNL     1      -7.072  10.136  72.313  1.00  0.00     0.000 HD 
HETATM   20  H1  UNL     1      -6.648   8.582  72.647  1.00  0.00     0.000 HD 
ENDBRANCH   3   5
TORSDOF 1
ENDMDL
MODEL      164
REMARK 921   NORMALIZED FREE ENERGY PREDICTED BY IDOCK:   -3.43 KCAL/MOL
REMARK 922        TOTAL FREE ENERGY PREDICTED BY IDOCK:   -3.87 KCAL/MOL
REMARK 923 INTER-LIGAND FREE ENERGY PREDICTED BY IDOCK:   -3.47 KCAL/MOL
REMARK 924 INTRA-LIGAND FREE ENERGY PREDICTED BY IDOCK:   -0.41 KCAL/MOL
REMARK 927      BINDING AFFINITY PREDICTED BY RF-SCORE:    0.00 PKD
ROOT
HETATM    1  C   UNL     1      -5.898   3.946  71.143  1.00  0.00    -0.013 C  
HETATM    2  C   UNL     1      -7.044   4.751  71.760  1.00  0.00    -0.061 C  
HETATM    3  C   UNL     1      -8.256   4.736  70.809  1.00  0.00    -0.086 C  
HETATM    4  C   UNL     1      -6.537   6.153  72.109  1.00  0.00    -0.059 C  
ENDROOT
BRANCH   3   5
HETATM    5  N   UNL     1      -9.417   5.450  71.301  1.00  0.00    -0.147 NA 
HETATM    6  C   UNL     1     -10.172   4.979  72.347  1.00  0.00    -0.201 A  
HETATM    7  N   UNL     1     -11.116   5.818  72.686  1.00  0.00    -0.264 NA 
HETATM    8  C   UNL     1     -11.001   6.864  71.793  1.00  0.00    -0.230 A  
HETATM    9  C   UNL     1      -9.973   6.638  70.868  1.00  0.00    -0.187 A  
HETATM   10  C   UNL     1      -9.735   7.571  69.817  1.00  0.00    -0.171 A  
HETATM   11  C   UNL     1      -8.738   7.448  68.819  1.00  0.00    -0.128 A  
HETATM   12  C   UNL     1      -8.611   8.411  67.821  1.00  0.00    -0.130 A  
HETATM   13  C   UNL     1      -9.471   9.500  67.803  1.00  0.00    -0.151 A  
HETATM   14  C   UNL     1     -10.450   9.626  68.792  1.00  0.00    -0.238 A  
HETATM   15  C   UNL     1     -10.603   8.691  69.804  1.00  0.00    -0.224 A  
HETATM   16  N   UNL     1     -11.568   8.913  70.711  1.00  0.00    -0.278 NA 
HETATM   17  C   UNL     1     -11.774   8.041  71.720  1.00  0.00    -0.291 A  
HETATM   18  N   UNL     1     -12.771   8.342  72.640  1.00  0.00    -0.609 NA 
HETATM   19  H2  UNL     1     -12.353   8.307  73.570  1.00  0.00     0.000 HD 
HETATM   20  H1  UNL     1     -13.330   9.194  72.587  1.00  0.00     0.000 HD 
ENDBRANCH   3   5
TORSDOF 1
ENDMDL
MODEL      165
REMARK 921   NORMALIZED FREE ENERGY PREDICTED BY IDOCK:   -3.42 KCAL/MOL
REMARK 922        TOTAL FREE ENERGY PREDICTED BY IDOCK:   -3.85 KCAL/MOL
REMARK 923 INTER-LIGAND FREE ENERGY PREDICTED BY IDOCK:   -3.54 KCAL/MOL
REMARK 924 INTRA-LIGAND FREE ENERGY PREDICTED BY IDOCK:   -0.31 KCAL/MOL
REMARK 927      BINDING AFFINITY PREDICTED BY RF-SCORE:    0.00 PKD
ROOT
HETATM    1  C   UNL     1      -5.838   9.225  69.620  1.00  0.00    -0.033 C  
HETATM    2  C   UNL     1      -6.826   8.085  69.885  1.00  0.00    -0.041 C  
HETATM    3  C   UNL     1      -6.796   7.714  71.381  1.00  0.00    -0.049 C  
HETATM    4  C   UNL     1      -6.508   6.921  68.944  1.00  0.00    -0.036 C  
ENDROOT
BRANCH   3   5
HETATM    5  N   UNL     1      -7.714   6.658  71.757  1.00  0.00    -0.096 NA 
HETATM    6  C   UNL     1      -7.286   5.381  72.024  1.00  0.00    -0.089 A  
HETATM    7  N   UNL     1      -8.262   4.612  72.430  1.00  0.00    -0.112 NA 
HETATM    8  C   UNL     1      -9.387   5.409  72.383  1.00  0.00    -0.143 A  
HETATM    9  C   UNL     1      -9.087   6.693  71.908  1.00  0.00    -0.143 A  
HETATM   10  C   UNL     1     -10.126   7.651  71.721  1.00  0.00    -0.210 A  
HETATM   11  C   UNL     1      -9.950   8.971  71.240  1.00  0.00    -0.381 A  
HETATM   12  C   UNL     1     -11.044   9.816  71.071  1.00  0.00    -0.431 A  
HETATM   13  C   UNL     1     -12.318   9.360  71.376  1.00  0.00    -0.439 A  
HETATM   14  C   UNL     1     -12.492   8.061  71.859  1.00  0.00    -0.364 A  
HETATM   15  C   UNL     1     -11.427   7.193  72.045  1.00  0.00    -0.274 A  
HETATM   16  N   UNL     1     -11.702   5.969  72.524  1.00  0.00    -0.273 NA 
HETATM   17  C   UNL     1     -10.713   5.074  72.726  1.00  0.00    -0.236 A  
HETATM   18  N   UNL     1     -11.062   3.833  73.249  1.00  0.00    -0.188 NA 
HETATM   19  H2  UNL     1     -10.482   3.673  74.073  1.00  0.00     0.000 HD 
HETATM   20  H1  UNL     1     -12.021   3.591  73.497  1.00  0.00     0.000 HD 
ENDBRANCH   3   5
TORSDOF 1
ENDMDL
MODEL      166
REMARK 921   NORMALIZED FREE ENERGY PREDICTED BY IDOCK:   -3.41 KCAL/MOL
REMARK 922        TOTAL FREE ENERGY PREDICTED BY IDOCK:   -3.84 KCAL/MOL
REMARK 923 INTER-LIGAND FREE ENERGY PREDICTED BY IDOCK:   -3.43 KCAL/MOL
REMARK 924 INTRA-LIGAND FREE ENERGY PREDICTED BY IDOCK:   -0.42 KCAL/MOL
REMARK 927      BINDING AFFINITY PREDICTED BY RF-SCORE:    0.00 PKD
ROOT
HETATM    1  C   UNL     1      -9.453  11.985  68.042  1.00  0.00    -0.199 C  
HETATM    2  C   UNL     1     -10.049  10.863  68.898  1.00  0.00    -0.211 C  
HETATM    3  C   UNL     1      -8.914   9.982  69.456  1.00  0.00    -0.205 C  
HETATM    4  C   UNL     1     -11.085  10.101  68.069  1.00  0.00    -0.302 C  
ENDROOT
BRANCH   3   5
HETATM    5  N   UNL     1      -9.358   8.896  70.306  1.00  0.00    -0.172 NA 
HETATM    6  C   UNL     1      -9.659   9.085  71.632  1.00  0.00    -0.248 A  
HETATM    7  N   UNL     1     -10.122   7.997  72.190  1.00  0.00    -0.214 NA 
HETATM    8  C   UNL     1     -10.081   7.042  71.195  1.00  0.00    -0.187 A  
HETATM    9  C   UNL     1      -9.550   7.562  70.006  1.00  0.00    -0.164 A  
HETATM   10  C   UNL     1      -9.360   6.716  68.875  1.00  0.00    -0.128 A  
HETATM   11  C   UNL     1      -8.824   7.120  67.628  1.00  0.00    -0.119 A  
HETATM   12  C   UNL     1      -8.658   6.199  66.596  1.00  0.00    -0.118 A  
HETATM   13  C   UNL     1      -9.019   4.874  66.792  1.00  0.00    -0.110 A  
HETATM   14  C   UNL     1      -9.555   4.476  68.020  1.00  0.00    -0.209 A  
HETATM   15  C   UNL     1      -9.740   5.364  69.068  1.00  0.00    -0.152 A  
HETATM   16  N   UNL     1     -10.273   4.881  70.202  1.00  0.00    -0.262 NA 
HETATM   17  C   UNL     1     -10.477   5.690  71.262  1.00  0.00    -0.236 A  
HETATM   18  N   UNL     1     -11.056   5.133  72.397  1.00  0.00    -0.189 NA 
HETATM   19  H2  UNL     1     -11.867   5.703  72.639  1.00  0.00     0.000 HD 
HETATM   20  H1  UNL     1     -11.342   4.156  72.445  1.00  0.00     0.000 HD 
ENDBRANCH   3   5
TORSDOF 1
ENDMDL
MODEL      167
REMARK 921   NORMALIZED FREE ENERGY PREDICTED BY IDOCK:   -3.37 KCAL/MOL
REMARK 922        TOTAL FREE ENERGY PREDICTED BY IDOCK:   -3.81 KCAL/MOL
REMARK 923 INTER-LIGAND FREE ENERGY PREDICTED BY IDOCK:   -3.39 KCAL/MOL
REMARK 924 INTRA-LIGAND FREE ENERGY PREDICTED BY IDOCK:   -0.42 KCAL/MOL
REMARK 927      BINDING AFFINITY PREDICTED BY RF-SCORE:    0.00 PKD
ROOT
HETATM    1  C   UNL     1      -9.360   6.687  67.267  1.00  0.00    -0.144 C  
HETATM    2  C   UNL     1      -9.872   8.110  67.029  1.00  0.00    -0.299 C  
HETATM    3  C   UNL     1      -8.816   8.914  66.246  1.00  0.00    -0.158 C  
HETATM    4  C   UNL     1     -10.263   8.730  68.372  1.00  0.00    -0.228 C  
ENDROOT
BRANCH   3   5
HETATM    5  N   UNL     1      -9.202  10.276  65.939  1.00  0.00    -0.160 NA 
HETATM    6  C   UNL     1     -10.082  10.574  64.927  1.00  0.00    -0.333 A  
HETATM    7  N   UNL     1     -10.359  11.851  64.879  1.00  0.00    -0.275 NA 
HETATM    8  C   UNL     1      -9.592  12.419  65.875  1.00  0.00    -0.187 A  
HETATM    9  C   UNL     1      -8.806  11.461  66.528  1.00  0.00    -0.187 A  
HETATM   10  C   UNL     1      -7.890  11.856  67.546  1.00  0.00    -0.152 A  
HETATM   11  C   UNL     1      -7.037  10.986  68.267  1.00  0.00    -0.072 A  
HETATM   12  C   UNL     1      -6.160  11.486  69.227  1.00  0.00    -0.068 A  
HETATM   13  C   UNL     1      -6.120  12.851  69.476  1.00  0.00    -0.117 A  
HETATM   14  C   UNL     1      -6.967  13.710  68.771  1.00  0.00    -0.106 A  
HETATM   15  C   UNL     1      -7.857  13.248  67.813  1.00  0.00    -0.157 A  
HETATM   16  N   UNL     1      -8.634  14.156  67.201  1.00  0.00    -0.218 NA 
HETATM   17  C   UNL     1      -9.519  13.775  66.257  1.00  0.00    -0.202 A  
HETATM   18  N   UNL     1     -10.311  14.761  65.680  1.00  0.00    -0.325 NA 
HETATM   19  H2  UNL     1     -11.284  14.468  65.774  1.00  0.00     0.000 HD 
HETATM   20  H1  UNL     1     -10.258  15.741  65.956  1.00  0.00     0.000 HD 
ENDBRANCH   3   5
TORSDOF 1
ENDMDL
MODEL      168
REMARK 921   NORMALIZED FREE ENERGY PREDICTED BY IDOCK:   -3.36 KCAL/MOL
REMARK 922        TOTAL FREE ENERGY PREDICTED BY IDOCK:   -3.79 KCAL/MOL
REMARK 923 INTER-LIGAND FREE ENERGY PREDICTED BY IDOCK:   -3.49 KCAL/MOL
REMARK 924 INTRA-LIGAND FREE ENERGY PREDICTED BY IDOCK:   -0.30 KCAL/MOL
REMARK 927      BINDING AFFINITY PREDICTED BY RF-SCORE:    0.00 PKD
ROOT
HETATM    1  C   UNL     1      -8.865   9.068  71.067  1.00  0.00    -0.291 C  
HETATM    2  C   UNL     1      -8.389   9.156  69.614  1.00  0.00    -0.130 C  
HETATM    3  C   UNL     1      -8.860   7.910  68.841  1.00  0.00    -0.142 C  
HETATM    4  C   UNL     1      -6.874   9.370  69.598  1.00  0.00    -0.056 C  
ENDROOT
BRANCH   3   5
HETATM    5  N   UNL     1      -8.487   7.894  67.440  1.00  0.00    -0.122 NA 
HETATM    6  C   UNL     1      -7.540   7.030  66.948  1.00  0.00    -0.094 A  
HETATM    7  N   UNL     1      -7.422   7.122  65.649  1.00  0.00    -0.078 NA 
HETATM    8  C   UNL     1      -8.298   8.122  65.281  1.00  0.00    -0.152 A  
HETATM    9  C   UNL     1      -8.947   8.671  66.395  1.00  0.00    -0.161 A  
HETATM   10  C   UNL     1      -9.846   9.766  66.235  1.00  0.00    -0.315 A  
HETATM   11  C   UNL     1     -10.550  10.410  67.281  1.00  0.00    -0.322 A  
HETATM   12  C   UNL     1     -11.386  11.491  67.012  1.00  0.00    -0.340 A  
HETATM   13  C   UNL     1     -11.528  11.942  65.707  1.00  0.00    -0.326 A  
HETATM   14  C   UNL     1     -10.840  11.302  64.673  1.00  0.00    -0.335 A  
HETATM   15  C   UNL     1     -10.004  10.220  64.902  1.00  0.00    -0.323 A  
HETATM   16  N   UNL     1      -9.398   9.670  63.837  1.00  0.00    -0.147 NA 
HETATM   17  C   UNL     1      -8.569   8.617  63.988  1.00  0.00    -0.003 A  
HETATM   18  N   UNL     1      -7.994   8.078  62.843  1.00  0.00    -0.154 NA 
HETATM   19  H2  UNL     1      -8.198   7.078  62.837  1.00  0.00     0.000 HD 
HETATM   20  H1  UNL     1      -8.190   8.436  61.908  1.00  0.00     0.000 HD 
ENDBRANCH   3   5
TORSDOF 1
ENDMDL
MODEL      169
REMARK 921   NORMALIZED FREE ENERGY PREDICTED BY IDOCK:   -3.35 KCAL/MOL
REMARK 922        TOTAL FREE ENERGY PREDICTED BY IDOCK:   -3.78 KCAL/MOL
REMARK 923 INTER-LIGAND FREE ENERGY PREDICTED BY IDOCK:   -3.49 KCAL/MOL
REMARK 924 INTRA-LIGAND FREE ENERGY PREDICTED BY IDOCK:   -0.29 KCAL/MOL
REMARK 927      BINDING AFFINITY PREDICTED BY RF-SCORE:    0.00 PKD
ROOT
HETATM    1  C   UNL     1     -13.295   9.331  72.344  1.00  0.00    -0.521 C  
HETATM    2  C   UNL     1     -12.448   8.190  71.774  1.00  0.00    -0.363 C  
HETATM    3  C   UNL     1     -11.444   8.755  70.751  1.00  0.00    -0.270 C  
HETATM    4  C   UNL     1     -13.377   7.112  71.212  1.00  0.00    -0.321 C  
ENDROOT
BRANCH   3   5
HETATM    5  N   UNL     1     -10.565   7.766  70.160  1.00  0.00    -0.232 NA 
HETATM    6  C   UNL     1     -10.651   7.414  68.836  1.00  0.00    -0.176 A  
HETATM    7  N   UNL     1      -9.711   6.574  68.490  1.00  0.00    -0.129 NA 
HETATM    8  C   UNL     1      -9.007   6.330  69.651  1.00  0.00    -0.135 A  
HETATM    9  C   UNL     1      -9.555   7.024  70.739  1.00  0.00    -0.164 A  
HETATM   10  C   UNL     1      -9.012   6.854  72.046  1.00  0.00    -0.136 A  
HETATM   11  C   UNL     1      -9.483   7.488  73.220  1.00  0.00    -0.293 A  
HETATM   12  C   UNL     1      -8.891   7.228  74.454  1.00  0.00    -0.234 A  
HETATM   13  C   UNL     1      -7.831   6.337  74.533  1.00  0.00    -0.102 A  
HETATM   14  C   UNL     1      -7.359   5.716  73.373  1.00  0.00    -0.091 A  
HETATM   15  C   UNL     1      -7.920   5.954  72.128  1.00  0.00    -0.107 A  
HETATM   16  N   UNL     1      -7.384   5.314  71.076  1.00  0.00    -0.075 NA 
HETATM   17  C   UNL     1      -7.883   5.498  69.836  1.00  0.00    -0.082 A  
HETATM   18  N   UNL     1      -7.267   4.826  68.786  1.00  0.00    -0.056 NA 
HETATM   19  H2  UNL     1      -7.023   5.519  68.078  1.00  0.00     0.000 HD 
HETATM   20  H1  UNL     1      -6.454   4.225  68.919  1.00  0.00     0.000 HD 
ENDBRANCH   3   5
TORSDOF 1
ENDMDL
MODEL      170
REMARK 921   NORMALIZED FREE ENERGY PREDICTED BY IDOCK:   -3.27 KCAL/MOL
REMARK 922        TOTAL FREE ENERGY PREDICTED BY IDOCK:   -3.69 KCAL/MOL
REMARK 923 INTER-LIGAND FREE ENERGY PREDICTED BY IDOCK:   -3.73 KCAL/MOL
REMARK 924 INTRA-LIGAND FREE ENERGY PREDICTED BY IDOCK:    0.04 KCAL/MOL
REMARK 927      BINDING AFFINITY PREDICTED BY RF-SCORE:    0.00 PKD
ROOT
HETATM    1  C   UNL     1      -7.680  10.669  63.710  1.00  0.00     0.146 C  
HETATM    2  C   UNL     1      -8.874  10.757  64.665  1.00  0.00    -0.155 C  
HETATM    3  C   UNL     1      -8.629   9.844  65.882  1.00  0.00    -0.137 C  
HETATM    4  C   UNL     1     -10.156  10.439  63.891  1.00  0.00    -0.172 C  
ENDROOT
BRANCH   3   5
HETATM    5  N   UNL     1      -9.687   9.864  66.872  1.00  0.00    -0.178 NA 
HETATM    6  C   UNL     1     -10.270   8.712  67.338  1.00  0.00    -0.262 A  
HETATM    7  N   UNL     1     -11.136   8.950  68.287  1.00  0.00     0.142 NA 
HETATM    8  C   UNL     1     -11.153  10.324  68.417  1.00  0.00    -0.247 A  
HETATM    9  C   UNL     1     -10.290  10.936  67.499  1.00  0.00    -0.202 A  
HETATM   10  C   UNL     1     -10.212  12.358  67.425  1.00  0.00    -0.215 A  
HETATM   11  C   UNL     1      -9.389  13.091  66.536  1.00  0.00    -0.220 A  
HETATM   12  C   UNL     1      -9.412  14.483  66.533  1.00  0.00    -0.310 A  
HETATM   13  C   UNL     1     -10.250  15.159  67.408  1.00  0.00    -0.235 A  
HETATM   14  C   UNL     1     -11.056  14.437  68.292  1.00  0.00    -0.275 A  
HETATM   15  C   UNL     1     -11.057  13.051  68.328  1.00  0.00    -0.263 A  
HETATM   16  N   UNL     1     -11.861  12.455  69.223  1.00  0.00    -0.313 NA 
HETATM   17  C   UNL     1     -11.913  11.110  69.308  1.00  0.00    -0.351 A  
HETATM   18  N   UNL     1     -12.746  10.556  70.274  1.00  0.00    -0.484 NA 
HETATM   19  H2  UNL     1     -12.184   9.913  70.833  1.00  0.00     0.000 HD 
HETATM   20  H1  UNL     1     -13.295  11.124  70.918  1.00  0.00     0.000 HD 
ENDBRANCH   3   5
TORSDOF 1
ENDMDL
MODEL      171
REMARK 921   NORMALIZED FREE ENERGY PREDICTED BY IDOCK:   -3.18 KCAL/MOL
REMARK 922        TOTAL FREE ENERGY PREDICTED BY IDOCK:   -3.60 KCAL/MOL
REMARK 923 INTER-LIGAND FREE ENERGY PREDICTED BY IDOCK:   -3.37 KCAL/MOL
REMARK 924 INTRA-LIGAND FREE ENERGY PREDICTED BY IDOCK:   -0.23 KCAL/MOL
REMARK 927      BINDING AFFINITY PREDICTED BY RF-SCORE:    0.00 PKD
ROOT
HETATM    1  C   UNL     1     -12.952  11.751  63.677  1.00  0.00    -0.222 C  
HETATM    2  C   UNL     1     -11.840  12.533  64.382  1.00  0.00    -0.455 C  
HETATM    3  C   UNL     1     -12.447  13.384  65.515  1.00  0.00    -0.483 C  
HETATM    4  C   UNL     1     -11.061  13.339  63.340  1.00  0.00     0.279 C  
ENDROOT
BRANCH   3   5
HETATM    5  N   UNL     1     -11.481  14.153  66.273  1.00  0.00    -0.341 NA 
HETATM    6  C   UNL     1     -11.496  15.526  66.292  1.00  0.00     0.099 A  
HETATM    7  N   UNL     1     -10.598  16.015  67.106  1.00  0.00    -0.309 NA 
HETATM    8  C   UNL     1      -9.935  14.914  67.607  1.00  0.00    -0.226 A  
HETATM    9  C   UNL     1     -10.430  13.723  67.059  1.00  0.00    -0.274 A  
HETATM   10  C   UNL     1      -9.833  12.474  67.398  1.00  0.00    -0.201 A  
HETATM   11  C   UNL     1     -10.235  11.210  66.903  1.00  0.00    -0.260 A  
HETATM   12  C   UNL     1      -9.561  10.051  67.283  1.00  0.00    -0.188 A  
HETATM   13  C   UNL     1      -8.484  10.138  68.153  1.00  0.00    -0.118 A  
HETATM   14  C   UNL     1      -8.091  11.384  68.649  1.00  0.00    -0.141 A  
HETATM   15  C   UNL     1      -8.741  12.557  68.297  1.00  0.00    -0.171 A  
HETATM   16  N   UNL     1      -8.290  13.700  68.838  1.00  0.00     0.057 NA 
HETATM   17  C   UNL     1      -8.874  14.878  68.537  1.00  0.00    -0.174 A  
HETATM   18  N   UNL     1      -8.377  16.022  69.151  1.00  0.00    -0.242 NA 
HETATM   19  H2  UNL     1      -9.161  16.497  69.598  1.00  0.00     0.000 HD 
HETATM   20  H1  UNL     1      -7.610  15.996  69.823  1.00  0.00     0.000 HD 
ENDBRANCH   3   5
TORSDOF 1
ENDMDL
MODEL      172
REMARK 921   NORMALIZED FREE ENERGY PREDICTED BY IDOCK:   -3.16 KCAL/MOL
REMARK 922        TOTAL FREE ENERGY PREDICTED BY IDOCK:   -3.58 KCAL/MOL
REMARK 923 INTER-LIGAND FREE ENERGY PREDICTED BY IDOCK:   -3.57 KCAL/MOL
REMARK 924 INTRA-LIGAND FREE ENERGY PREDICTED BY IDOCK:   -0.01 KCAL/MOL
REMARK 927      BINDING AFFINITY PREDICTED BY RF-SCORE:    0.00 PKD
ROOT
HETATM    1  C   UNL     1     -13.522   8.797  72.403  1.00  0.00    -0.446 C  
HETATM    2  C   UNL     1     -12.276   8.571  71.542  1.00  0.00    -0.355 C  
HETATM    3  C   UNL     1     -11.922   9.872  70.796  1.00  0.00    -0.323 C  
HETATM    4  C   UNL     1     -12.515   7.368  70.626  1.00  0.00    -0.032 C  
ENDROOT
BRANCH   3   5
HETATM    5  N   UNL     1     -10.739   9.786  69.964  1.00  0.00    -0.261 NA 
HETATM    6  C   UNL     1     -10.754  10.138  68.637  1.00  0.00    -0.222 A  
HETATM    7  N   UNL     1      -9.565  10.070  68.098  1.00  0.00    -0.138 NA 
HETATM    8  C   UNL     1      -8.743   9.609  69.106  1.00  0.00    -0.151 A  
HETATM    9  C   UNL     1      -9.463   9.366  70.284  1.00  0.00    -0.251 A  
HETATM   10  C   UNL     1      -8.807   8.820  71.426  1.00  0.00    -0.292 A  
HETATM   11  C   UNL     1      -9.426   8.521  72.664  1.00  0.00    -0.295 A  
HETATM   12  C   UNL     1      -8.692   7.964  73.708  1.00  0.00    -0.331 A  
HETATM   13  C   UNL     1      -7.341   7.698  73.533  1.00  0.00    -0.131 A  
HETATM   14  C   UNL     1      -6.727   8.001  72.314  1.00  0.00    -0.072 A  
HETATM   15  C   UNL     1      -7.425   8.560  71.254  1.00  0.00    -0.098 A  
HETATM   16  N   UNL     1      -6.738   8.822  70.131  1.00  0.00    -0.038 NA 
HETATM   17  C   UNL     1      -7.355   9.363  69.061  1.00  0.00    -0.072 A  
HETATM   18  N   UNL     1      -6.582   9.634  67.937  1.00  0.00    -0.061 NA 
HETATM   19  H2  UNL     1      -6.728  10.613  67.692  1.00  0.00     0.000 HD 
HETATM   20  H1  UNL     1      -5.578   9.456  67.905  1.00  0.00     0.000 HD 
ENDBRANCH   3   5
TORSDOF 1
ENDMDL
MODEL      173
REMARK 921   NORMALIZED FREE ENERGY PREDICTED BY IDOCK:   -3.10 KCAL/MOL
REMARK 922        TOTAL FREE ENERGY PREDICTED BY IDOCK:   -3.52 KCAL/MOL
REMARK 923 INTER-LIGAND FREE ENERGY PREDICTED BY IDOCK:   -3.32 KCAL/MOL
REMARK 924 INTRA-LIGAND FREE ENERGY PREDICTED BY IDOCK:   -0.20 KCAL/MOL
REMARK 927      BINDING AFFINITY PREDICTED BY RF-SCORE:    0.00 PKD
ROOT
HETATM    1  C   UNL     1     -13.253   9.908  70.962  1.00  0.00    -0.375 C  
HETATM    2  C   UNL     1     -12.825  11.156  70.185  1.00  0.00    -0.067 C  
HETATM    3  C   UNL     1     -11.734  10.778  69.164  1.00  0.00    -0.296 C  
HETATM    4  C   UNL     1     -12.406  12.242  71.178  1.00  0.00    -0.251 C  
ENDROOT
BRANCH   3   5
HETATM    5  N   UNL     1     -11.267  11.881  68.348  1.00  0.00    -0.235 NA 
HETATM    6  C   UNL     1     -12.132  12.764  67.751  1.00  0.00    -0.133 A  
HETATM    7  N   UNL     1     -11.500  13.730  67.137  1.00  0.00    -0.324 NA 
HETATM    8  C   UNL     1     -10.162  13.440  67.301  1.00  0.00    -0.241 A  
HETATM    9  C   UNL     1      -9.978  12.248  68.014  1.00  0.00    -0.202 A  
HETATM   10  C   UNL     1      -8.665  11.737  68.232  1.00  0.00    -0.167 A  
HETATM   11  C   UNL     1      -8.353  10.542  68.924  1.00  0.00    -0.147 A  
HETATM   12  C   UNL     1      -7.032  10.123  69.057  1.00  0.00    -0.058 A  
HETATM   13  C   UNL     1      -6.011  10.882  68.503  1.00  0.00    -0.043 A  
HETATM   14  C   UNL     1      -6.317  12.066  67.826  1.00  0.00    -0.081 A  
HETATM   15  C   UNL     1      -7.620  12.518  67.679  1.00  0.00    -0.145 A  
HETATM   16  N   UNL     1      -7.803  13.673  67.021  1.00  0.00     0.012 NA 
HETATM   17  C   UNL     1      -9.045  14.168  66.839  1.00  0.00    -0.245 A  
HETATM   18  N   UNL     1      -9.165  15.382  66.172  1.00  0.00    -0.320 NA 
HETATM   19  H2  UNL     1      -9.714  16.006  66.764  1.00  0.00     0.000 HD 
HETATM   20  H1  UNL     1      -8.358  15.909  65.838  1.00  0.00     0.000 HD 
ENDBRANCH   3   5
TORSDOF 1
ENDMDL
MODEL      174
REMARK 921   NORMALIZED FREE ENERGY PREDICTED BY IDOCK:   -3.08 KCAL/MOL
REMARK 922        TOTAL FREE ENERGY PREDICTED BY IDOCK:   -3.50 KCAL/MOL
REMARK 923 INTER-LIGAND FREE ENERGY PREDICTED BY IDOCK:   -3.35 KCAL/MOL
REMARK 924 INTRA-LIGAND FREE ENERGY PREDICTED BY IDOCK:   -0.15 KCAL/MOL
REMARK 927      BINDING AFFINITY PREDICTED BY RF-SCORE:    0.00 PKD
ROOT
HETATM    1  C   UNL     1      -7.558  10.978  67.547  1.00  0.00    -0.106 C  
HETATM    2  C   UNL     1      -7.481  12.327  68.268  1.00  0.00    -0.119 C  
HETATM    3  C   UNL     1      -6.598  13.295  67.457  1.00  0.00    -0.143 C  
HETATM    4  C   UNL     1      -7.005  12.098  69.705  1.00  0.00     0.194 C  
ENDROOT
BRANCH   3   5
HETATM    5  N   UNL     1      -6.472  14.619  68.033  1.00  0.00    -0.136 NA 
HETATM    6  C   UNL     1      -5.493  14.926  68.945  1.00  0.00    -0.087 A  
HETATM    7  N   UNL     1      -5.503  16.194  69.267  1.00  0.00    -0.113 NA 
HETATM    8  C   UNL     1      -6.564  16.730  68.568  1.00  0.00    -0.161 A  
HETATM    9  C   UNL     1      -7.234  15.751  67.821  1.00  0.00    -0.153 A  
HETATM   10  C   UNL     1      -8.403  16.089  67.078  1.00  0.00    -0.251 A  
HETATM   11  C   UNL     1      -9.169  15.190  66.298  1.00  0.00    -0.336 A  
HETATM   12  C   UNL     1     -10.313  15.625  65.632  1.00  0.00    -0.408 A  
HETATM   13  C   UNL     1     -10.706  16.952  65.737  1.00  0.00    -0.165 A  
HETATM   14  C   UNL     1      -9.946  17.842  66.500  1.00  0.00    -0.357 A  
HETATM   15  C   UNL     1      -8.799  17.447  67.172  1.00  0.00    -0.232 A  
HETATM   16  N   UNL     1      -8.136  18.383  67.869  1.00  0.00    -0.254 NA 
HETATM   17  C   UNL     1      -7.015  18.066  68.549  1.00  0.00    -0.245 A  
HETATM   18  N   UNL     1      -6.361  19.088  69.229  1.00  0.00    -0.278 NA 
HETATM   19  H2  UNL     1      -5.388  19.088  68.923  1.00  0.00     0.000 HD 
HETATM   20  H1  UNL     1      -6.687  20.054  69.215  1.00  0.00     0.000 HD 
ENDBRANCH   3   5
TORSDOF 1
ENDMDL
MODEL      175
REMARK 921   NORMALIZED FREE ENERGY PREDICTED BY IDOCK:   -3.07 KCAL/MOL
REMARK 922        TOTAL FREE ENERGY PREDICTED BY IDOCK:   -3.49 KCAL/MOL
REMARK 923 INTER-LIGAND FREE ENERGY PREDICTED BY IDOCK:   -3.09 KCAL/MOL
REMARK 924 INTRA-LIGAND FREE ENERGY PREDICTED BY IDOCK:   -0.40 KCAL/MOL
REMARK 927      BINDING AFFINITY PREDICTED BY RF-SCORE:    0.00 PKD
ROOT
HETATM    1  C   UNL     1      -5.297  10.354  62.974  1.00  0.00    -0.144 C  
HETATM    2  C   UNL     1      -6.559  10.589  63.809  1.00  0.00     0.070 C  
HETATM    3  C   UNL     1      -6.462   9.793  65.125  1.00  0.00    -0.095 C  
HETATM    4  C   UNL     1      -7.787  10.252  62.961  1.00  0.00    -0.148 C  
ENDROOT
BRANCH   3   5
HETATM    5  N   UNL     1      -7.595   9.958  66.013  1.00  0.00    -0.102 NA 
HETATM    6  C   UNL     1      -7.846  11.143  66.661  1.00  0.00    -0.155 A  
HETATM    7  N   UNL     1      -8.963  11.102  67.340  1.00  0.00    -0.139 NA 
HETATM    8  C   UNL     1      -9.440   9.820  67.165  1.00  0.00    -0.154 A  
HETATM    9  C   UNL     1      -8.571   9.052  66.378  1.00  0.00    -0.125 A  
HETATM   10  C   UNL     1      -8.850   7.676  66.134  1.00  0.00    -0.192 A  
HETATM   11  C   UNL     1      -8.046   6.797  65.368  1.00  0.00    -0.129 A  
HETATM   12  C   UNL     1      -8.403   5.460  65.215  1.00  0.00    -0.142 A  
HETATM   13  C   UNL     1      -9.556   4.983  65.823  1.00  0.00    -0.162 A  
HETATM   14  C   UNL     1     -10.354   5.850  66.573  1.00  0.00    -0.237 A  
HETATM   15  C   UNL     1     -10.034   7.189  66.742  1.00  0.00    -0.208 A  
HETATM   16  N   UNL     1     -10.875   7.938  67.472  1.00  0.00    -0.158 NA 
HETATM   17  C   UNL     1     -10.622   9.247  67.679  1.00  0.00    -0.261 A  
HETATM   18  N   UNL     1     -11.545   9.974  68.423  1.00  0.00    -0.603 NA 
HETATM   19  H2  UNL     1     -11.814  10.788  67.869  1.00  0.00     0.000 HD 
HETATM   20  H1  UNL     1     -12.400   9.560  68.794  1.00  0.00     0.000 HD 
ENDBRANCH   3   5
TORSDOF 1
ENDMDL
MODEL      176
REMARK 921   NORMALIZED FREE ENERGY PREDICTED BY IDOCK:   -3.06 KCAL/MOL
REMARK 922        TOTAL FREE ENERGY PREDICTED BY IDOCK:   -3.47 KCAL/MOL
REMARK 923 INTER-LIGAND FREE ENERGY PREDICTED BY IDOCK:   -3.73 KCAL/MOL
REMARK 924 INTRA-LIGAND FREE ENERGY PREDICTED BY IDOCK:    0.26 KCAL/MOL
REMARK 927      BINDING AFFINITY PREDICTED BY RF-SCORE:    0.00 PKD
ROOT
HETATM    1  C   UNL     1     -14.297   7.066  71.352  1.00  0.00    -0.337 C  
HETATM    2  C   UNL     1     -12.992   7.853  71.507  1.00  0.00    -0.338 C  
HETATM    3  C   UNL     1     -11.856   6.892  71.908  1.00  0.00    -0.315 C  
HETATM    4  C   UNL     1     -13.217   9.003  72.491  1.00  0.00    -0.467 C  
ENDROOT
BRANCH   3   5
HETATM    5  N   UNL     1     -10.560   7.523  72.060  1.00  0.00    -0.206 NA 
HETATM    6  C   UNL     1     -10.311   8.795  71.608  1.00  0.00    -0.321 A  
HETATM    7  N   UNL     1      -9.110   9.202  71.925  1.00  0.00    -0.312 NA 
HETATM    8  C   UNL     1      -8.531   8.131  72.574  1.00  0.00    -0.185 A  
HETATM    9  C   UNL     1      -9.400   7.033  72.628  1.00  0.00    -0.138 A  
HETATM   10  C   UNL     1      -8.966   5.801  73.200  1.00  0.00    -0.124 A  
HETATM   11  C   UNL     1      -9.745   4.623  73.300  1.00  0.00    -0.154 A  
HETATM   12  C   UNL     1      -9.209   3.464  73.857  1.00  0.00    -0.099 A  
HETATM   13  C   UNL     1      -7.899   3.463  74.315  1.00  0.00    -0.066 A  
HETATM   14  C   UNL     1      -7.133   4.628  74.223  1.00  0.00    -0.076 A  
HETATM   15  C   UNL     1      -7.633   5.802  73.681  1.00  0.00    -0.097 A  
HETATM   16  N   UNL     1      -6.817   6.867  73.650  1.00  0.00    -0.071 NA 
HETATM   17  C   UNL     1      -7.239   8.039  73.132  1.00  0.00    -0.116 A  
HETATM   18  N   UNL     1      -6.353   9.110  73.154  1.00  0.00    -0.309 NA 
HETATM   19  H2  UNL     1      -6.828   9.893  73.606  1.00  0.00     0.000 HD 
HETATM   20  H1  UNL     1      -5.419   9.044  73.557  1.00  0.00     0.000 HD 
ENDBRANCH   3   5
TORSDOF 1
ENDMDL
MODEL      177
REMARK 921   NORMALIZED FREE ENERGY PREDICTED BY IDOCK:   -3.05 KCAL/MOL
REMARK 922        TOTAL FREE ENERGY PREDICTED BY IDOCK:   -3.47 KCAL/MOL
REMARK 923 INTER-LIGAND FREE ENERGY PREDICTED BY IDOCK:   -3.13 KCAL/MOL
REMARK 924 INTRA-LIGAND FREE ENERGY PREDICTED BY IDOCK:   -0.34 KCAL/MOL
REMARK 927      BINDING AFFINITY PREDICTED BY RF-SCORE:    0.00 PKD
ROOT
HETATM    1  C   UNL     1     -12.224  14.061  70.494  1.00  0.00    -0.435 C  
HETATM    2  C   UNL     1     -11.968  13.266  69.210  1.00  0.00    -0.354 C  
HETATM    3  C   UNL     1     -10.808  12.278  69.438  1.00  0.00     0.047 C  
HETATM    4  C   UNL     1     -11.741  14.245  68.056  1.00  0.00    -0.386 C  
ENDROOT
BRANCH   3   5
HETATM    5  N   UNL     1     -10.489  11.449  68.293  1.00  0.00    -0.190 NA 
HETATM    6  C   UNL     1     -11.408  10.596  67.734  1.00  0.00    -0.244 A  
HETATM    7  N   UNL     1     -10.944  10.011  66.661  1.00  0.00     0.019 NA 
HETATM    8  C   UNL     1      -9.648  10.468  66.539  1.00  0.00    -0.174 A  
HETATM    9  C   UNL     1      -9.309  11.335  67.586  1.00  0.00    -0.160 A  
HETATM   10  C   UNL     1      -7.989  11.865  67.681  1.00  0.00    -0.146 A  
HETATM   11  C   UNL     1      -7.525  12.738  68.695  1.00  0.00    -0.092 A  
HETATM   12  C   UNL     1      -6.202  13.175  68.704  1.00  0.00    -0.083 A  
HETATM   13  C   UNL     1      -5.331  12.749  67.711  1.00  0.00    -0.115 A  
HETATM   14  C   UNL     1      -5.790  11.894  66.706  1.00  0.00    -0.059 A  
HETATM   15  C   UNL     1      -7.100  11.443  66.661  1.00  0.00    -0.103 A  
HETATM   16  N   UNL     1      -7.441  10.633  65.646  1.00  0.00    -0.129 NA 
HETATM   17  C   UNL     1      -8.698  10.154  65.544  1.00  0.00    -0.158 A  
HETATM   18  N   UNL     1      -8.993   9.341  64.455  1.00  0.00    -0.366 NA 
HETATM   19  H2  UNL     1      -9.809   9.738  63.987  1.00  0.00     0.000 HD 
HETATM   20  H1  UNL     1      -8.307   9.115  63.736  1.00  0.00     0.000 HD 
ENDBRANCH   3   5
TORSDOF 1
ENDMDL
MODEL      178
REMARK 921   NORMALIZED FREE ENERGY PREDICTED BY IDOCK:   -3.04 KCAL/MOL
REMARK 922        TOTAL FREE ENERGY PREDICTED BY IDOCK:   -3.46 KCAL/MOL
REMARK 923 INTER-LIGAND FREE ENERGY PREDICTED BY IDOCK:   -3.04 KCAL/MOL
REMARK 924 INTRA-LIGAND FREE ENERGY PREDICTED BY IDOCK:   -0.42 KCAL/MOL
REMARK 927      BINDING AFFINITY PREDICTED BY RF-SCORE:    0.00 PKD
ROOT
HETATM    1  C   UNL     1     -11.023  12.983  66.444  1.00  0.00    -0.301 C  
HETATM    2  C   UNL     1     -10.968  11.478  66.167  1.00  0.00    -0.320 C  
HETATM    3  C   UNL     1      -9.888  10.830  67.055  1.00  0.00    -0.187 C  
HETATM    4  C   UNL     1     -10.763  11.254  64.667  1.00  0.00    -0.371 C  
ENDROOT
BRANCH   3   5
HETATM    5  N   UNL     1      -9.761   9.395  66.898  1.00  0.00    -0.173 NA 
HETATM    6  C   UNL     1     -10.638   8.517  67.486  1.00  0.00    -0.214 A  
HETATM    7  N   UNL     1     -10.394   7.279  67.144  1.00  0.00    -0.265 NA 
HETATM    8  C   UNL     1      -9.281   7.346  66.332  1.00  0.00    -0.159 A  
HETATM    9  C   UNL     1      -8.821   8.663  66.200  1.00  0.00    -0.171 A  
HETATM   10  C   UNL     1      -7.638   8.939  65.454  1.00  0.00    -0.087 A  
HETATM   11  C   UNL     1      -7.069  10.220  65.259  1.00  0.00    -0.130 A  
HETATM   12  C   UNL     1      -5.892  10.371  64.530  1.00  0.00    -0.120 A  
HETATM   13  C   UNL     1      -5.269   9.254  63.992  1.00  0.00    -0.059 A  
HETATM   14  C   UNL     1      -5.834   7.989  64.176  1.00  0.00    -0.056 A  
HETATM   15  C   UNL     1      -7.007   7.801  64.891  1.00  0.00    -0.055 A  
HETATM   16  N   UNL     1      -7.471   6.546  65.000  1.00  0.00    -0.079 NA 
HETATM   17  C   UNL     1      -8.605   6.291  65.684  1.00  0.00    -0.139 A  
HETATM   18  N   UNL     1      -9.045   4.973  65.737  1.00  0.00    -0.150 NA 
HETATM   19  H2  UNL     1     -10.014   4.959  65.417  1.00  0.00     0.000 HD 
HETATM   20  H1  UNL     1      -8.556   4.211  65.269  1.00  0.00     0.000 HD 
ENDBRANCH   3   5
TORSDOF 1
ENDMDL
MODEL      179
REMARK 921   NORMALIZED FREE ENERGY PREDICTED BY IDOCK:   -3.03 KCAL/MOL
REMARK 922        TOTAL FREE ENERGY PREDICTED BY IDOCK:   -3.45 KCAL/MOL
REMARK 923 INTER-LIGAND FREE ENERGY PREDICTED BY IDOCK:   -3.07 KCAL/MOL
REMARK 924 INTRA-LIGAND FREE ENERGY PREDICTED BY IDOCK:   -0.38 KCAL/MOL
REMARK 927      BINDING AFFINITY PREDICTED BY RF-SCORE:    0.00 PKD
ROOT
HETATM    1  C   UNL     1      -7.642   9.732  64.344  1.00  0.00    -0.135 C  
HETATM    2  C   UNL     1      -8.580  10.000  65.524  1.00  0.00    -0.162 C  
HETATM    3  C   UNL     1      -8.008   9.346  66.796  1.00  0.00    -0.108 C  
HETATM    4  C   UNL     1      -9.990   9.532  65.156  1.00  0.00     0.048 C  
ENDROOT
BRANCH   3   5
HETATM    5  N   UNL     1      -8.803   9.556  67.990  1.00  0.00    -0.124 NA 
HETATM    6  C   UNL     1      -8.992  10.804  68.529  1.00  0.00    -0.160 A  
HETATM    7  N   UNL     1      -9.811  10.779  69.548  1.00  0.00    -0.095 NA 
HETATM    8  C   UNL     1     -10.136   9.448  69.711  1.00  0.00    -0.211 A  
HETATM    9  C   UNL     1      -9.472   8.640  68.778  1.00  0.00    -0.143 A  
HETATM   10  C   UNL     1      -9.621   7.223  68.821  1.00  0.00    -0.142 A  
HETATM   11  C   UNL     1      -8.996   6.304  67.943  1.00  0.00    -0.113 A  
HETATM   12  C   UNL     1      -9.193   4.933  68.093  1.00  0.00    -0.151 A  
HETATM   13  C   UNL     1     -10.008   4.464  69.114  1.00  0.00    -0.117 A  
HETATM   14  C   UNL     1     -10.632   5.370  69.975  1.00  0.00    -0.354 A  
HETATM   15  C   UNL     1     -10.464   6.741  69.853  1.00  0.00    -0.211 A  
HETATM   16  N   UNL     1     -11.117   7.524  70.726  1.00  0.00    -0.260 NA 
HETATM   17  C   UNL     1     -10.996   8.867  70.666  1.00  0.00    -0.241 A  
HETATM   18  N   UNL     1     -11.719   9.622  71.582  1.00  0.00    -0.395 NA 
HETATM   19  H2  UNL     1     -12.263  10.306  71.056  1.00  0.00     0.000 HD 
HETATM   20  H1  UNL     1     -12.340   9.202  72.273  1.00  0.00     0.000 HD 
ENDBRANCH   3   5
TORSDOF 1
ENDMDL
MODEL      180
REMARK 921   NORMALIZED FREE ENERGY PREDICTED BY IDOCK:   -3.01 KCAL/MOL
REMARK 922        TOTAL FREE ENERGY PREDICTED BY IDOCK:   -3.42 KCAL/MOL
REMARK 923 INTER-LIGAND FREE ENERGY PREDICTED BY IDOCK:   -3.38 KCAL/MOL
REMARK 924 INTRA-LIGAND FREE ENERGY PREDICTED BY IDOCK:   -0.04 KCAL/MOL
REMARK 927      BINDING AFFINITY PREDICTED BY RF-SCORE:    0.00 PKD
ROOT
HETATM    1  C   UNL     1     -10.222   5.530  71.165  1.00  0.00    -0.285 C  
HETATM    2  C   UNL     1     -10.467   7.029  70.971  1.00  0.00    -0.231 C  
HETATM    3  C   UNL     1     -10.709   7.323  69.478  1.00  0.00    -0.232 C  
HETATM    4  C   UNL     1      -9.299   7.808  71.582  1.00  0.00    -0.174 C  
ENDROOT
BRANCH   3   5
HETATM    5  N   UNL     1     -10.979   8.714  69.174  1.00  0.00    -0.025 NA 
HETATM    6  C   UNL     1     -11.656   9.532  70.044  1.00  0.00    -0.048 A  
HETATM    7  N   UNL     1     -11.712  10.765  69.614  1.00  0.00    -0.298 NA 
HETATM    8  C   UNL     1     -11.082  10.743  68.387  1.00  0.00    -0.266 A  
HETATM    9  C   UNL     1     -10.655   9.451  68.052  1.00  0.00    -0.226 A  
HETATM   10  C   UNL     1     -10.040   9.203  66.790  1.00  0.00    -0.341 A  
HETATM   11  C   UNL     1      -9.579   7.944  66.334  1.00  0.00    -0.251 A  
HETATM   12  C   UNL     1      -9.014   7.812  65.068  1.00  0.00     0.340 A  
HETATM   13  C   UNL     1      -8.904   8.923  64.245  1.00  0.00    -0.022 A  
HETATM   14  C   UNL     1      -9.351  10.167  64.697  1.00  0.00    -0.334 A  
HETATM   15  C   UNL     1      -9.913  10.339  65.953  1.00  0.00    -0.256 A  
HETATM   16  N   UNL     1     -10.300  11.579  66.293  1.00  0.00    -0.231 NA 
HETATM   17  C   UNL     1     -10.858  11.816  67.498  1.00  0.00    -0.239 A  
HETATM   18  N   UNL     1     -11.213  13.126  67.799  1.00  0.00    -0.264 NA 
HETATM   19  H2  UNL     1     -10.774  13.367  68.688  1.00  0.00     0.000 HD 
HETATM   20  H1  UNL     1     -11.052  13.901  67.157  1.00  0.00     0.000 HD 
ENDBRANCH   3   5
TORSDOF 1
ENDMDL
MODEL      181
REMARK 921   NORMALIZED FREE ENERGY PREDICTED BY IDOCK:   -3.01 KCAL/MOL
REMARK 922        TOTAL FREE ENERGY PREDICTED BY IDOCK:   -3.42 KCAL/MOL
REMARK 923 INTER-LIGAND FREE ENERGY PREDICTED BY IDOCK:   -3.00 KCAL/MOL
REMARK 924 INTRA-LIGAND FREE ENERGY PREDICTED BY IDOCK:   -0.42 KCAL/MOL
REMARK 927      BINDING AFFINITY PREDICTED BY RF-SCORE:    0.00 PKD
ROOT
HETATM    1  C   UNL     1      -6.559  10.429  63.145  1.00  0.00    -0.085 C  
HETATM    2  C   UNL     1      -7.717  10.000  64.050  1.00  0.00    -0.143 C  
HETATM    3  C   UNL     1      -7.194   9.039  65.135  1.00  0.00    -0.088 C  
HETATM    4  C   UNL     1      -8.837   9.419  63.184  1.00  0.00    -0.207 C  
ENDROOT
BRANCH   3   5
HETATM    5  N   UNL     1      -8.202   8.583  66.072  1.00  0.00    -0.112 NA 
HETATM    6  C   UNL     1      -8.675   9.385  67.081  1.00  0.00    -0.128 A  
HETATM    7  N   UNL     1      -9.639   8.811  67.752  1.00  0.00    -0.145 NA 
HETATM    8  C   UNL     1      -9.772   7.560  67.184  1.00  0.00    -0.173 A  
HETATM    9  C   UNL     1      -8.841   7.362  66.156  1.00  0.00    -0.160 A  
HETATM   10  C   UNL     1      -8.769   6.106  65.486  1.00  0.00    -0.105 A  
HETATM   11  C   UNL     1      -7.868   5.781  64.443  1.00  0.00    -0.110 A  
HETATM   12  C   UNL     1      -7.868   4.510  63.875  1.00  0.00    -0.089 A  
HETATM   13  C   UNL     1      -8.759   3.551  64.337  1.00  0.00    -0.097 A  
HETATM   14  C   UNL     1      -9.655   3.873  65.359  1.00  0.00    -0.185 A  
HETATM   15  C   UNL     1      -9.688   5.129  65.945  1.00  0.00    -0.140 A  
HETATM   16  N   UNL     1     -10.594   5.337  66.913  1.00  0.00    -0.254 NA 
HETATM   17  C   UNL     1     -10.678   6.535  67.527  1.00  0.00    -0.321 A  
HETATM   18  N   UNL     1     -11.656   6.693  68.503  1.00  0.00    -0.454 NA 
HETATM   19  H2  UNL     1     -12.205   7.518  68.258  1.00  0.00     0.000 HD 
HETATM   20  H1  UNL     1     -12.311   5.952  68.751  1.00  0.00     0.000 HD 
ENDBRANCH   3   5
TORSDOF 1
ENDMDL
MODEL      182
REMARK 921   NORMALIZED FREE ENERGY PREDICTED BY IDOCK:   -2.95 KCAL/MOL
REMARK 922        TOTAL FREE ENERGY PREDICTED BY IDOCK:   -3.36 KCAL/MOL
REMARK 923 INTER-LIGAND FREE ENERGY PREDICTED BY IDOCK:   -2.94 KCAL/MOL
REMARK 924 INTRA-LIGAND FREE ENERGY PREDICTED BY IDOCK:   -0.42 KCAL/MOL
REMARK 927      BINDING AFFINITY PREDICTED BY RF-SCORE:    0.00 PKD
ROOT
HETATM    1  C   UNL     1      -9.876   4.893  69.892  1.00  0.00    -0.295 C  
HETATM    2  C   UNL     1     -10.200   6.322  69.446  1.00  0.00    -0.238 C  
HETATM    3  C   UNL     1      -9.123   6.810  68.458  1.00  0.00    -0.129 C  
HETATM    4  C   UNL     1     -10.361   7.206  70.685  1.00  0.00    -0.217 C  
ENDROOT
BRANCH   3   5
HETATM    5  N   UNL     1      -9.338   8.149  67.946  1.00  0.00    -0.134 NA 
HETATM    6  C   UNL     1     -10.270   8.416  66.974  1.00  0.00    -0.307 A  
HETATM    7  N   UNL     1     -10.363   9.696  66.723  1.00  0.00    -0.236 NA 
HETATM    8  C   UNL     1      -9.417  10.287  67.534  1.00  0.00    -0.152 A  
HETATM    9  C   UNL     1      -8.711   9.333  68.280  1.00  0.00    -0.129 A  
HETATM   10  C   UNL     1      -7.642   9.736  69.132  1.00  0.00    -0.085 A  
HETATM   11  C   UNL     1      -6.851   8.869  69.923  1.00  0.00    -0.046 A  
HETATM   12  C   UNL     1      -5.811   9.370  70.703  1.00  0.00    -0.056 A  
HETATM   13  C   UNL     1      -5.546  10.732  70.701  1.00  0.00    -0.114 A  
HETATM   14  C   UNL     1      -6.331  11.590  69.927  1.00  0.00    -0.136 A  
HETATM   15  C   UNL     1      -7.378  11.128  69.143  1.00  0.00    -0.115 A  
HETATM   16  N   UNL     1      -8.076  12.038  68.446  1.00  0.00    -0.156 NA 
HETATM   17  C   UNL     1      -9.105  11.657  67.661  1.00  0.00    -0.174 A  
HETATM   18  N   UNL     1      -9.804  12.651  66.985  1.00  0.00    -0.221 NA 
HETATM   19  H2  UNL     1     -10.793  12.539  67.211  1.00  0.00     0.000 HD 
HETATM   20  H1  UNL     1      -9.580  13.641  67.077  1.00  0.00     0.000 HD 
ENDBRANCH   3   5
TORSDOF 1
ENDMDL
MODEL      183
REMARK 921   NORMALIZED FREE ENERGY PREDICTED BY IDOCK:   -2.92 KCAL/MOL
REMARK 922        TOTAL FREE ENERGY PREDICTED BY IDOCK:   -3.32 KCAL/MOL
REMARK 923 INTER-LIGAND FREE ENERGY PREDICTED BY IDOCK:   -3.02 KCAL/MOL
REMARK 924 INTRA-LIGAND FREE ENERGY PREDICTED BY IDOCK:   -0.31 KCAL/MOL
REMARK 927      BINDING AFFINITY PREDICTED BY RF-SCORE:    0.00 PKD
ROOT
HETATM    1  C   UNL     1      -9.785   3.274  71.197  1.00  0.00    -0.212 C  
HETATM    2  C   UNL     1      -9.335   4.563  70.503  1.00  0.00    -0.218 C  
HETATM    3  C   UNL     1     -10.215   5.737  70.975  1.00  0.00    -0.217 C  
HETATM    4  C   UNL     1      -9.343   4.342  68.989  1.00  0.00    -0.226 C  
ENDROOT
BRANCH   3   5
HETATM    5  N   UNL     1      -9.864   7.020  70.400  1.00  0.00    -0.179 NA 
HETATM    6  C   UNL     1     -10.656   7.641  69.465  1.00  0.00    -0.227 A  
HETATM    7  N   UNL     1     -10.202   8.825  69.148  1.00  0.00    -0.203 NA 
HETATM    8  C   UNL     1      -9.038   8.967  69.874  1.00  0.00    -0.161 A  
HETATM    9  C   UNL     1      -8.764   7.821  70.634  1.00  0.00    -0.139 A  
HETATM   10  C   UNL     1      -7.568   7.740  71.404  1.00  0.00    -0.081 A  
HETATM   11  C   UNL     1      -7.177   6.637  72.200  1.00  0.00    -0.081 A  
HETATM   12  C   UNL     1      -5.969   6.655  72.895  1.00  0.00    -0.042 A  
HETATM   13  C   UNL     1      -5.141   7.764  72.803  1.00  0.00    -0.036 A  
HETATM   14  C   UNL     1      -5.529   8.857  72.024  1.00  0.00    -0.057 A  
HETATM   15  C   UNL     1      -6.726   8.877  71.324  1.00  0.00    -0.083 A  
HETATM   16  N   UNL     1      -7.009   9.981  70.614  1.00  0.00    -0.309 NA 
HETATM   17  C   UNL     1      -8.155  10.066  69.907  1.00  0.00    -0.166 A  
HETATM   18  N   UNL     1      -8.400  11.247  69.214  1.00  0.00    -0.379 NA 
HETATM   19  H2  UNL     1      -9.321  11.584  69.497  1.00  0.00     0.000 HD 
HETATM   20  H1  UNL     1      -7.762  12.041  69.239  1.00  0.00     0.000 HD 
ENDBRANCH   3   5
TORSDOF 1
ENDMDL
MODEL      184
REMARK 921   NORMALIZED FREE ENERGY PREDICTED BY IDOCK:   -2.88 KCAL/MOL
REMARK 922        TOTAL FREE ENERGY PREDICTED BY IDOCK:   -3.28 KCAL/MOL
REMARK 923 INTER-LIGAND FREE ENERGY PREDICTED BY IDOCK:   -2.97 KCAL/MOL
REMARK 924 INTRA-LIGAND FREE ENERGY PREDICTED BY IDOCK:   -0.31 KCAL/MOL
REMARK 927      BINDING AFFINITY PREDICTED BY RF-SCORE:    0.00 PKD
ROOT
HETATM    1  C   UNL     1     -11.968   9.459  71.876  1.00  0.00    -0.416 C  
HETATM    2  C   UNL     1     -10.736   8.718  71.349  1.00  0.00    -0.356 C  
HETATM    3  C   UNL     1     -11.154   7.767  70.211  1.00  0.00    -0.234 C  
HETATM    4  C   UNL     1     -10.033   8.025  72.519  1.00  0.00    -0.338 C  
ENDROOT
BRANCH   3   5
HETATM    5  N   UNL     1     -10.061   7.026  69.614  1.00  0.00    -0.182 NA 
HETATM    6  C   UNL     1      -9.875   5.686  69.850  1.00  0.00    -0.189 A  
HETATM    7  N   UNL     1      -8.888   5.198  69.145  1.00  0.00    -0.092 NA 
HETATM    8  C   UNL     1      -8.378   6.275  68.452  1.00  0.00    -0.115 A  
HETATM    9  C   UNL     1      -9.060   7.458  68.767  1.00  0.00    -0.131 A  
HETATM   10  C   UNL     1      -8.641   8.700  68.206  1.00  0.00    -0.138 A  
HETATM   11  C   UNL     1      -9.240   9.958  68.455  1.00  0.00    -0.136 A  
HETATM   12  C   UNL     1      -8.731  11.115  67.870  1.00  0.00    -0.136 A  
HETATM   13  C   UNL     1      -7.625  11.034  67.037  1.00  0.00    -0.127 A  
HETATM   14  C   UNL     1      -7.038   9.792  66.783  1.00  0.00    -0.089 A  
HETATM   15  C   UNL     1      -7.520   8.618  67.343  1.00  0.00    -0.089 A  
HETATM   16  N   UNL     1      -6.889   7.477  67.026  1.00  0.00    -0.069 NA 
HETATM   17  C   UNL     1      -7.304   6.299  67.537  1.00  0.00    -0.080 A  
HETATM   18  N   UNL     1      -6.624   5.151  67.148  1.00  0.00    -0.052 NA 
HETATM   19  H2  UNL     1      -7.315   4.489  66.793  1.00  0.00     0.000 HD 
HETATM   20  H1  UNL     1      -5.848   5.168  66.487  1.00  0.00     0.000 HD 
ENDBRANCH   3   5
TORSDOF 1
ENDMDL
MODEL      185
REMARK 921   NORMALIZED FREE ENERGY PREDICTED BY IDOCK:   -2.84 KCAL/MOL
REMARK 922        TOTAL FREE ENERGY PREDICTED BY IDOCK:   -3.25 KCAL/MOL
REMARK 923 INTER-LIGAND FREE ENERGY PREDICTED BY IDOCK:   -2.83 KCAL/MOL
REMARK 924 INTRA-LIGAND FREE ENERGY PREDICTED BY IDOCK:   -0.42 KCAL/MOL
REMARK 927      BINDING AFFINITY PREDICTED BY RF-SCORE:    0.00 PKD
ROOT
HETATM    1  C   UNL     1      -7.409   7.105  65.329  1.00  0.00    -0.080 C  
HETATM    2  C   UNL     1      -7.194   6.846  66.822  1.00  0.00    -0.076 C  
HETATM    3  C   UNL     1      -8.439   6.155  67.411  1.00  0.00    -0.107 C  
HETATM    4  C   UNL     1      -6.825   8.164  67.508  1.00  0.00    -0.070 C  
ENDROOT
BRANCH   3   5
HETATM    5  N   UNL     1      -8.341   5.836  68.821  1.00  0.00    -0.104 NA 
HETATM    6  C   UNL     1      -7.688   4.715  69.270  1.00  0.00    -0.063 A  
HETATM    7  N   UNL     1      -7.642   4.665  70.576  1.00  0.00    -0.053 NA 
HETATM    8  C   UNL     1      -8.334   5.781  70.999  1.00  0.00    -0.123 A  
HETATM    9  C   UNL     1      -8.839   6.514  69.916  1.00  0.00    -0.143 A  
HETATM   10  C   UNL     1      -9.643   7.668  70.143  1.00  0.00    -0.168 A  
HETATM   11  C   UNL     1     -10.217   8.481  69.135  1.00  0.00    -0.218 A  
HETATM   12  C   UNL     1     -11.010   9.575  69.472  1.00  0.00    -0.217 A  
HETATM   13  C   UNL     1     -11.242   9.870  70.808  1.00  0.00    -0.427 A  
HETATM   14  C   UNL     1     -10.670   9.074  71.804  1.00  0.00    -0.437 A  
HETATM   15  C   UNL     1      -9.871   7.980  71.507  1.00  0.00    -0.170 A  
HETATM   16  N   UNL     1      -9.361   7.288  72.538  1.00  0.00    -0.141 NA 
HETATM   17  C   UNL     1      -8.578   6.211  72.320  1.00  0.00    -0.119 A  
HETATM   18  N   UNL     1      -8.061   5.554  73.431  1.00  0.00    -0.113 NA 
HETATM   19  H2  UNL     1      -7.050   5.494  73.310  1.00  0.00     0.000 HD 
HETATM   20  H1  UNL     1      -8.237   5.865  74.386  1.00  0.00     0.000 HD 
ENDBRANCH   3   5
TORSDOF 1
ENDMDL
MODEL      186
REMARK 921   NORMALIZED FREE ENERGY PREDICTED BY IDOCK:   -2.83 KCAL/MOL
REMARK 922        TOTAL FREE ENERGY PREDICTED BY IDOCK:   -3.23 KCAL/MOL
REMARK 923 INTER-LIGAND FREE ENERGY PREDICTED BY IDOCK:   -3.76 KCAL/MOL
REMARK 924 INTRA-LIGAND FREE ENERGY PREDICTED BY IDOCK:    0.52 KCAL/MOL
REMARK 927      BINDING AFFINITY PREDICTED BY RF-SCORE:    0.00 PKD
ROOT
HETATM    1  C   UNL     1     -10.852  12.730  66.749  1.00  0.00    -0.289 C  
HETATM    2  C   UNL     1     -10.523  11.295  66.329  1.00  0.00    -0.308 C  
HETATM    3  C   UNL     1      -9.851  10.556  67.502  1.00  0.00    -0.168 C  
HETATM    4  C   UNL     1      -9.687  11.330  65.048  1.00  0.00    -0.293 C  
ENDROOT
BRANCH   3   5
HETATM    5  N   UNL     1      -9.515   9.173  67.229  1.00  0.00    -0.144 NA 
HETATM    6  C   UNL     1      -8.881   8.792  66.072  1.00  0.00    -0.175 A  
HETATM    7  N   UNL     1      -8.593   7.517  66.068  1.00  0.00    -0.147 NA 
HETATM    8  C   UNL     1      -9.102   7.033  67.256  1.00  0.00    -0.125 A  
HETATM    9  C   UNL     1      -9.741   8.042  67.989  1.00  0.00    -0.160 A  
HETATM   10  C   UNL     1     -10.393   7.733  69.218  1.00  0.00    -0.220 A  
HETATM   11  C   UNL     1     -11.080   8.660  70.040  1.00  0.00    -0.161 A  
HETATM   12  C   UNL     1     -11.705   8.241  71.212  1.00  0.00    -0.318 A  
HETATM   13  C   UNL     1     -11.657   6.903  71.576  1.00  0.00    -0.329 A  
HETATM   14  C   UNL     1     -10.973   5.989  70.771  1.00  0.00    -0.364 A  
HETATM   15  C   UNL     1     -10.334   6.369  69.600  1.00  0.00    -0.204 A  
HETATM   16  N   UNL     1      -9.697   5.414  68.905  1.00  0.00    -0.140 NA 
HETATM   17  C   UNL     1      -9.058   5.715  67.755  1.00  0.00    -0.106 A  
HETATM   18  N   UNL     1      -8.395   4.685  67.097  1.00  0.00    -0.105 NA 
HETATM   19  H2  UNL     1      -7.433   4.988  66.943  1.00  0.00     0.000 HD 
HETATM   20  H1  UNL     1      -8.363   3.732  67.458  1.00  0.00     0.000 HD 
ENDBRANCH   3   5
TORSDOF 1
ENDMDL
MODEL      187
REMARK 921   NORMALIZED FREE ENERGY PREDICTED BY IDOCK:   -2.81 KCAL/MOL
REMARK 922        TOTAL FREE ENERGY PREDICTED BY IDOCK:   -3.21 KCAL/MOL
REMARK 923 INTER-LIGAND FREE ENERGY PREDICTED BY IDOCK:   -3.08 KCAL/MOL
REMARK 924 INTRA-LIGAND FREE ENERGY PREDICTED BY IDOCK:   -0.13 KCAL/MOL
REMARK 927      BINDING AFFINITY PREDICTED BY RF-SCORE:    0.00 PKD
ROOT
HETATM    1  C   UNL     1      -5.492  11.743  67.069  1.00  0.00    -0.127 C  
HETATM    2  C   UNL     1      -6.913  11.240  67.338  1.00  0.00    -0.101 C  
HETATM    3  C   UNL     1      -7.108  11.033  68.853  1.00  0.00    -0.098 C  
HETATM    4  C   UNL     1      -7.166   9.988  66.496  1.00  0.00    -0.101 C  
ENDROOT
BRANCH   3   5
HETATM    5  N   UNL     1      -8.431  10.579  69.233  1.00  0.00    -0.153 NA 
HETATM    6  C   UNL     1      -9.568  11.070  68.639  1.00  0.00    -0.195 A  
HETATM    7  N   UNL     1     -10.644  10.463  69.067  1.00  0.00    -0.207 NA 
HETATM    8  C   UNL     1     -10.195   9.568  70.015  1.00  0.00    -0.244 A  
HETATM    9  C   UNL     1      -8.807   9.654  70.187  1.00  0.00    -0.231 A  
HETATM   10  C   UNL     1      -8.154   8.858  71.172  1.00  0.00    -0.201 A  
HETATM   11  C   UNL     1      -6.765   8.864  71.446  1.00  0.00    -0.085 A  
HETATM   12  C   UNL     1      -6.237   8.060  72.453  1.00  0.00    -0.052 A  
HETATM   13  C   UNL     1      -7.080   7.247  73.196  1.00  0.00    -0.075 A  
HETATM   14  C   UNL     1      -8.450   7.233  72.921  1.00  0.00    -0.134 A  
HETATM   15  C   UNL     1      -9.011   8.015  71.924  1.00  0.00    -0.149 A  
HETATM   16  N   UNL     1     -10.337   7.919  71.734  1.00  0.00    -0.202 NA 
HETATM   17  C   UNL     1     -10.948   8.655  70.783  1.00  0.00    -0.245 A  
HETATM   18  N   UNL     1     -12.319   8.490  70.621  1.00  0.00    -0.480 NA 
HETATM   19  H2  UNL     1     -12.489   8.277  69.637  1.00  0.00     0.000 HD 
HETATM   20  H1  UNL     1     -12.863   7.829  71.175  1.00  0.00     0.000 HD 
ENDBRANCH   3   5
TORSDOF 1
ENDMDL
MODEL      188
REMARK 921   NORMALIZED FREE ENERGY PREDICTED BY IDOCK:   -2.71 KCAL/MOL
REMARK 922        TOTAL FREE ENERGY PREDICTED BY IDOCK:   -3.11 KCAL/MOL
REMARK 923 INTER-LIGAND FREE ENERGY PREDICTED BY IDOCK:   -2.68 KCAL/MOL
REMARK 924 INTRA-LIGAND FREE ENERGY PREDICTED BY IDOCK:   -0.42 KCAL/MOL
REMARK 927      BINDING AFFINITY PREDICTED BY RF-SCORE:    0.00 PKD
ROOT
HETATM    1  C   UNL     1     -11.032   6.207  66.925  1.00  0.00    -0.384 C  
HETATM    2  C   UNL     1      -9.844   6.680  67.768  1.00  0.00    -0.144 C  
HETATM    3  C   UNL     1     -10.306   7.789  68.733  1.00  0.00    -0.204 C  
HETATM    4  C   UNL     1      -8.704   7.095  66.835  1.00  0.00    -0.126 C  
ENDROOT
BRANCH   3   5
HETATM    5  N   UNL     1      -9.267   8.300  69.605  1.00  0.00    -0.157 NA 
HETATM    6  C   UNL     1      -8.848   7.615  70.718  1.00  0.00    -0.144 A  
HETATM    7  N   UNL     1      -7.845   8.209  71.310  1.00  0.00    -0.089 NA 
HETATM    8  C   UNL     1      -7.628   9.357  70.577  1.00  0.00    -0.150 A  
HETATM    9  C   UNL     1      -8.546   9.475  69.524  1.00  0.00    -0.169 A  
HETATM   10  C   UNL     1      -8.533  10.628  68.686  1.00  0.00    -0.142 A  
HETATM   11  C   UNL     1      -9.413  10.866  67.603  1.00  0.00    -0.170 A  
HETATM   12  C   UNL     1      -9.327  12.044  66.864  1.00  0.00    -0.200 A  
HETATM   13  C   UNL     1      -8.371  12.994  67.196  1.00  0.00    -0.153 A  
HETATM   14  C   UNL     1      -7.497  12.757  68.259  1.00  0.00    -0.124 A  
HETATM   15  C   UNL     1      -7.549  11.594  69.013  1.00  0.00    -0.027 A  
HETATM   16  N   UNL     1      -6.656  11.460  70.007  1.00  0.00    -0.106 NA 
HETATM   17  C   UNL     1      -6.653  10.356  70.781  1.00  0.00     0.109 A  
HETATM   18  N   UNL     1      -5.686  10.267  71.776  1.00  0.00    -0.304 NA 
HETATM   19  H2  UNL     1      -5.196   9.381  71.651  1.00  0.00     0.000 HD 
HETATM   20  H1  UNL     1      -4.982  10.989  71.924  1.00  0.00     0.000 HD 
ENDBRANCH   3   5
TORSDOF 1
ENDMDL
MODEL      189
REMARK 921   NORMALIZED FREE ENERGY PREDICTED BY IDOCK:   -2.71 KCAL/MOL
REMARK 922        TOTAL FREE ENERGY PREDICTED BY IDOCK:   -3.10 KCAL/MOL
REMARK 923 INTER-LIGAND FREE ENERGY PREDICTED BY IDOCK:   -2.68 KCAL/MOL
REMARK 924 INTRA-LIGAND FREE ENERGY PREDICTED BY IDOCK:   -0.42 KCAL/MOL
REMARK 927      BINDING AFFINITY PREDICTED BY RF-SCORE:    0.00 PKD
ROOT
HETATM    1  C   UNL     1     -10.021  11.280  68.489  1.00  0.00    -0.206 C  
HETATM    2  C   UNL     1     -10.442   9.964  67.830  1.00  0.00    -0.292 C  
HETATM    3  C   UNL     1      -9.460   8.847  68.235  1.00  0.00    -0.140 C  
HETATM    4  C   UNL     1     -10.560  10.178  66.319  1.00  0.00    -0.121 C  
ENDROOT
BRANCH   3   5
HETATM    5  N   UNL     1      -9.774   7.542  67.688  1.00  0.00    -0.142 NA 
HETATM    6  C   UNL     1     -10.795   6.771  68.185  1.00  0.00    -0.228 A  
HETATM    7  N   UNL     1     -10.962   5.674  67.492  1.00  0.00    -0.089 NA 
HETATM    8  C   UNL     1      -9.977   5.710  66.527  1.00  0.00    -0.176 A  
HETATM    9  C   UNL     1      -9.172   6.849  66.656  1.00  0.00    -0.157 A  
HETATM   10  C   UNL     1      -8.052   7.039  65.794  1.00  0.00    -0.123 A  
HETATM   11  C   UNL     1      -7.162   8.139  65.834  1.00  0.00    -0.072 A  
HETATM   12  C   UNL     1      -6.082   8.210  64.957  1.00  0.00    -0.045 A  
HETATM   13  C   UNL     1      -5.876   7.192  64.037  1.00  0.00    -0.037 A  
HETATM   14  C   UNL     1      -6.759   6.110  63.991  1.00  0.00    -0.037 A  
HETATM   15  C   UNL     1      -7.847   6.008  64.844  1.00  0.00    -0.106 A  
HETATM   16  N   UNL     1      -8.640   4.933  64.710  1.00  0.00    -0.145 NA 
HETATM   17  C   UNL     1      -9.714   4.769  65.509  1.00  0.00    -0.152 A  
HETATM   18  N   UNL     1     -10.509   3.647  65.301  1.00  0.00    -0.415 NA 
HETATM   19  H2  UNL     1     -11.470   3.969  65.181  1.00  0.00     0.000 HD 
HETATM   20  H1  UNL     1     -10.319   2.967  64.566  1.00  0.00     0.000 HD 
ENDBRANCH   3   5
TORSDOF 1
ENDMDL
MODEL      190
REMARK 921   NORMALIZED FREE ENERGY PREDICTED BY IDOCK:   -2.69 KCAL/MOL
REMARK 922        TOTAL FREE ENERGY PREDICTED BY IDOCK:   -3.09 KCAL/MOL
REMARK 923 INTER-LIGAND FREE ENERGY PREDICTED BY IDOCK:   -3.01 KCAL/MOL
REMARK 924 INTRA-LIGAND FREE ENERGY PREDICTED BY IDOCK:   -0.08 KCAL/MOL
REMARK 927      BINDING AFFINITY PREDICTED BY RF-SCORE:    0.00 PKD
ROOT
HETATM    1  C   UNL     1     -11.758  11.937  67.808  1.00  0.00    -0.362 C  
HETATM    2  C   UNL     1     -10.448  11.145  67.803  1.00  0.00    -0.225 C  
HETATM    3  C   UNL     1      -9.929  10.997  69.246  1.00  0.00    -0.063 C  
HETATM    4  C   UNL     1      -9.461  11.819  66.847  1.00  0.00    -0.200 C  
ENDROOT
BRANCH   3   5
HETATM    5  N   UNL     1      -8.700  10.239  69.370  1.00  0.00    -0.168 NA 
HETATM    6  C   UNL     1      -7.467  10.817  69.197  1.00  0.00    -0.123 A  
HETATM    7  N   UNL     1      -6.494   9.978  69.440  1.00  0.00    -0.045 NA 
HETATM    8  C   UNL     1      -7.119   8.785  69.741  1.00  0.00    -0.054 A  
HETATM    9  C   UNL     1      -8.513   8.900  69.651  1.00  0.00    -0.129 A  
HETATM   10  C   UNL     1      -9.342   7.759  69.859  1.00  0.00    -0.157 A  
HETATM   11  C   UNL     1     -10.756   7.746  69.784  1.00  0.00    -0.236 A  
HETATM   12  C   UNL     1     -11.466   6.564  69.981  1.00  0.00    -0.476 A  
HETATM   13  C   UNL     1     -10.781   5.388  70.250  1.00  0.00    -0.286 A  
HETATM   14  C   UNL     1      -9.387   5.401  70.333  1.00  0.00    -0.203 A  
HETATM   15  C   UNL     1      -8.646   6.559  70.148  1.00  0.00    -0.140 A  
HETATM   16  N   UNL     1      -7.312   6.464  70.259  1.00  0.00    -0.086 NA 
HETATM   17  C   UNL     1      -6.531   7.551  70.088  1.00  0.00    -0.034 A  
HETATM   18  N   UNL     1      -5.159   7.391  70.242  1.00  0.00    -0.023 NA 
HETATM   19  H2  UNL     1      -4.843   8.084  70.921  1.00  0.00     0.000 HD 
HETATM   20  H1  UNL     1      -4.734   6.499  70.493  1.00  0.00     0.000 HD 
ENDBRANCH   3   5
TORSDOF 1
ENDMDL
MODEL      191
REMARK 921   NORMALIZED FREE ENERGY PREDICTED BY IDOCK:   -2.66 KCAL/MOL
REMARK 922        TOTAL FREE ENERGY PREDICTED BY IDOCK:   -3.05 KCAL/MOL
REMARK 923 INTER-LIGAND FREE ENERGY PREDICTED BY IDOCK:   -2.66 KCAL/MOL
REMARK 924 INTRA-LIGAND FREE ENERGY PREDICTED BY IDOCK:   -0.39 KCAL/MOL
REMARK 927      BINDING AFFINITY PREDICTED BY RF-SCORE:    0.00 PKD
ROOT
HETATM    1  C   UNL     1     -10.658   6.305  66.633  1.00  0.00    -0.268 C  
HETATM    2  C   UNL     1     -10.546   7.798  66.956  1.00  0.00    -0.396 C  
HETATM    3  C   UNL     1      -9.264   8.368  66.318  1.00  0.00    -0.208 C  
HETATM    4  C   UNL     1     -10.630   7.988  68.472  1.00  0.00    -0.144 C  
ENDROOT
BRANCH   3   5
HETATM    5  N   UNL     1      -9.063   9.787  66.536  1.00  0.00    -0.149 NA 
HETATM    6  C   UNL     1      -9.645  10.737  65.733  1.00  0.00    -0.208 A  
HETATM    7  N   UNL     1      -9.406  11.950  66.157  1.00  0.00    -0.227 NA 
HETATM    8  C   UNL     1      -8.594  11.787  67.261  1.00  0.00    -0.162 A  
HETATM    9  C   UNL     1      -8.311  10.435  67.495  1.00  0.00    -0.114 A  
HETATM   10  C   UNL     1      -7.432  10.058  68.552  1.00  0.00    -0.086 A  
HETATM   11  C   UNL     1      -7.062   8.731  68.879  1.00  0.00    -0.066 A  
HETATM   12  C   UNL     1      -6.171   8.479  69.921  1.00  0.00    -0.031 A  
HETATM   13  C   UNL     1      -5.640   9.539  70.642  1.00  0.00    -0.049 A  
HETATM   14  C   UNL     1      -6.011  10.848  70.325  1.00  0.00    -0.130 A  
HETATM   15  C   UNL     1      -6.898  11.138  69.300  1.00  0.00    -0.110 A  
HETATM   16  N   UNL     1      -7.196  12.429  69.085  1.00  0.00    -0.004 NA 
HETATM   17  C   UNL     1      -8.050  12.781  68.101  1.00  0.00    -0.158 A  
HETATM   18  N   UNL     1      -8.336  14.133  67.948  1.00  0.00    -0.149 NA 
HETATM   19  H2  UNL     1      -9.351  14.236  67.968  1.00  0.00     0.000 HD 
HETATM   20  H1  UNL     1      -7.943  14.851  68.555  1.00  0.00     0.000 HD 
ENDBRANCH   3   5
TORSDOF 1
ENDMDL
MODEL      192
REMARK 921   NORMALIZED FREE ENERGY PREDICTED BY IDOCK:   -2.64 KCAL/MOL
REMARK 922        TOTAL FREE ENERGY PREDICTED BY IDOCK:   -3.04 KCAL/MOL
REMARK 923 INTER-LIGAND FREE ENERGY PREDICTED BY IDOCK:   -2.73 KCAL/MOL
REMARK 924 INTRA-LIGAND FREE ENERGY PREDICTED BY IDOCK:   -0.30 KCAL/MOL
REMARK 927      BINDING AFFINITY PREDICTED BY RF-SCORE:    0.00 PKD
ROOT
HETATM    1  C   UNL     1      -6.516  10.067  63.079  1.00  0.00    -0.130 C  
HETATM    2  C   UNL     1      -7.550   9.502  64.056  1.00  0.00    -0.122 C  
HETATM    3  C   UNL     1      -6.832   8.933  65.295  1.00  0.00    -0.072 C  
HETATM    4  C   UNL     1      -8.430   8.489  63.321  1.00  0.00    -0.051 C  
ENDROOT
BRANCH   3   5
HETATM    5  N   UNL     1      -7.716   8.391  66.307  1.00  0.00    -0.092 NA 
HETATM    6  C   UNL     1      -7.793   7.043  66.560  1.00  0.00    -0.106 A  
HETATM    7  N   UNL     1      -8.583   6.779  67.568  1.00  0.00    -0.121 NA 
HETATM    8  C   UNL     1      -9.078   8.004  67.964  1.00  0.00    -0.129 A  
HETATM    9  C   UNL     1      -8.595   9.039  67.152  1.00  0.00    -0.116 A  
HETATM   10  C   UNL     1      -9.041  10.378  67.354  1.00  0.00    -0.144 A  
HETATM   11  C   UNL     1      -8.636  11.502  66.595  1.00  0.00    -0.176 A  
HETATM   12  C   UNL     1      -9.157  12.766  66.864  1.00  0.00    -0.221 A  
HETATM   13  C   UNL     1     -10.086  12.923  67.884  1.00  0.00    -0.232 A  
HETATM   14  C   UNL     1     -10.480  11.815  68.638  1.00  0.00    -0.242 A  
HETATM   15  C   UNL     1      -9.979  10.544  68.404  1.00  0.00    -0.164 A  
HETATM   16  N   UNL     1     -10.416   9.551  69.193  1.00  0.00    -0.205 NA 
HETATM   17  C   UNL     1      -9.971   8.289  69.017  1.00  0.00    -0.189 A  
HETATM   18  N   UNL     1     -10.443   7.311  69.886  1.00  0.00    -0.220 NA 
HETATM   19  H2  UNL     1      -9.633   6.840  70.289  1.00  0.00     0.000 HD 
HETATM   20  H1  UNL     1     -11.089   7.517  70.648  1.00  0.00     0.000 HD 
ENDBRANCH   3   5
TORSDOF 1
ENDMDL
MODEL      193
REMARK 921   NORMALIZED FREE ENERGY PREDICTED BY IDOCK:   -2.64 KCAL/MOL
REMARK 922        TOTAL FREE ENERGY PREDICTED BY IDOCK:   -3.03 KCAL/MOL
REMARK 923 INTER-LIGAND FREE ENERGY PREDICTED BY IDOCK:   -2.84 KCAL/MOL
REMARK 924 INTRA-LIGAND FREE ENERGY PREDICTED BY IDOCK:   -0.19 KCAL/MOL
REMARK 927      BINDING AFFINITY PREDICTED BY RF-SCORE:    0.00 PKD
ROOT
HETATM    1  C   UNL     1      -8.796   8.600  67.076  1.00  0.00    -0.143 C  
HETATM    2  C   UNL     1      -9.742   7.913  68.066  1.00  0.00    -0.182 C  
HETATM    3  C   UNL     1      -9.057   7.805  69.442  1.00  0.00    -0.146 C  
HETATM    4  C   UNL     1     -10.187   6.572  67.480  1.00  0.00    -0.221 C  
ENDROOT
BRANCH   3   5
HETATM    5  N   UNL     1      -9.870   7.191  70.472  1.00  0.00    -0.180 NA 
HETATM    6  C   UNL     1     -11.193   7.517  70.647  1.00  0.00    -0.268 A  
HETATM    7  N   UNL     1     -11.760   6.784  71.570  1.00  0.00    -0.299 NA 
HETATM    8  C   UNL     1     -10.752   5.974  72.051  1.00  0.00    -0.235 A  
HETATM    9  C   UNL     1      -9.531   6.244  71.418  1.00  0.00    -0.156 A  
HETATM   10  C   UNL     1      -8.347   5.559  71.820  1.00  0.00    -0.120 A  
HETATM   11  C   UNL     1      -7.058   5.753  71.267  1.00  0.00    -0.073 A  
HETATM   12  C   UNL     1      -5.963   5.045  71.756  1.00  0.00    -0.020 A  
HETATM   13  C   UNL     1      -6.136   4.143  72.797  1.00  0.00    -0.016 A  
HETATM   14  C   UNL     1      -7.409   3.946  73.338  1.00  0.00    -0.069 A  
HETATM   15  C   UNL     1      -8.523   4.628  72.874  1.00  0.00    -0.110 A  
HETATM   16  N   UNL     1      -9.702   4.356  73.456  1.00  0.00    -0.119 NA 
HETATM   17  C   UNL     1     -10.826   4.986  73.055  1.00  0.00    -0.273 A  
HETATM   18  N   UNL     1     -12.018   4.641  73.680  1.00  0.00    -0.213 NA 
HETATM   19  H2  UNL     1     -12.686   4.388  72.951  1.00  0.00     0.000 HD 
HETATM   20  H1  UNL     1     -12.072   3.926  74.406  1.00  0.00     0.000 HD 
ENDBRANCH   3   5
TORSDOF 1
ENDMDL
MODEL      194
REMARK 921   NORMALIZED FREE ENERGY PREDICTED BY IDOCK:   -2.54 KCAL/MOL
REMARK 922        TOTAL FREE ENERGY PREDICTED BY IDOCK:   -2.92 KCAL/MOL
REMARK 923 INTER-LIGAND FREE ENERGY PREDICTED BY IDOCK:   -2.50 KCAL/MOL
REMARK 924 INTRA-LIGAND FREE ENERGY PREDICTED BY IDOCK:   -0.42 KCAL/MOL
REMARK 927      BINDING AFFINITY PREDICTED BY RF-SCORE:    0.00 PKD
ROOT
HETATM    1  C   UNL     1      -7.903   6.908  64.499  1.00  0.00    -0.115 C  
HETATM    2  C   UNL     1      -7.310   6.855  65.910  1.00  0.00    -0.079 C  
HETATM    3  C   UNL     1      -7.758   5.557  66.609  1.00  0.00    -0.100 C  
HETATM    4  C   UNL     1      -7.692   8.134  66.659  1.00  0.00    -0.094 C  
ENDROOT
BRANCH   3   5
HETATM    5  N   UNL     1      -7.235   5.383  67.949  1.00  0.00    -0.071 NA 
HETATM    6  C   UNL     1      -5.944   4.978  68.181  1.00  0.00    -0.026 A  
HETATM    7  N   UNL     1      -5.653   4.972  69.456  1.00  0.00    -0.008 NA 
HETATM    8  C   UNL     1      -6.820   5.347  70.088  1.00  0.00    -0.049 A  
HETATM    9  C   UNL     1      -7.857   5.561  69.169  1.00  0.00    -0.091 A  
HETATM   10  C   UNL     1      -9.166   5.891  69.627  1.00  0.00    -0.151 A  
HETATM   11  C   UNL     1     -10.292   6.118  68.801  1.00  0.00    -0.256 A  
HETATM   12  C   UNL     1     -11.534   6.410  69.359  1.00  0.00    -0.374 A  
HETATM   13  C   UNL     1     -11.669   6.477  70.738  1.00  0.00    -0.427 A  
HETATM   14  C   UNL     1     -10.556   6.261  71.555  1.00  0.00    -0.282 A  
HETATM   15  C   UNL     1      -9.303   5.973  71.035  1.00  0.00    -0.161 A  
HETATM   16  N   UNL     1      -8.298   5.794  71.907  1.00  0.00    -0.119 NA 
HETATM   17  C   UNL     1      -7.055   5.508  71.470  1.00  0.00    -0.072 A  
HETATM   18  N   UNL     1      -6.053   5.359  72.423  1.00  0.00    -0.029 NA 
HETATM   19  H2  UNL     1      -5.289   5.986  72.166  1.00  0.00     0.000 HD 
HETATM   20  H1  UNL     1      -6.222   5.476  73.421  1.00  0.00     0.000 HD 
ENDBRANCH   3   5
TORSDOF 1
ENDMDL
MODEL      195
REMARK 921   NORMALIZED FREE ENERGY PREDICTED BY IDOCK:   -2.51 KCAL/MOL
REMARK 922        TOTAL FREE ENERGY PREDICTED BY IDOCK:   -2.90 KCAL/MOL
REMARK 923 INTER-LIGAND FREE ENERGY PREDICTED BY IDOCK:   -2.77 KCAL/MOL
REMARK 924 INTRA-LIGAND FREE ENERGY PREDICTED BY IDOCK:   -0.13 KCAL/MOL
REMARK 927      BINDING AFFINITY PREDICTED BY RF-SCORE:    0.00 PKD
ROOT
HETATM    1  C   UNL     1      -5.127  12.491  67.234  1.00  0.00    -0.016 C  
HETATM    2  C   UNL     1      -6.269  11.471  67.245  1.00  0.00    -0.104 C  
HETATM    3  C   UNL     1      -6.186  10.619  68.526  1.00  0.00    -0.049 C  
HETATM    4  C   UNL     1      -6.226  10.661  65.948  1.00  0.00    -0.134 C  
ENDROOT
BRANCH   3   5
HETATM    5  N   UNL     1      -7.237   9.629  68.660  1.00  0.00    -0.072 NA 
HETATM    6  C   UNL     1      -6.964   8.290  68.794  1.00  0.00    -0.067 A  
HETATM    7  N   UNL     1      -8.049   7.587  68.989  1.00  0.00    -0.125 NA 
HETATM    8  C   UNL     1      -9.081   8.501  68.934  1.00  0.00    -0.146 A  
HETATM    9  C   UNL     1      -8.608   9.794  68.672  1.00  0.00    -0.121 A  
HETATM   10  C   UNL     1      -9.524  10.874  68.509  1.00  0.00    -0.185 A  
HETATM   11  C   UNL     1      -9.170  12.216  68.231  1.00  0.00    -0.192 A  
HETATM   12  C   UNL     1     -10.153  13.190  68.067  1.00  0.00    -0.232 A  
HETATM   13  C   UNL     1     -11.491  12.840  68.174  1.00  0.00    -0.357 A  
HETATM   14  C   UNL     1     -11.841  11.517  68.456  1.00  0.00    -0.365 A  
HETATM   15  C   UNL     1     -10.891  10.522  68.632  1.00  0.00    -0.237 A  
HETATM   16  N   UNL     1     -11.334   9.286  68.910  1.00  0.00     0.211 NA 
HETATM   17  C   UNL     1     -10.464   8.271  69.090  1.00  0.00    -0.206 A  
HETATM   18  N   UNL     1     -10.986   7.020  69.402  1.00  0.00    -0.372 NA 
HETATM   19  H2  UNL     1     -10.523   6.697  70.252  1.00  0.00     0.000 HD 
HETATM   20  H1  UNL     1     -11.985   6.854  69.515  1.00  0.00     0.000 HD 
ENDBRANCH   3   5
TORSDOF 1
ENDMDL
MODEL      196
REMARK 921   NORMALIZED FREE ENERGY PREDICTED BY IDOCK:   -2.50 KCAL/MOL
REMARK 922        TOTAL FREE ENERGY PREDICTED BY IDOCK:   -2.89 KCAL/MOL
REMARK 923 INTER-LIGAND FREE ENERGY PREDICTED BY IDOCK:   -2.46 KCAL/MOL
REMARK 924 INTRA-LIGAND FREE ENERGY PREDICTED BY IDOCK:   -0.42 KCAL/MOL
REMARK 927      BINDING AFFINITY PREDICTED BY RF-SCORE:    0.00 PKD
ROOT
HETATM    1  C   UNL     1      -7.407  12.215  67.836  1.00  0.00    -0.108 C  
HETATM    2  C   UNL     1      -7.010  11.028  66.953  1.00  0.00    -0.125 C  
HETATM    3  C   UNL     1      -8.161  10.698  65.984  1.00  0.00    -0.158 C  
HETATM    4  C   UNL     1      -6.588   9.861  67.848  1.00  0.00    -0.064 C  
ENDROOT
BRANCH   3   5
HETATM    5  N   UNL     1      -7.888   9.602  65.076  1.00  0.00    -0.113 NA 
HETATM    6  C   UNL     1      -7.117   9.762  63.952  1.00  0.00    -0.122 A  
HETATM    7  N   UNL     1      -6.925   8.632  63.324  1.00  0.00    -0.089 NA 
HETATM    8  C   UNL     1      -7.640   7.698  64.046  1.00  0.00    -0.114 A  
HETATM    9  C   UNL     1      -8.307   8.287  65.128  1.00  0.00    -0.157 A  
HETATM   10  C   UNL     1      -9.157   7.502  65.961  1.00  0.00    -0.139 A  
HETATM   11  C   UNL     1      -9.890   7.984  67.073  1.00  0.00    -0.295 A  
HETATM   12  C   UNL     1     -10.713   7.130  67.804  1.00  0.00    -0.282 A  
HETATM   13  C   UNL     1     -10.817   5.795  67.437  1.00  0.00    -0.279 A  
HETATM   14  C   UNL     1     -10.088   5.318  66.345  1.00  0.00    -0.257 A  
HETATM   15  C   UNL     1      -9.255   6.136  65.598  1.00  0.00     0.080 A  
HETATM   16  N   UNL     1      -8.591   5.575  64.575  1.00  0.00    -0.093 NA 
HETATM   17  C   UNL     1      -7.766   6.314  63.805  1.00  0.00    -0.107 A  
HETATM   18  N   UNL     1      -7.088   5.667  62.778  1.00  0.00    -0.043 NA 
HETATM   19  H2  UNL     1      -6.094   5.869  62.890  1.00  0.00     0.000 HD 
HETATM   20  H1  UNL     1      -7.179   4.666  62.604  1.00  0.00     0.000 HD 
ENDBRANCH   3   5
TORSDOF 1
ENDMDL
MODEL      197
REMARK 921   NORMALIZED FREE ENERGY PREDICTED BY IDOCK:   -2.49 KCAL/MOL
REMARK 922        TOTAL FREE ENERGY PREDICTED BY IDOCK:   -2.87 KCAL/MOL
REMARK 923 INTER-LIGAND FREE ENERGY PREDICTED BY IDOCK:   -2.75 KCAL/MOL
REMARK 924 INTRA-LIGAND FREE ENERGY PREDICTED BY IDOCK:   -0.12 KCAL/MOL
REMARK 927      BINDING AFFINITY PREDICTED BY RF-SCORE:    0.00 PKD
ROOT
HETATM    1  C   UNL     1     -10.039  10.367  64.810  1.00  0.00    -0.387 C  
HETATM    2  C   UNL     1      -9.097  10.304  66.015  1.00  0.00    -0.189 C  
HETATM    3  C   UNL     1      -9.241  11.591  66.850  1.00  0.00    -0.176 C  
HETATM    4  C   UNL     1      -7.674  10.033  65.522  1.00  0.00    -0.135 C  
ENDROOT
BRANCH   3   5
HETATM    5  N   UNL     1      -8.412  11.634  68.038  1.00  0.00    -0.143 NA 
HETATM    6  C   UNL     1      -8.206  10.527  68.823  1.00  0.00    -0.134 A  
HETATM    7  N   UNL     1      -7.357  10.763  69.790  1.00  0.00    -0.114 NA 
HETATM    8  C   UNL     1      -7.029  12.096  69.657  1.00  0.00     0.198 A  
HETATM    9  C   UNL     1      -7.720  12.692  68.594  1.00  0.00    -0.066 A  
HETATM   10  C   UNL     1      -7.571  14.085  68.331  1.00  0.00    -0.129 A  
HETATM   11  C   UNL     1      -8.223  14.801  67.298  1.00  0.00    -0.237 A  
HETATM   12  C   UNL     1      -8.022  16.171  67.148  1.00  0.00    -0.232 A  
HETATM   13  C   UNL     1      -7.178  16.841  68.022  1.00  0.00    -0.163 A  
HETATM   14  C   UNL     1      -6.528  16.135  69.037  1.00  0.00    -0.154 A  
HETATM   15  C   UNL     1      -6.698  14.770  69.213  1.00  0.00    -0.137 A  
HETATM   16  N   UNL     1      -6.019  14.186  70.213  1.00  0.00    -0.145 NA 
HETATM   17  C   UNL     1      -6.142  12.862  70.442  1.00  0.00    -0.030 A  
HETATM   18  N   UNL     1      -5.391  12.313  71.476  1.00  0.00    -0.377 NA 
HETATM   19  H2  UNL     1      -4.862  11.530  71.091  1.00  0.00     0.000 HD 
HETATM   20  H1  UNL     1      -4.750  12.867  72.044  1.00  0.00     0.000 HD 
ENDBRANCH   3   5
TORSDOF 1
ENDMDL
MODEL      198
REMARK 921   NORMALIZED FREE ENERGY PREDICTED BY IDOCK:   -2.48 KCAL/MOL
REMARK 922        TOTAL FREE ENERGY PREDICTED BY IDOCK:   -2.87 KCAL/MOL
REMARK 923 INTER-LIGAND FREE ENERGY PREDICTED BY IDOCK:   -2.46 KCAL/MOL
REMARK 924 INTRA-LIGAND FREE ENERGY PREDICTED BY IDOCK:   -0.41 KCAL/MOL
REMARK 927      BINDING AFFINITY PREDICTED BY RF-SCORE:    0.00 PKD
ROOT
HETATM    1  C   UNL     1      -5.768  14.720  67.831  1.00  0.00    -0.133 C  
HETATM    2  C   UNL     1      -6.641  13.542  67.393  1.00  0.00    -0.014 C  
HETATM    3  C   UNL     1      -7.699  13.254  68.476  1.00  0.00    -0.120 C  
HETATM    4  C   UNL     1      -5.740  12.349  67.064  1.00  0.00     0.033 C  
ENDROOT
BRANCH   3   5
HETATM    5  N   UNL     1      -8.605  12.168  68.158  1.00  0.00    -0.172 NA 
HETATM    6  C   UNL     1      -9.711  12.350  67.365  1.00  0.00    -0.193 A  
HETATM    7  N   UNL     1     -10.339  11.226  67.134  1.00  0.00    -0.201 NA 
HETATM    8  C   UNL     1      -9.638  10.274  67.845  1.00  0.00    -0.145 A  
HETATM    9  C   UNL     1      -8.569  10.844  68.550  1.00  0.00    -0.152 A  
HETATM   10  C   UNL     1      -7.759  10.037  69.402  1.00  0.00    -0.129 A  
HETATM   11  C   UNL     1      -6.663  10.497  70.170  1.00  0.00    -0.149 A  
HETATM   12  C   UNL     1      -5.954   9.623  70.991  1.00  0.00    -0.080 A  
HETATM   13  C   UNL     1      -6.329   8.288  71.057  1.00  0.00    -0.038 A  
HETATM   14  C   UNL     1      -7.405   7.831  70.293  1.00  0.00    -0.067 A  
HETATM   15  C   UNL     1      -8.130   8.671  69.461  1.00  0.00    -0.110 A  
HETATM   16  N   UNL     1      -9.139   8.129  68.762  1.00  0.00    -0.144 NA 
HETATM   17  C   UNL     1      -9.887   8.889  67.936  1.00  0.00    -0.169 A  
HETATM   18  N   UNL     1     -10.901   8.261  67.220  1.00  0.00    -0.474 NA 
HETATM   19  H2  UNL     1     -10.765   8.485  66.234  1.00  0.00     0.000 HD 
HETATM   20  H1  UNL     1     -11.081   7.260  67.286  1.00  0.00     0.000 HD 
ENDBRANCH   3   5
TORSDOF 1
ENDMDL
MODEL      199
REMARK 921   NORMALIZED FREE ENERGY PREDICTED BY IDOCK:   -2.42 KCAL/MOL
REMARK 922        TOTAL FREE ENERGY PREDICTED BY IDOCK:   -2.80 KCAL/MOL
REMARK 923 INTER-LIGAND FREE ENERGY PREDICTED BY IDOCK:   -2.51 KCAL/MOL
REMARK 924 INTRA-LIGAND FREE ENERGY PREDICTED BY IDOCK:   -0.30 KCAL/MOL
REMARK 927      BINDING AFFINITY PREDICTED BY RF-SCORE:    0.00 PKD
ROOT
HETATM    1  C   UNL     1      -8.289   8.179  74.250  1.00  0.00    -0.252 C  
HETATM    2  C   UNL     1      -8.769   7.381  73.034  1.00  0.00    -0.178 C  
HETATM    3  C   UNL     1      -7.771   7.558  71.874  1.00  0.00    -0.085 C  
HETATM    4  C   UNL     1     -10.203   7.798  72.699  1.00  0.00    -0.340 C  
ENDROOT
BRANCH   3   5
HETATM    5  N   UNL     1      -8.110   6.824  70.671  1.00  0.00    -0.117 NA 
HETATM    6  C   UNL     1      -8.330   5.469  70.682  1.00  0.00    -0.117 A  
HETATM    7  N   UNL     1      -8.708   5.024  69.512  1.00  0.00    -0.090 NA 
HETATM    8  C   UNL     1      -8.690   6.131  68.688  1.00  0.00    -0.112 A  
HETATM    9  C   UNL     1      -8.262   7.275  69.375  1.00  0.00    -0.131 A  
HETATM   10  C   UNL     1      -8.109   8.512  68.683  1.00  0.00    -0.121 A  
HETATM   11  C   UNL     1      -7.676   9.729  69.262  1.00  0.00    -0.101 A  
HETATM   12  C   UNL     1      -7.538  10.876  68.484  1.00  0.00    -0.111 A  
HETATM   13  C   UNL     1      -7.826  10.824  67.127  1.00  0.00    -0.124 A  
HETATM   14  C   UNL     1      -8.262   9.626  66.556  1.00  0.00    -0.119 A  
HETATM   15  C   UNL     1      -8.416   8.466  67.300  1.00  0.00    -0.124 A  
HETATM   16  N   UNL     1      -8.851   7.371  66.657  1.00  0.00    -0.136 NA 
HETATM   17  C   UNL     1      -9.020   6.209  67.319  1.00  0.00    -0.112 A  
HETATM   18  N   UNL     1      -9.498   5.119  66.600  1.00  0.00    -0.135 NA 
HETATM   19  H2  UNL     1     -10.316   4.759  67.093  1.00  0.00     0.000 HD 
HETATM   20  H1  UNL     1      -9.738   5.175  65.611  1.00  0.00     0.000 HD 
ENDBRANCH   3   5
TORSDOF 1
ENDMDL
MODEL      200
REMARK 921   NORMALIZED FREE ENERGY PREDICTED BY IDOCK:   -2.35 KCAL/MOL
REMARK 922        TOTAL FREE ENERGY PREDICTED BY IDOCK:   -2.72 KCAL/MOL
REMARK 923 INTER-LIGAND FREE ENERGY PREDICTED BY IDOCK:   -2.36 KCAL/MOL
REMARK 924 INTRA-LIGAND FREE ENERGY PREDICTED BY IDOCK:   -0.36 KCAL/MOL
REMARK 927      BINDING AFFINITY PREDICTED BY RF-SCORE:    0.00 PKD
ROOT
HETATM    1  C   UNL     1     -13.418   8.520  71.721  1.00  0.00    -0.400 C  
HETATM    2  C   UNL     1     -12.275   7.599  72.156  1.00  0.00    -0.301 C  
HETATM    3  C   UNL     1     -10.926   8.303  71.918  1.00  0.00    -0.287 C  
HETATM    4  C   UNL     1     -12.417   6.255  71.437  1.00  0.00     0.127 C  
ENDROOT
BRANCH   3   5
HETATM    5  N   UNL     1      -9.765   7.532  72.318  1.00  0.00    -0.155 NA 
HETATM    6  C   UNL     1      -9.550   7.164  73.623  1.00  0.00    -0.246 A  
HETATM    7  N   UNL     1      -8.496   6.401  73.749  1.00  0.00    -0.121 NA 
HETATM    8  C   UNL     1      -7.973   6.303  72.476  1.00  0.00    -0.103 A  
HETATM    9  C   UNL     1      -8.719   7.052  71.556  1.00  0.00    -0.121 A  
HETATM   10  C   UNL     1      -8.303   7.137  70.195  1.00  0.00    -0.137 A  
HETATM   11  C   UNL     1      -8.964   7.868  69.178  1.00  0.00    -0.145 A  
HETATM   12  C   UNL     1      -8.454   7.902  67.883  1.00  0.00    -0.126 A  
HETATM   13  C   UNL     1      -7.285   7.215  67.587  1.00  0.00    -0.091 A  
HETATM   14  C   UNL     1      -6.637   6.487  68.587  1.00  0.00    -0.051 A  
HETATM   15  C   UNL     1      -7.118   6.425  69.886  1.00  0.00    -0.072 A  
HETATM   16  N   UNL     1      -6.424   5.688  70.768  1.00  0.00    -0.034 NA 
HETATM   17  C   UNL     1      -6.835   5.588  72.050  1.00  0.00    -0.071 A  
HETATM   18  N   UNL     1      -6.087   4.788  72.906  1.00  0.00    -0.024 NA 
HETATM   19  H2  UNL     1      -6.725   4.120  73.339  1.00  0.00     0.000 HD 
HETATM   20  H1  UNL     1      -5.264   4.270  72.598  1.00  0.00     0.000 HD 
ENDBRANCH   3   5
TORSDOF 1
ENDMDL
MODEL      201
REMARK 921   NORMALIZED FREE ENERGY PREDICTED BY IDOCK:   -2.32 KCAL/MOL
REMARK 922        TOTAL FREE ENERGY PREDICTED BY IDOCK:   -2.70 KCAL/MOL
REMARK 923 INTER-LIGAND FREE ENERGY PREDICTED BY IDOCK:   -2.39 KCAL/MOL
REMARK 924 INTRA-LIGAND FREE ENERGY PREDICTED BY IDOCK:   -0.30 KCAL/MOL
REMARK 927      BINDING AFFINITY PREDICTED BY RF-SCORE:    0.00 PKD
ROOT
HETATM    1  C   UNL     1      -9.668  11.420  68.770  1.00  0.00    -0.155 C  
HETATM    2  C   UNL     1      -9.063  10.028  68.975  1.00  0.00    -0.172 C  
HETATM    3  C   UNL     1      -8.276   9.998  70.299  1.00  0.00     0.049 C  
HETATM    4  C   UNL     1      -8.234   9.659  67.743  1.00  0.00    -0.114 C  
ENDROOT
BRANCH   3   5
HETATM    5  N   UNL     1      -7.676   8.717  70.614  1.00  0.00    -0.081 NA 
HETATM    6  C   UNL     1      -6.342   8.466  70.406  1.00  0.00    -0.035 A  
HETATM    7  N   UNL     1      -5.993   7.283  70.840  1.00  0.00    -0.035 NA 
HETATM    8  C   UNL     1      -7.160   6.718  71.311  1.00  0.00    -0.075 A  
HETATM    9  C   UNL     1      -8.254   7.575  71.132  1.00  0.00    -0.101 A  
HETATM   10  C   UNL     1      -9.566   7.149  71.493  1.00  0.00    -0.161 A  
HETATM   11  C   UNL     1     -10.747   7.917  71.351  1.00  0.00    -0.258 A  
HETATM   12  C   UNL     1     -11.984   7.389  71.714  1.00  0.00    -0.338 A  
HETATM   13  C   UNL     1     -12.059   6.098  72.217  1.00  0.00    -0.237 A  
HETATM   14  C   UNL     1     -10.894   5.343  72.366  1.00  0.00    -0.297 A  
HETATM   15  C   UNL     1      -9.644   5.836  72.020  1.00  0.00    -0.150 A  
HETATM   16  N   UNL     1      -8.587   5.032  72.213  1.00  0.00    -0.124 NA 
HETATM   17  C   UNL     1      -7.343   5.448  71.896  1.00  0.00    -0.091 A  
HETATM   18  N   UNL     1      -6.288   4.577  72.144  1.00  0.00    -0.021 NA 
HETATM   19  H2  UNL     1      -5.602   5.078  72.708  1.00  0.00     0.000 HD 
HETATM   20  H1  UNL     1      -6.421   3.658  72.567  1.00  0.00     0.000 HD 
ENDBRANCH   3   5
TORSDOF 1
ENDMDL
MODEL      202
REMARK 921   NORMALIZED FREE ENERGY PREDICTED BY IDOCK:   -2.28 KCAL/MOL
REMARK 922        TOTAL FREE ENERGY PREDICTED BY IDOCK:   -2.65 KCAL/MOL
REMARK 923 INTER-LIGAND FREE ENERGY PREDICTED BY IDOCK:   -2.82 KCAL/MOL
REMARK 924 INTRA-LIGAND FREE ENERGY PREDICTED BY IDOCK:    0.17 KCAL/MOL
REMARK 927      BINDING AFFINITY PREDICTED BY RF-SCORE:    0.00 PKD
ROOT
HETATM    1  C   UNL     1     -12.073  10.351  69.125  1.00  0.00     0.047 C  
HETATM    2  C   UNL     1     -11.188   9.597  70.121  1.00  0.00    -0.302 C  
HETATM    3  C   UNL     1     -10.533   8.392  69.419  1.00  0.00    -0.217 C  
HETATM    4  C   UNL     1     -12.023   9.229  71.350  1.00  0.00    -0.424 C  
ENDROOT
BRANCH   3   5
HETATM    5  N   UNL     1      -9.649   7.612  70.261  1.00  0.00    -0.172 NA 
HETATM    6  C   UNL     1      -9.115   8.116  71.421  1.00  0.00    -0.153 A  
HETATM    7  N   UNL     1      -8.419   7.220  72.071  1.00  0.00    -0.106 NA 
HETATM    8  C   UNL     1      -8.462   6.092  71.278  1.00  0.00    -0.125 A  
HETATM    9  C   UNL     1      -9.185   6.321  70.099  1.00  0.00    -0.157 A  
HETATM   10  C   UNL     1      -9.290   5.299  69.111  1.00  0.00    -0.166 A  
HETATM   11  C   UNL     1      -9.980   5.413  67.880  1.00  0.00    -0.202 A  
HETATM   12  C   UNL     1      -9.997   4.355  66.975  1.00  0.00    -0.197 A  
HETATM   13  C   UNL     1      -9.330   3.178  67.282  1.00  0.00    -0.217 A  
HETATM   14  C   UNL     1      -8.656   3.060  68.500  1.00  0.00    -0.118 A  
HETATM   15  C   UNL     1      -8.621   4.090  69.428  1.00  0.00    -0.077 A  
HETATM   16  N   UNL     1      -7.954   3.870  70.572  1.00  0.00    -0.054 NA 
HETATM   17  C   UNL     1      -7.878   4.831  71.516  1.00  0.00    -0.100 A  
HETATM   18  N   UNL     1      -7.195   4.530  72.689  1.00  0.00    -0.078 NA 
HETATM   19  H2  UNL     1      -7.820   4.732  73.470  1.00  0.00     0.000 HD 
HETATM   20  H1  UNL     1      -6.773   3.619  72.862  1.00  0.00     0.000 HD 
ENDBRANCH   3   5
TORSDOF 1
ENDMDL
MODEL      203
REMARK 921   NORMALIZED FREE ENERGY PREDICTED BY IDOCK:   -2.25 KCAL/MOL
REMARK 922        TOTAL FREE ENERGY PREDICTED BY IDOCK:   -2.62 KCAL/MOL
REMARK 923 INTER-LIGAND FREE ENERGY PREDICTED BY IDOCK:   -2.31 KCAL/MOL
REMARK 924 INTRA-LIGAND FREE ENERGY PREDICTED BY IDOCK:   -0.31 KCAL/MOL
REMARK 927      BINDING AFFINITY PREDICTED BY RF-SCORE:    0.00 PKD
ROOT
HETATM    1  C   UNL     1      -7.089   6.354  72.502  1.00  0.00    -0.078 C  
HETATM    2  C   UNL     1      -7.007   5.697  71.121  1.00  0.00    -0.066 C  
HETATM    3  C   UNL     1      -7.665   4.305  71.172  1.00  0.00    -0.067 C  
HETATM    4  C   UNL     1      -5.547   5.685  70.662  1.00  0.00    -0.012 C  
ENDROOT
BRANCH   3   5
HETATM    5  N   UNL     1      -7.669   3.594  69.909  1.00  0.00    -0.048 NA 
HETATM    6  C   UNL     1      -6.851   2.515  69.678  1.00  0.00    -0.033 A  
HETATM    7  N   UNL     1      -7.078   1.970  68.512  1.00  0.00    -0.043 NA 
HETATM    8  C   UNL     1      -8.056   2.755  67.936  1.00  0.00    -0.069 A  
HETATM    9  C   UNL     1      -8.412   3.824  68.769  1.00  0.00    -0.082 A  
HETATM   10  C   UNL     1      -9.361   4.793  68.328  1.00  0.00    -0.177 A  
HETATM   11  C   UNL     1      -9.792   5.918  69.071  1.00  0.00    -0.193 A  
HETATM   12  C   UNL     1     -10.708   6.817  68.530  1.00  0.00    -0.280 A  
HETATM   13  C   UNL     1     -11.200   6.609  67.249  1.00  0.00    -0.304 A  
HETATM   14  C   UNL     1     -10.782   5.494  66.518  1.00  0.00    -0.309 A  
HETATM   15  C   UNL     1      -9.876   4.575  67.026  1.00  0.00    -0.202 A  
HETATM   16  N   UNL     1      -9.549   3.533  66.245  1.00  0.00    -0.141 NA 
HETATM   17  C   UNL     1      -8.671   2.604  66.676  1.00  0.00    -0.123 A  
HETATM   18  N   UNL     1      -8.394   1.536  65.830  1.00  0.00    -0.084 NA 
HETATM   19  H2  UNL     1      -8.556   0.676  66.356  1.00  0.00     0.000 HD 
HETATM   20  H1  UNL     1      -8.839   1.426  64.919  1.00  0.00     0.000 HD 
ENDBRANCH   3   5
TORSDOF 1
ENDMDL
MODEL      204
REMARK 921   NORMALIZED FREE ENERGY PREDICTED BY IDOCK:   -2.21 KCAL/MOL
REMARK 922        TOTAL FREE ENERGY PREDICTED BY IDOCK:   -2.58 KCAL/MOL
REMARK 923 INTER-LIGAND FREE ENERGY PREDICTED BY IDOCK:   -2.16 KCAL/MOL
REMARK 924 INTRA-LIGAND FREE ENERGY PREDICTED BY IDOCK:   -0.42 KCAL/MOL
REMARK 927      BINDING AFFINITY PREDICTED BY RF-SCORE:    0.00 PKD
ROOT
HETATM    1  C   UNL     1      -8.755  11.338  68.816  1.00  0.00    -0.105 C  
HETATM    2  C   UNL     1      -9.232   9.903  69.056  1.00  0.00    -0.168 C  
HETATM    3  C   UNL     1      -8.013   8.977  69.229  1.00  0.00    -0.096 C  
HETATM    4  C   UNL     1     -10.174   9.495  67.921  1.00  0.00    -0.251 C  
ENDROOT
BRANCH   3   5
HETATM    5  N   UNL     1      -8.342   7.590  69.489  1.00  0.00    -0.130 NA 
HETATM    6  C   UNL     1      -8.695   7.146  70.739  1.00  0.00    -0.147 A  
HETATM    7  N   UNL     1      -9.037   5.885  70.733  1.00  0.00    -0.151 NA 
HETATM    8  C   UNL     1      -8.857   5.473  69.429  1.00  0.00    -0.106 A  
HETATM    9  C   UNL     1      -8.365   6.511  68.627  1.00  0.00    -0.122 A  
HETATM   10  C   UNL     1      -8.047   6.272  67.258  1.00  0.00    -0.109 A  
HETATM   11  C   UNL     1      -7.535   7.233  66.353  1.00  0.00    -0.084 A  
HETATM   12  C   UNL     1      -7.235   6.881  65.039  1.00  0.00    -0.074 A  
HETATM   13  C   UNL     1      -7.438   5.576  64.614  1.00  0.00    -0.067 A  
HETATM   14  C   UNL     1      -7.951   4.629  65.503  1.00  0.00    -0.095 A  
HETATM   15  C   UNL     1      -8.267   4.943  66.816  1.00  0.00    -0.107 A  
HETATM   16  N   UNL     1      -8.764   3.961  67.585  1.00  0.00    -0.101 NA 
HETATM   17  C   UNL     1      -9.089   4.198  68.873  1.00  0.00    -0.129 A  
HETATM   18  N   UNL     1      -9.624   3.145  69.608  1.00  0.00    -0.114 NA 
HETATM   19  H2  UNL     1     -10.503   3.468  70.012  1.00  0.00     0.000 HD 
HETATM   20  H1  UNL     1      -9.792   2.223  69.206  1.00  0.00     0.000 HD 
ENDBRANCH   3   5
TORSDOF 1
ENDMDL
MODEL      205
REMARK 921   NORMALIZED FREE ENERGY PREDICTED BY IDOCK:   -2.20 KCAL/MOL
REMARK 922        TOTAL FREE ENERGY PREDICTED BY IDOCK:   -2.56 KCAL/MOL
REMARK 923 INTER-LIGAND FREE ENERGY PREDICTED BY IDOCK:   -2.25 KCAL/MOL
REMARK 924 INTRA-LIGAND FREE ENERGY PREDICTED BY IDOCK:   -0.31 KCAL/MOL
REMARK 927      BINDING AFFINITY PREDICTED BY RF-SCORE:    0.00 PKD
ROOT
HETATM    1  C   UNL     1      -8.747   5.069  72.428  1.00  0.00    -0.125 C  
HETATM    2  C   UNL     1      -8.227   5.182  70.992  1.00  0.00    -0.111 C  
HETATM    3  C   UNL     1      -9.131   4.363  70.051  1.00  0.00    -0.106 C  
HETATM    4  C   UNL     1      -6.754   4.771  70.962  1.00  0.00    -0.031 C  
ENDROOT
BRANCH   3   5
HETATM    5  N   UNL     1      -8.749   4.415  68.653  1.00  0.00    -0.093 NA 
HETATM    6  C   UNL     1      -8.184   3.340  68.012  1.00  0.00    -0.078 A  
HETATM    7  N   UNL     1      -8.000   3.571  66.738  1.00  0.00    -0.084 NA 
HETATM    8  C   UNL     1      -8.422   4.871  66.548  1.00  0.00    -0.110 A  
HETATM    9  C   UNL     1      -8.850   5.453  67.749  1.00  0.00    -0.105 A  
HETATM   10  C   UNL     1      -9.263   6.817  67.778  1.00  0.00    -0.111 A  
HETATM   11  C   UNL     1      -9.703   7.518  68.927  1.00  0.00    -0.151 A  
HETATM   12  C   UNL     1     -10.061   8.861  68.845  1.00  0.00    -0.209 A  
HETATM   13  C   UNL     1      -9.982   9.520  67.626  1.00  0.00    -0.226 A  
HETATM   14  C   UNL     1      -9.555   8.828  66.490  1.00  0.00    -0.302 A  
HETATM   15  C   UNL     1      -9.197   7.489  66.532  1.00  0.00    -0.174 A  
HETATM   16  N   UNL     1      -8.812   6.915  65.381  1.00  0.00     0.026 NA 
HETATM   17  C   UNL     1      -8.447   5.617  65.351  1.00  0.00    -0.147 A  
HETATM   18  N   UNL     1      -8.083   5.076  64.123  1.00  0.00    -0.112 NA 
HETATM   19  H2  UNL     1      -8.649   4.240  63.974  1.00  0.00     0.000 HD 
HETATM   20  H1  UNL     1      -8.101   5.616  63.257  1.00  0.00     0.000 HD 
ENDBRANCH   3   5
TORSDOF 1
ENDMDL
MODEL      206
REMARK 921   NORMALIZED FREE ENERGY PREDICTED BY IDOCK:   -2.13 KCAL/MOL
REMARK 922        TOTAL FREE ENERGY PREDICTED BY IDOCK:   -2.49 KCAL/MOL
REMARK 923 INTER-LIGAND FREE ENERGY PREDICTED BY IDOCK:   -2.69 KCAL/MOL
REMARK 924 INTRA-LIGAND FREE ENERGY PREDICTED BY IDOCK:    0.20 KCAL/MOL
REMARK 927      BINDING AFFINITY PREDICTED BY RF-SCORE:    0.00 PKD
ROOT
HETATM    1  C   UNL     1     -10.782   5.841  70.291  1.00  0.00    -0.380 C  
HETATM    2  C   UNL     1     -10.066   7.151  69.951  1.00  0.00    -0.197 C  
HETATM    3  C   UNL     1      -9.693   7.162  68.457  1.00  0.00    -0.143 C  
HETATM    4  C   UNL     1      -8.876   7.327  70.897  1.00  0.00    -0.149 C  
ENDROOT
BRANCH   3   5
HETATM    5  N   UNL     1      -9.028   8.371  68.011  1.00  0.00    -0.138 NA 
HETATM    6  C   UNL     1      -9.063   9.533  68.742  1.00  0.00    -0.133 A  
HETATM    7  N   UNL     1      -8.327  10.471  68.205  1.00  0.00    -0.118 NA 
HETATM    8  C   UNL     1      -7.826   9.912  67.048  1.00  0.00    -0.102 A  
HETATM    9  C   UNL     1      -8.294   8.604  66.865  1.00  0.00    -0.108 A  
HETATM   10  C   UNL     1      -7.945   7.874  65.691  1.00  0.00    -0.116 A  
HETATM   11  C   UNL     1      -8.363   6.555  65.389  1.00  0.00    -0.140 A  
HETATM   12  C   UNL     1      -7.981   5.946  64.197  1.00  0.00    -0.122 A  
HETATM   13  C   UNL     1      -7.185   6.638  63.295  1.00  0.00    -0.064 A  
HETATM   14  C   UNL     1      -6.765   7.936  63.596  1.00  0.00    -0.063 A  
HETATM   15  C   UNL     1      -7.121   8.573  64.775  1.00  0.00    -0.080 A  
HETATM   16  N   UNL     1      -6.655   9.817  64.971  1.00  0.00    -0.092 NA 
HETATM   17  C   UNL     1      -6.965  10.496  66.095  1.00  0.00    -0.131 A  
HETATM   18  N   UNL     1      -6.430  11.770  66.249  1.00  0.00    -0.413 NA 
HETATM   19  H2  UNL     1      -5.952  11.796  67.150  1.00  0.00     0.000 HD 
HETATM   20  H1  UNL     1      -5.807  12.191  65.560  1.00  0.00     0.000 HD 
ENDBRANCH   3   5
TORSDOF 1
ENDMDL
MODEL      207
REMARK 921   NORMALIZED FREE ENERGY PREDICTED BY IDOCK:   -2.08 KCAL/MOL
REMARK 922        TOTAL FREE ENERGY PREDICTED BY IDOCK:   -2.44 KCAL/MOL
REMARK 923 INTER-LIGAND FREE ENERGY PREDICTED BY IDOCK:   -2.02 KCAL/MOL
REMARK 924 INTRA-LIGAND FREE ENERGY PREDICTED BY IDOCK:   -0.42 KCAL/MOL
REMARK 927      BINDING AFFINITY PREDICTED BY RF-SCORE:    0.00 PKD
ROOT
HETATM    1  C   UNL     1     -10.888  12.523  67.982  1.00  0.00    -0.252 C  
HETATM    2  C   UNL     1     -10.529  11.154  68.567  1.00  0.00    -0.212 C  
HETATM    3  C   UNL     1      -9.020  10.899  68.394  1.00  0.00    -0.154 C  
HETATM    4  C   UNL     1     -11.424  10.089  67.928  1.00  0.00     0.173 C  
ENDROOT
BRANCH   3   5
HETATM    5  N   UNL     1      -8.557   9.637  68.936  1.00  0.00    -0.122 NA 
HETATM    6  C   UNL     1      -8.351   9.454  70.281  1.00  0.00    -0.195 A  
HETATM    7  N   UNL     1      -8.020   8.221  70.563  1.00  0.00    -0.095 NA 
HETATM    8  C   UNL     1      -7.964   7.580  69.343  1.00  0.00    -0.123 A  
HETATM    9  C   UNL     1      -8.243   8.459  68.288  1.00  0.00    -0.124 A  
HETATM   10  C   UNL     1      -8.169   8.007  66.938  1.00  0.00    -0.115 A  
HETATM   11  C   UNL     1      -8.416   8.800  65.791  1.00  0.00    -0.161 A  
HETATM   12  C   UNL     1      -8.291   8.259  64.514  1.00  0.00    -0.097 A  
HETATM   13  C   UNL     1      -7.917   6.931  64.364  1.00  0.00    -0.093 A  
HETATM   14  C   UNL     1      -7.681   6.145  65.495  1.00  0.00    -0.094 A  
HETATM   15  C   UNL     1      -7.802   6.647  66.782  1.00  0.00    -0.107 A  
HETATM   16  N   UNL     1      -7.563   5.805  67.800  1.00  0.00    -0.085 NA 
HETATM   17  C   UNL     1      -7.659   6.229  69.077  1.00  0.00    -0.096 A  
HETATM   18  N   UNL     1      -7.424   5.300  70.085  1.00  0.00    -0.066 NA 
HETATM   19  H2  UNL     1      -8.230   5.315  70.711  1.00  0.00     0.000 HD 
HETATM   20  H1  UNL     1      -7.204   4.323  69.892  1.00  0.00     0.000 HD 
ENDBRANCH   3   5
TORSDOF 1
ENDMDL
MODEL      208
REMARK 921   NORMALIZED FREE ENERGY PREDICTED BY IDOCK:   -2.01 KCAL/MOL
REMARK 922        TOTAL FREE ENERGY PREDICTED BY IDOCK:   -2.37 KCAL/MOL
REMARK 923 INTER-LIGAND FREE ENERGY PREDICTED BY IDOCK:   -2.85 KCAL/MOL
REMARK 924 INTRA-LIGAND FREE ENERGY PREDICTED BY IDOCK:    0.48 KCAL/MOL
REMARK 927      BINDING AFFINITY PREDICTED BY RF-SCORE:    0.00 PKD
ROOT
HETATM    1  C   UNL     1     -12.281  12.549  65.360  1.00  0.00    -0.475 C  
HETATM    2  C   UNL     1     -11.094  12.703  66.316  1.00  0.00    -0.330 C  
HETATM    3  C   UNL     1     -10.351  11.359  66.436  1.00  0.00    -0.242 C  
HETATM    4  C   UNL     1     -11.597  13.264  67.648  1.00  0.00    -0.386 C  
ENDROOT
BRANCH   3   5
HETATM    5  N   UNL     1      -9.187  11.390  67.300  1.00  0.00    -0.163 NA 
HETATM    6  C   UNL     1      -8.828  12.517  67.998  1.00  0.00    -0.187 A  
HETATM    7  N   UNL     1      -7.803  12.301  68.781  1.00  0.00    -0.052 NA 
HETATM    8  C   UNL     1      -7.450  10.988  68.552  1.00  0.00    -0.106 A  
HETATM    9  C   UNL     1      -8.269  10.398  67.579  1.00  0.00    -0.114 A  
HETATM   10  C   UNL     1      -8.024   9.061  67.149  1.00  0.00    -0.102 A  
HETATM   11  C   UNL     1      -8.771   8.363  66.170  1.00  0.00    -0.175 A  
HETATM   12  C   UNL     1      -8.426   7.063  65.808  1.00  0.00    -0.154 A  
HETATM   13  C   UNL     1      -7.338   6.448  66.410  1.00  0.00    -0.081 A  
HETATM   14  C   UNL     1      -6.605   7.132  67.382  1.00  0.00    -0.059 A  
HETATM   15  C   UNL     1      -6.921   8.425  67.773  1.00  0.00    -0.075 A  
HETATM   16  N   UNL     1      -6.159   8.988  68.723  1.00  0.00    -0.044 NA 
HETATM   17  C   UNL     1      -6.409  10.244  69.147  1.00  0.00    -0.045 A  
HETATM   18  N   UNL     1      -5.599  10.760  70.152  1.00  0.00    -0.062 NA 
HETATM   19  H2  UNL     1      -6.209  11.088  70.901  1.00  0.00     0.000 HD 
HETATM   20  H1  UNL     1      -4.847  10.223  70.583  1.00  0.00     0.000 HD 
ENDBRANCH   3   5
TORSDOF 1
ENDMDL
MODEL      209
REMARK 921   NORMALIZED FREE ENERGY PREDICTED BY IDOCK:   -1.88 KCAL/MOL
REMARK 922        TOTAL FREE ENERGY PREDICTED BY IDOCK:   -2.23 KCAL/MOL
REMARK 923 INTER-LIGAND FREE ENERGY PREDICTED BY IDOCK:   -2.13 KCAL/MOL
REMARK 924 INTRA-LIGAND FREE ENERGY PREDICTED BY IDOCK:   -0.10 KCAL/MOL
REMARK 927      BINDING AFFINITY PREDICTED BY RF-SCORE:    0.00 PKD
ROOT
HETATM    1  C   UNL     1     -12.432   9.218  72.718  1.00  0.00     0.171 C  
HETATM    2  C   UNL     1     -11.465   8.398  71.859  1.00  0.00    -0.384 C  
HETATM    3  C   UNL     1     -10.031   8.929  72.047  1.00  0.00    -0.268 C  
HETATM    4  C   UNL     1     -11.955   8.411  70.409  1.00  0.00     0.184 C  
ENDROOT
BRANCH   3   5
HETATM    5  N   UNL     1      -9.020   8.209  71.297  1.00  0.00    -0.138 NA 
HETATM    6  C   UNL     1      -8.187   8.840  70.407  1.00  0.00    -0.122 A  
HETATM    7  N   UNL     1      -7.295   8.025  69.908  1.00  0.00    -0.065 NA 
HETATM    8  C   UNL     1      -7.586   6.796  70.464  1.00  0.00    -0.091 A  
HETATM    9  C   UNL     1      -8.706   6.865  71.304  1.00  0.00    -0.134 A  
HETATM   10  C   UNL     1      -9.212   5.685  71.924  1.00  0.00    -0.157 A  
HETATM   11  C   UNL     1     -10.338   5.625  72.780  1.00  0.00    -0.224 A  
HETATM   12  C   UNL     1     -10.761   4.409  73.312  1.00  0.00    -0.307 A  
HETATM   13  C   UNL     1     -10.073   3.246  72.998  1.00  0.00    -0.218 A  
HETATM   14  C   UNL     1      -8.957   3.305  72.160  1.00  0.00    -0.139 A  
HETATM   15  C   UNL     1      -8.503   4.497  71.616  1.00  0.00    -0.107 A  
HETATM   16  N   UNL     1      -7.415   4.445  70.832  1.00  0.00    -0.051 NA 
HETATM   17  C   UNL     1      -6.923   5.567  70.268  1.00  0.00    -0.061 A  
HETATM   18  N   UNL     1      -5.778   5.449  69.487  1.00  0.00    -0.015 NA 
HETATM   19  H2  UNL     1      -5.092   6.114  69.844  1.00  0.00     0.000 HD 
HETATM   20  H1  UNL     1      -5.298   4.560  69.345  1.00  0.00     0.000 HD 
ENDBRANCH   3   5
TORSDOF 1
ENDMDL
MODEL      210
REMARK 921   NORMALIZED FREE ENERGY PREDICTED BY IDOCK:   -1.83 KCAL/MOL
REMARK 922        TOTAL FREE ENERGY PREDICTED BY IDOCK:   -2.17 KCAL/MOL
REMARK 923 INTER-LIGAND FREE ENERGY PREDICTED BY IDOCK:   -2.38 KCAL/MOL
REMARK 924 INTRA-LIGAND FREE ENERGY PREDICTED BY IDOCK:    0.20 KCAL/MOL
REMARK 927      BINDING AFFINITY PREDICTED BY RF-SCORE:    0.00 PKD
ROOT
HETATM    1  C   UNL     1     -10.229   8.175  66.445  1.00  0.00    -0.120 C  
HETATM    2  C   UNL     1      -9.223   7.496  67.379  1.00  0.00    -0.149 C  
HETATM    3  C   UNL     1      -9.591   6.008  67.537  1.00  0.00    -0.113 C  
HETATM    4  C   UNL     1      -9.164   8.271  68.697  1.00  0.00    -0.143 C  
ENDROOT
BRANCH   3   5
HETATM    5  N   UNL     1      -8.689   5.252  68.384  1.00  0.00    -0.098 NA 
HETATM    6  C   UNL     1      -7.690   4.466  67.865  1.00  0.00    -0.080 A  
HETATM    7  N   UNL     1      -6.941   3.945  68.802  1.00  0.00    -0.046 NA 
HETATM    8  C   UNL     1      -7.504   4.372  69.987  1.00  0.00    -0.050 A  
HETATM    9  C   UNL     1      -8.644   5.154  69.760  1.00  0.00    -0.096 A  
HETATM   10  C   UNL     1      -9.412   5.639  70.859  1.00  0.00    -0.202 A  
HETATM   11  C   UNL     1     -10.585   6.425  70.759  1.00  0.00    -0.288 A  
HETATM   12  C   UNL     1     -11.273   6.823  71.903  1.00  0.00    -0.294 A  
HETATM   13  C   UNL     1     -10.805   6.443  73.153  1.00  0.00    -0.282 A  
HETATM   14  C   UNL     1      -9.643   5.674  73.254  1.00  0.00    -0.150 A  
HETATM   15  C   UNL     1      -8.929   5.264  72.138  1.00  0.00    -0.129 A  
HETATM   16  N   UNL     1      -7.820   4.537  72.346  1.00  0.00    -0.088 NA 
HETATM   17  C   UNL     1      -7.080   4.102  71.305  1.00  0.00    -0.036 A  
HETATM   18  N   UNL     1      -5.929   3.376  71.589  1.00  0.00    -0.013 NA 
HETATM   19  H2  UNL     1      -5.153   3.827  71.104  1.00  0.00     0.000 HD 
HETATM   20  H1  UNL     1      -5.623   3.181  72.542  1.00  0.00     0.000 HD 
ENDBRANCH   3   5
TORSDOF 1
ENDMDL
MODEL      211
REMARK 921   NORMALIZED FREE ENERGY PREDICTED BY IDOCK:   -1.67 KCAL/MOL
REMARK 922        TOTAL FREE ENERGY PREDICTED BY IDOCK:   -2.00 KCAL/MOL
REMARK 923 INTER-LIGAND FREE ENERGY PREDICTED BY IDOCK:   -2.13 KCAL/MOL
REMARK 924 INTRA-LIGAND FREE ENERGY PREDICTED BY IDOCK:    0.13 KCAL/MOL
REMARK 927      BINDING AFFINITY PREDICTED BY RF-SCORE:    0.00 PKD
ROOT
HETATM    1  C   UNL     1      -8.202   5.496  71.424  1.00  0.00    -0.118 C  
HETATM    2  C   UNL     1      -8.210   5.111  69.942  1.00  0.00    -0.086 C  
HETATM    3  C   UNL     1      -7.935   6.361  69.083  1.00  0.00    -0.111 C  
HETATM    4  C   UNL     1      -9.528   4.405  69.618  1.00  0.00    -0.252 C  
ENDROOT
BRANCH   3   5
HETATM    5  N   UNL     1      -7.893   6.113  67.656  1.00  0.00    -0.104 NA 
HETATM    6  C   UNL     1      -7.643   4.866  67.140  1.00  0.00    -0.087 A  
HETATM    7  N   UNL     1      -7.738   4.846  65.836  1.00  0.00    -0.090 NA 
HETATM    8  C   UNL     1      -8.019   6.149  65.481  1.00  0.00    -0.117 A  
HETATM    9  C   UNL     1      -8.069   6.988  66.602  1.00  0.00    -0.110 A  
HETATM   10  C   UNL     1      -8.280   8.389  66.443  1.00  0.00    -0.109 A  
HETATM   11  C   UNL     1      -8.338   9.336  67.493  1.00  0.00    -0.119 A  
HETATM   12  C   UNL     1      -8.525  10.689  67.219  1.00  0.00    -0.126 A  
HETATM   13  C   UNL     1      -8.652  11.112  65.904  1.00  0.00    -0.135 A  
HETATM   14  C   UNL     1      -8.603  10.178  64.867  1.00  0.00    -0.188 A  
HETATM   15  C   UNL     1      -8.424   8.823  65.101  1.00  0.00    -0.174 A  
HETATM   16  N   UNL     1      -8.402   8.008  64.035  1.00  0.00    -0.043 NA 
HETATM   17  C   UNL     1      -8.229   6.679  64.191  1.00  0.00     0.049 A  
HETATM   18  N   UNL     1      -8.242   5.887  63.048  1.00  0.00    -0.215 NA 
HETATM   19  H2  UNL     1      -8.932   5.149  63.192  1.00  0.00     0.000 HD 
HETATM   20  H1  UNL     1      -8.394   6.270  62.115  1.00  0.00     0.000 HD 
ENDBRANCH   3   5
TORSDOF 1
ENDMDL
MODEL      212
REMARK 921   NORMALIZED FREE ENERGY PREDICTED BY IDOCK:   -1.64 KCAL/MOL
REMARK 922        TOTAL FREE ENERGY PREDICTED BY IDOCK:   -1.97 KCAL/MOL
REMARK 923 INTER-LIGAND FREE ENERGY PREDICTED BY IDOCK:   -2.54 KCAL/MOL
REMARK 924 INTRA-LIGAND FREE ENERGY PREDICTED BY IDOCK:    0.57 KCAL/MOL
REMARK 927      BINDING AFFINITY PREDICTED BY RF-SCORE:    0.00 PKD
ROOT
HETATM    1  C   UNL     1     -11.390  10.599  67.627  1.00  0.00    -0.284 C  
HETATM    2  C   UNL     1     -10.384   9.533  67.182  1.00  0.00    -0.320 C  
HETATM    3  C   UNL     1      -9.537   9.088  68.389  1.00  0.00    -0.152 C  
HETATM    4  C   UNL     1      -9.568  10.078  66.008  1.00  0.00    -0.279 C  
ENDROOT
BRANCH   3   5
HETATM    5  N   UNL     1      -8.561   8.057  68.093  1.00  0.00    -0.126 NA 
HETATM    6  C   UNL     1      -7.798   8.083  66.952  1.00  0.00    -0.103 A  
HETATM    7  N   UNL     1      -6.924   7.111  66.925  1.00  0.00    -0.074 NA 
HETATM    8  C   UNL     1      -7.156   6.392  68.079  1.00  0.00    -0.082 A  
HETATM    9  C   UNL     1      -8.222   6.929  68.814  1.00  0.00    -0.121 A  
HETATM   10  C   UNL     1      -8.665   6.290  70.008  1.00  0.00    -0.141 A  
HETATM   11  C   UNL     1      -9.734   6.729  70.827  1.00  0.00    -0.187 A  
HETATM   12  C   UNL     1     -10.099   6.010  71.962  1.00  0.00    -0.215 A  
HETATM   13  C   UNL     1      -9.411   4.851  72.293  1.00  0.00    -0.165 A  
HETATM   14  C   UNL     1      -8.351   4.422  71.490  1.00  0.00    -0.100 A  
HETATM   15  C   UNL     1      -7.955   5.114  70.356  1.00  0.00    -0.086 A  
HETATM   16  N   UNL     1      -6.918   4.621  69.661  1.00  0.00    -0.048 NA 
HETATM   17  C   UNL     1      -6.483   5.243  68.545  1.00  0.00    -0.040 A  
HETATM   18  N   UNL     1      -5.388   4.696  67.886  1.00  0.00    -0.011 NA 
HETATM   19  H2  UNL     1      -4.693   5.436  67.778  1.00  0.00     0.000 HD 
HETATM   20  H1  UNL     1      -4.901   3.866  68.223  1.00  0.00     0.000 HD 
ENDBRANCH   3   5
TORSDOF 1
ENDMDL
MODEL      213
REMARK 921   NORMALIZED FREE ENERGY PREDICTED BY IDOCK:   -1.56 KCAL/MOL
REMARK 922        TOTAL FREE ENERGY PREDICTED BY IDOCK:   -1.89 KCAL/MOL
REMARK 923 INTER-LIGAND FREE ENERGY PREDICTED BY IDOCK:   -2.50 KCAL/MOL
REMARK 924 INTRA-LIGAND FREE ENERGY PREDICTED BY IDOCK:    0.61 KCAL/MOL
REMARK 927      BINDING AFFINITY PREDICTED BY RF-SCORE:    0.00 PKD
ROOT
HETATM    1  C   UNL     1      -7.907   7.324  71.062  1.00  0.00    -0.097 C  
HETATM    2  C   UNL     1      -8.297   6.106  70.221  1.00  0.00    -0.125 C  
HETATM    3  C   UNL     1      -8.454   6.526  68.747  1.00  0.00    -0.122 C  
HETATM    4  C   UNL     1      -9.545   5.460  70.826  1.00  0.00    -0.228 C  
ENDROOT
BRANCH   3   5
HETATM    5  N   UNL     1      -8.799   5.445  67.846  1.00  0.00    -0.106 NA 
HETATM    6  C   UNL     1      -9.287   4.245  68.301  1.00  0.00    -0.152 A  
HETATM    7  N   UNL     1      -9.615   3.446  67.319  1.00  0.00    -0.166 NA 
HETATM    8  C   UNL     1      -9.284   4.137  66.172  1.00  0.00    -0.150 A  
HETATM    9  C   UNL     1      -8.713   5.382  66.469  1.00  0.00    -0.117 A  
HETATM   10  C   UNL     1      -8.240   6.223  65.420  1.00  0.00    -0.142 A  
HETATM   11  C   UNL     1      -7.637   7.492  65.593  1.00  0.00    -0.091 A  
HETATM   12  C   UNL     1      -7.187   8.220  64.495  1.00  0.00    -0.083 A  
HETATM   13  C   UNL     1      -7.328   7.694  63.218  1.00  0.00    -0.090 A  
HETATM   14  C   UNL     1      -7.931   6.446  63.045  1.00  0.00    -0.088 A  
HETATM   15  C   UNL     1      -8.396   5.695  64.114  1.00  0.00    -0.071 A  
HETATM   16  N   UNL     1      -8.969   4.513  63.837  1.00  0.00    -0.144 NA 
HETATM   17  C   UNL     1      -9.440   3.731  64.830  1.00  0.00    -0.167 A  
HETATM   18  N   UNL     1     -10.045   2.531  64.475  1.00  0.00    -0.357 NA 
HETATM   19  H2  UNL     1     -10.968   2.510  64.910  1.00  0.00     0.000 HD 
HETATM   20  H1  UNL     1     -10.158   2.237  63.505  1.00  0.00     0.000 HD 
ENDBRANCH   3   5
TORSDOF 1
ENDMDL
MODEL      214
REMARK 921   NORMALIZED FREE ENERGY PREDICTED BY IDOCK:   -1.52 KCAL/MOL
REMARK 922        TOTAL FREE ENERGY PREDICTED BY IDOCK:   -1.85 KCAL/MOL
REMARK 923 INTER-LIGAND FREE ENERGY PREDICTED BY IDOCK:   -1.64 KCAL/MOL
REMARK 924 INTRA-LIGAND FREE ENERGY PREDICTED BY IDOCK:   -0.21 KCAL/MOL
REMARK 927      BINDING AFFINITY PREDICTED BY RF-SCORE:    0.00 PKD
ROOT
HETATM    1  C   UNL     1     -13.097  15.621  70.971  1.00  0.00    -0.487 C  
HETATM    2  C   UNL     1     -12.051  14.878  70.135  1.00  0.00    -0.379 C  
HETATM    3  C   UNL     1     -10.668  15.525  70.345  1.00  0.00    -0.320 C  
HETATM    4  C   UNL     1     -12.513  14.844  68.676  1.00  0.00     0.179 C  
ENDROOT
BRANCH   3   5
HETATM    5  N   UNL     1      -9.589  14.887  69.619  1.00  0.00    -0.024 NA 
HETATM    6  C   UNL     1      -9.426  13.523  69.605  1.00  0.00     1.458 A  
HETATM    7  N   UNL     1      -8.447  13.155  68.820  1.00  0.00     0.053 NA 
HETATM    8  C   UNL     1      -7.917  14.333  68.335  1.00  0.00    -0.143 A  
HETATM    9  C   UNL     1      -8.579  15.449  68.863  1.00  0.00    -0.207 A  
HETATM   10  C   UNL     1      -8.138  16.765  68.539  1.00  0.00    -0.241 A  
HETATM   11  C   UNL     1      -8.715  17.967  69.017  1.00  0.00    -0.007 A  
HETATM   12  C   UNL     1      -8.185  19.202  68.653  1.00  0.00    -0.404 A  
HETATM   13  C   UNL     1      -7.079  19.256  67.816  1.00  0.00    -0.264 A  
HETATM   14  C   UNL     1      -6.514  18.072  67.337  1.00  0.00    -0.182 A  
HETATM   15  C   UNL     1      -7.017  16.824  67.673  1.00  0.00    -0.135 A  
HETATM   16  N   UNL     1      -6.407  15.749  67.150  1.00  0.00    -0.321 NA 
HETATM   17  C   UNL     1      -6.843  14.505  67.438  1.00  0.00    -0.038 A  
HETATM   18  N   UNL     1      -6.183  13.436  66.843  1.00  0.00    -0.181 NA 
HETATM   19  H2  UNL     1      -6.886  12.863  66.374  1.00  0.00     0.000 HD 
HETATM   20  H1  UNL     1      -5.407  13.560  66.194  1.00  0.00     0.000 HD 
ENDBRANCH   3   5
TORSDOF 1
ENDMDL
MODEL      215
REMARK 921   NORMALIZED FREE ENERGY PREDICTED BY IDOCK:   -1.26 KCAL/MOL
REMARK 922        TOTAL FREE ENERGY PREDICTED BY IDOCK:   -1.57 KCAL/MOL
REMARK 923 INTER-LIGAND FREE ENERGY PREDICTED BY IDOCK:   -1.65 KCAL/MOL
REMARK 924 INTRA-LIGAND FREE ENERGY PREDICTED BY IDOCK:    0.08 KCAL/MOL
REMARK 927      BINDING AFFINITY PREDICTED BY RF-SCORE:    0.00 PKD
ROOT
HETATM    1  C   UNL     1     -10.644   7.946  66.919  1.00  0.00    -0.333 C  
HETATM    2  C   UNL     1      -9.686   7.343  67.950  1.00  0.00    -0.166 C  
HETATM    3  C   UNL     1     -10.008   5.848  68.141  1.00  0.00    -0.145 C  
HETATM    4  C   UNL     1      -9.754   8.168  69.237  1.00  0.00    -0.170 C  
ENDROOT
BRANCH   3   5
HETATM    5  N   UNL     1      -9.145   5.161  69.081  1.00  0.00    -0.099 NA 
HETATM    6  C   UNL     1      -9.277   5.317  70.438  1.00  0.00    -0.148 A  
HETATM    7  N   UNL     1      -8.459   4.542  71.102  1.00  0.00    -0.103 NA 
HETATM    8  C   UNL     1      -7.730   3.882  70.134  1.00  0.00    -0.048 A  
HETATM    9  C   UNL     1      -8.099   4.291  68.846  1.00  0.00    -0.072 A  
HETATM   10  C   UNL     1      -7.415   3.777  67.706  1.00  0.00    -0.067 A  
HETATM   11  C   UNL     1      -7.687   4.121  66.360  1.00  0.00    -0.090 A  
HETATM   12  C   UNL     1      -6.936   3.574  65.322  1.00  0.00    -0.060 A  
HETATM   13  C   UNL     1      -5.910   2.685  65.610  1.00  0.00    -0.018 A  
HETATM   14  C   UNL     1      -5.646   2.339  66.938  1.00  0.00    -0.018 A  
HETATM   15  C   UNL     1      -6.375   2.858  67.996  1.00  0.00    -0.032 A  
HETATM   16  N   UNL     1      -6.046   2.452  69.233  1.00  0.00    -0.024 NA 
HETATM   17  C   UNL     1      -6.713   2.920  70.308  1.00  0.00    -0.033 A  
HETATM   18  N   UNL     1      -6.341   2.440  71.558  1.00  0.00    -0.018 NA 
HETATM   19  H2  UNL     1      -7.182   2.083  72.014  1.00  0.00     0.000 HD 
HETATM   20  H1  UNL     1      -5.606   1.744  71.684  1.00  0.00     0.000 HD 
ENDBRANCH   3   5
TORSDOF 1
ENDMDL
MODEL      216
REMARK 921   NORMALIZED FREE ENERGY PREDICTED BY IDOCK:   -1.07 KCAL/MOL
REMARK 922        TOTAL FREE ENERGY PREDICTED BY IDOCK:   -1.37 KCAL/MOL
REMARK 923 INTER-LIGAND FREE ENERGY PREDICTED BY IDOCK:   -1.33 KCAL/MOL
REMARK 924 INTRA-LIGAND FREE ENERGY PREDICTED BY IDOCK:   -0.04 KCAL/MOL
REMARK 927      BINDING AFFINITY PREDICTED BY RF-SCORE:    0.00 PKD
ROOT
HETATM    1  C   UNL     1     -10.972   8.096  67.382  1.00  0.00     0.060 C  
HETATM    2  C   UNL     1      -9.656   8.765  67.787  1.00  0.00    -0.177 C  
HETATM    3  C   UNL     1      -9.895  10.267  68.033  1.00  0.00    -0.150 C  
HETATM    4  C   UNL     1      -8.596   8.464  66.724  1.00  0.00    -0.123 C  
ENDROOT
BRANCH   3   5
HETATM    5  N   UNL     1      -8.718  11.004  68.448  1.00  0.00    -0.144 NA 
HETATM    6  C   UNL     1      -8.285  12.123  67.780  1.00  0.00    -0.154 A  
HETATM    7  N   UNL     1      -7.262  12.682  68.372  1.00  0.00    -0.104 NA 
HETATM    8  C   UNL     1      -6.986  11.867  69.450  1.00  0.00    -0.001 A  
HETATM    9  C   UNL     1      -7.851  10.766  69.497  1.00  0.00    -0.035 A  
HETATM   10  C   UNL     1      -7.688   9.766  70.499  1.00  0.00    -0.094 A  
HETATM   11  C   UNL     1      -8.488   8.607  70.642  1.00  0.00    -0.174 A  
HETATM   12  C   UNL     1      -8.222   7.680  71.647  1.00  0.00    -0.115 A  
HETATM   13  C   UNL     1      -7.160   7.893  72.515  1.00  0.00    -0.095 A  
HETATM   14  C   UNL     1      -6.375   9.041  72.380  1.00  0.00     0.063 A  
HETATM   15  C   UNL     1      -6.613   9.988  71.396  1.00  0.00     0.458 A  
HETATM   16  N   UNL     1      -5.805  11.060  71.360  1.00  0.00    -0.334 NA 
HETATM   17  C   UNL     1      -5.979  12.018  70.427  1.00  0.00    -0.107 A  
HETATM   18  N   UNL     1      -5.126  13.115  70.461  1.00  0.00    -0.100 NA 
HETATM   19  H2  UNL     1      -5.705  13.955  70.484  1.00  0.00     0.000 HD 
HETATM   20  H1  UNL     1      -4.398  13.225  71.166  1.00  0.00     0.000 HD 
ENDBRANCH   3   5
TORSDOF 1
ENDMDL
MODEL      217
REMARK 921   NORMALIZED FREE ENERGY PREDICTED BY IDOCK:    0.62 KCAL/MOL
REMARK 922        TOTAL FREE ENERGY PREDICTED BY IDOCK:    0.42 KCAL/MOL
REMARK 923 INTER-LIGAND FREE ENERGY PREDICTED BY IDOCK:   -0.69 KCAL/MOL
REMARK 924 INTRA-LIGAND FREE ENERGY PREDICTED BY IDOCK:    1.11 KCAL/MOL
REMARK 927      BINDING AFFINITY PREDICTED BY RF-SCORE:    0.00 PKD
ROOT
HETATM    1  C   UNL     1     -11.060   6.949  67.216  1.00  0.00    -0.355 C  
HETATM    2  C   UNL     1     -10.057   7.882  66.531  1.00  0.00    -0.246 C  
HETATM    3  C   UNL     1      -8.969   7.044  65.832  1.00  0.00    -0.062 C  
HETATM    4  C   UNL     1      -9.518   8.877  67.561  1.00  0.00    -0.172 C  
ENDROOT
BRANCH   3   5
HETATM    5  N   UNL     1      -7.972   7.823  65.124  1.00  0.00    -0.123 NA 
HETATM    6  C   UNL     1      -6.658   7.431  65.053  1.00  0.00    -0.044 A  
HETATM    7  N   UNL     1      -5.950   8.227  64.295  1.00  0.00    -0.064 NA 
HETATM    8  C   UNL     1      -6.830   9.209  63.890  1.00  0.00    -0.089 A  
HETATM    9  C   UNL     1      -8.104   9.015  64.441  1.00  0.00    -0.146 A  
HETATM   10  C   UNL     1      -9.143   9.961  64.198  1.00  0.00    -0.294 A  
HETATM   11  C   UNL     1     -10.462   9.882  64.707  1.00  0.00     0.781 A  
HETATM   12  C   UNL     1     -11.392  10.879  64.425  1.00  0.00     0.523 A  
HETATM   13  C   UNL     1     -11.022  11.962  63.641  1.00  0.00    -0.511 A  
HETATM   14  C   UNL     1      -9.723  12.038  63.132  1.00  0.00    -0.068 A  
HETATM   15  C   UNL     1      -8.772  11.062  63.386  1.00  0.00    -0.012 A  
HETATM   16  N   UNL     1      -7.556  11.225  62.840  1.00  0.00     0.434 NA 
HETATM   17  C   UNL     1      -6.583  10.315  63.050  1.00  0.00    -0.127 A  
HETATM   18  N   UNL     1      -5.355  10.529  62.435  1.00  0.00    -0.115 NA 
HETATM   19  H2  UNL     1      -5.122   9.686  61.909  1.00  0.00     0.000 HD 
HETATM   20  H1  UNL     1      -5.176  11.328  61.827  1.00  0.00     0.000 HD 
ENDBRANCH   3   5
TORSDOF 1
ENDMDL
MODEL      218
REMARK 921   NORMALIZED FREE ENERGY PREDICTED BY IDOCK:    9.80 KCAL/MOL
REMARK 922        TOTAL FREE ENERGY PREDICTED BY IDOCK:   10.14 KCAL/MOL
REMARK 923 INTER-LIGAND FREE ENERGY PREDICTED BY IDOCK:   10.54 KCAL/MOL
REMARK 924 INTRA-LIGAND FREE ENERGY PREDICTED BY IDOCK:   -0.41 KCAL/MOL
REMARK 927      BINDING AFFINITY PREDICTED BY RF-SCORE:    0.00 PKD
ROOT
HETATM    1  C   UNL     1      -6.321  11.204  72.946  1.00  0.00     3.820 C  
HETATM    2  C   UNL     1      -7.477  10.280  72.553  1.00  0.00     4.667 C  
HETATM    3  C   UNL     1      -7.706   9.238  73.665  1.00  0.00     1.407 C  
HETATM    4  C   UNL     1      -7.186   9.676  71.177  1.00  0.00     0.177 C  
ENDROOT
BRANCH   3   5
HETATM    5  N   UNL     1      -8.798   8.319  73.414  1.00  0.00    -0.250 NA 
HETATM    6  C   UNL     1     -10.111   8.720  73.454  1.00  0.00     1.634 A  
HETATM    7  N   UNL     1     -10.927   7.758  73.112  1.00  0.00    -0.381 NA 
HETATM    8  C   UNL     1     -10.115   6.667  72.881  1.00  0.00    -0.182 A  
HETATM    9  C   UNL     1      -8.767   6.971  73.117  1.00  0.00    -0.125 A  
HETATM   10  C   UNL     1      -7.771   5.958  73.000  1.00  0.00    -0.103 A  
HETATM   11  C   UNL     1      -6.385   6.139  73.224  1.00  0.00    -0.064 A  
HETATM   12  C   UNL     1      -5.501   5.069  73.105  1.00  0.00    -0.013 A  
HETATM   13  C   UNL     1      -5.985   3.813  72.767  1.00  0.00    -0.008 A  
HETATM   14  C   UNL     1      -7.351   3.635  72.538  1.00  0.00    -0.050 A  
HETATM   15  C   UNL     1      -8.260   4.677  72.642  1.00  0.00    -0.107 A  
HETATM   16  N   UNL     1      -9.550   4.401  72.391  1.00  0.00    -0.142 NA 
HETATM   17  C   UNL     1     -10.486   5.368  72.476  1.00  0.00    -0.214 A  
HETATM   18  N   UNL     1     -11.800   5.022  72.179  1.00  0.00     0.479 NA 
HETATM   19  H2  UNL     1     -12.136   5.673  71.468  1.00  0.00     0.000 HD 
HETATM   20  H1  UNL     1     -12.069   4.083  71.886  1.00  0.00     0.000 HD 
ENDBRANCH   3   5
TORSDOF 1
ENDMDL
MODEL      219
REMARK 921   NORMALIZED FREE ENERGY PREDICTED BY IDOCK:   11.17 KCAL/MOL
REMARK 922        TOTAL FREE ENERGY PREDICTED BY IDOCK:   11.58 KCAL/MOL
REMARK 923 INTER-LIGAND FREE ENERGY PREDICTED BY IDOCK:   11.96 KCAL/MOL
REMARK 924 INTRA-LIGAND FREE ENERGY PREDICTED BY IDOCK:   -0.38 KCAL/MOL
REMARK 927      BINDING AFFINITY PREDICTED BY RF-SCORE:    0.00 PKD
ROOT
HETATM    1  C   UNL     1      -6.584  15.160  72.132  1.00  0.00     1.882 C  
HETATM    2  C   UNL     1      -6.727  15.907  70.804  1.00  0.00     1.156 C  
HETATM    3  C   UNL     1      -7.931  16.866  70.879  1.00  0.00     5.262 C  
HETATM    4  C   UNL     1      -6.806  14.889  69.665  1.00  0.00    -0.181 C  
ENDROOT
BRANCH   3   5
HETATM    5  N   UNL     1      -8.151  17.651  69.680  1.00  0.00     0.660 NA 
HETATM    6  C   UNL     1      -7.240  18.579  69.240  1.00  0.00    -0.106 A  
HETATM    7  N   UNL     1      -7.593  19.108  68.097  1.00  0.00    -0.275 NA 
HETATM    8  C   UNL     1      -8.811  18.532  67.800  1.00  0.00    -0.275 A  
HETATM    9  C   UNL     1      -9.221  17.648  68.807  1.00  0.00    -0.215 A  
HETATM   10  C   UNL     1     -10.487  17.000  68.722  1.00  0.00    -0.347 A  
HETATM   11  C   UNL     1     -11.015  16.099  69.677  1.00  0.00    -0.346 A  
HETATM   12  C   UNL     1     -12.280  15.541  69.504  1.00  0.00    -0.264 A  
HETATM   13  C   UNL     1     -13.031  15.875  68.386  1.00  0.00     2.419 A  
HETATM   14  C   UNL     1     -12.508  16.758  67.438  1.00  0.00     3.088 A  
HETATM   15  C   UNL     1     -11.251  17.328  67.574  1.00  0.00     0.205 A  
HETATM   16  N   UNL     1     -10.839  18.156  66.600  1.00  0.00    -0.143 NA 
HETATM   17  C   UNL     1      -9.628  18.747  66.671  1.00  0.00    -0.336 A  
HETATM   18  N   UNL     1      -9.251  19.573  65.617  1.00  0.00    -0.227 NA 
HETATM   19  H2  UNL     1      -8.343  19.248  65.282  1.00  0.00     0.000 HD 
HETATM   20  H1  UNL     1      -9.841  19.728  64.801  1.00  0.00     0.000 HD 
ENDBRANCH   3   5
TORSDOF 1
ENDMDL
MODEL      220
REMARK 921   NORMALIZED FREE ENERGY PREDICTED BY IDOCK:   11.62 KCAL/MOL
REMARK 922        TOTAL FREE ENERGY PREDICTED BY IDOCK:   12.06 KCAL/MOL
REMARK 923 INTER-LIGAND FREE ENERGY PREDICTED BY IDOCK:   12.01 KCAL/MOL
REMARK 924 INTRA-LIGAND FREE ENERGY PREDICTED BY IDOCK:    0.06 KCAL/MOL
REMARK 927      BINDING AFFINITY PREDICTED BY RF-SCORE:    0.00 PKD
ROOT
HETATM    1  C   UNL     1      -9.305  20.666  72.686  1.00  0.00     3.352 C  
HETATM    2  C   UNL     1      -9.624  20.026  71.331  1.00  0.00     2.320 C  
HETATM    3  C   UNL     1      -8.355  20.009  70.458  1.00  0.00     1.598 C  
HETATM    4  C   UNL     1     -10.810  20.760  70.701  1.00  0.00     3.083 C  
ENDROOT
BRANCH   3   5
HETATM    5  N   UNL     1      -8.530  19.400  69.154  1.00  0.00    -0.224 NA 
HETATM    6  C   UNL     1      -8.146  20.033  67.998  1.00  0.00    -0.235 A  
HETATM    7  N   UNL     1      -8.311  19.274  66.946  1.00  0.00    -0.273 NA 
HETATM    8  C   UNL     1      -8.869  18.110  67.432  1.00  0.00    -0.256 A  
HETATM    9  C   UNL     1      -9.073  18.177  68.816  1.00  0.00    -0.224 A  
HETATM   10  C   UNL     1      -9.704  17.098  69.502  1.00  0.00     0.182 A  
HETATM   11  C   UNL     1      -9.974  17.053  70.891  1.00  0.00     2.930 A  
HETATM   12  C   UNL     1     -10.620  15.955  71.454  1.00  0.00     0.695 A  
HETATM   13  C   UNL     1     -11.005  14.896  70.644  1.00  0.00    -0.112 A  
HETATM   14  C   UNL     1     -10.732  14.935  69.275  1.00  0.00    -0.253 A  
HETATM   15  C   UNL     1     -10.086  16.008  68.681  1.00  0.00    -0.220 A  
HETATM   16  N   UNL     1      -9.862  15.941  67.359  1.00  0.00    -0.232 NA 
HETATM   17  C   UNL     1      -9.241  16.952  66.716  1.00  0.00    -0.247 A  
HETATM   18  N   UNL     1      -9.016  16.809  65.352  1.00  0.00     0.122 NA 
HETATM   19  H2  UNL     1      -8.022  16.966  65.186  1.00  0.00     0.000 HD 
HETATM   20  H1  UNL     1      -9.285  15.972  64.835  1.00  0.00     0.000 HD 
ENDBRANCH   3   5
TORSDOF 1
ENDMDL
MODEL      221
REMARK 921   NORMALIZED FREE ENERGY PREDICTED BY IDOCK:   17.62 KCAL/MOL
REMARK 922        TOTAL FREE ENERGY PREDICTED BY IDOCK:   18.41 KCAL/MOL
REMARK 923 INTER-LIGAND FREE ENERGY PREDICTED BY IDOCK:   14.42 KCAL/MOL
REMARK 924 INTRA-LIGAND FREE ENERGY PREDICTED BY IDOCK:    3.99 KCAL/MOL
REMARK 927      BINDING AFFINITY PREDICTED BY RF-SCORE:    0.00 PKD
ROOT
HETATM    1  C   UNL     1     -10.244  14.335  63.607  1.00  0.00     3.247 C  
HETATM    2  C   UNL     1      -9.351  14.004  64.806  1.00  0.00     1.453 C  
HETATM    3  C   UNL     1      -9.392  15.167  65.815  1.00  0.00    -0.172 C  
HETATM    4  C   UNL     1      -7.948  13.659  64.302  1.00  0.00    11.364 C  
ENDROOT
BRANCH   3   5
HETATM    5  N   UNL     1      -8.599  14.955  67.010  1.00  0.00    -0.226 NA 
HETATM    6  C   UNL     1      -8.299  15.977  67.876  1.00  0.00    -0.153 A  
HETATM    7  N   UNL     1      -7.652  15.552  68.930  1.00  0.00    -0.152 NA 
HETATM    8  C   UNL     1      -7.483  14.199  68.723  1.00  0.00    -0.129 A  
HETATM    9  C   UNL     1      -8.021  13.797  67.492  1.00  0.00    -0.181 A  
HETATM   10  C   UNL     1      -7.889  12.446  67.058  1.00  0.00    -0.086 A  
HETATM   11  C   UNL     1      -8.377  11.924  65.836  1.00  0.00     0.370 A  
HETATM   12  C   UNL     1      -8.170  10.588  65.501  1.00  0.00    -0.162 A  
HETATM   13  C   UNL     1      -7.475   9.762  66.372  1.00  0.00    -0.099 A  
HETATM   14  C   UNL     1      -7.000  10.273  67.583  1.00  0.00    -0.084 A  
HETATM   15  C   UNL     1      -7.192  11.596  67.952  1.00  0.00    -0.083 A  
HETATM   16  N   UNL     1      -6.704  11.983  69.142  1.00  0.00    -0.101 NA 
HETATM   17  C   UNL     1      -6.854  13.256  69.562  1.00  0.00     0.081 A  
HETATM   18  N   UNL     1      -6.348  13.586  70.814  1.00  0.00    -0.461 NA 
HETATM   19  H2  UNL     1      -7.105  14.015  71.348  1.00  0.00     0.000 HD 
HETATM   20  H1  UNL     1      -5.893  12.905  71.421  1.00  0.00     0.000 HD 
ENDBRANCH   3   5
TORSDOF 1
ENDMDL
MODEL      222
REMARK 921   NORMALIZED FREE ENERGY PREDICTED BY IDOCK:   23.56 KCAL/MOL
REMARK 922        TOTAL FREE ENERGY PREDICTED BY IDOCK:   24.70 KCAL/MOL
REMARK 923 INTER-LIGAND FREE ENERGY PREDICTED BY IDOCK:   24.70 KCAL/MOL
REMARK 924 INTRA-LIGAND FREE ENERGY PREDICTED BY IDOCK:    0.00 KCAL/MOL
REMARK 927      BINDING AFFINITY PREDICTED BY RF-SCORE:    0.00 PKD
ROOT
HETATM    1  C   UNL     1      -6.219  16.797  66.809  1.00  0.00    -0.187 C  
HETATM    2  C   UNL     1      -7.289  17.418  67.711  1.00  0.00    -0.184 C  
HETATM    3  C   UNL     1      -7.024  17.018  69.175  1.00  0.00    -0.228 C  
HETATM    4  C   UNL     1      -8.672  17.019  67.192  1.00  0.00    -0.226 C  
ENDROOT
BRANCH   3   5
HETATM    5  N   UNL     1      -7.963  17.571  70.130  1.00  0.00     1.977 NA 
HETATM    6  C   UNL     1      -7.699  18.724  70.828  1.00  0.00     3.312 A  
HETATM    7  N   UNL     1      -8.713  19.092  71.566  1.00  0.00     5.141 NA 
HETATM    8  C   UNL     1      -9.666  18.112  71.378  1.00  0.00     5.925 A  
HETATM    9  C   UNL     1      -9.203  17.105  70.520  1.00  0.00     3.452 A  
HETATM   10  C   UNL     1     -10.014  15.964  70.249  1.00  0.00     0.234 A  
HETATM   11  C   UNL     1      -9.654  14.881  69.412  1.00  0.00    -0.080 A  
HETATM   12  C   UNL     1     -10.517  13.801  69.238  1.00  0.00     0.040 A  
HETATM   13  C   UNL     1     -11.740  13.787  69.894  1.00  0.00    -0.353 A  
HETATM   14  C   UNL     1     -12.100  14.860  70.714  1.00  0.00    -0.377 A  
HETATM   15  C   UNL     1     -11.270  15.953  70.906  1.00  0.00    -0.351 A  
HETATM   16  N   UNL     1     -11.715  16.935  71.706  1.00  0.00     0.203 NA 
HETATM   17  C   UNL     1     -10.957  18.027  71.939  1.00  0.00     2.901 A  
HETATM   18  N   UNL     1     -11.487  19.019  72.755  1.00  0.00     3.500 NA 
HETATM   19  H2  UNL     1     -11.433  19.900  72.243  1.00  0.00     0.000 HD 
HETATM   20  H1  UNL     1     -12.421  18.958  73.161  1.00  0.00     0.000 HD 
ENDBRANCH   3   5
TORSDOF 1
ENDMDL
MODEL      223
REMARK 921   NORMALIZED FREE ENERGY PREDICTED BY IDOCK:   43.57 KCAL/MOL
REMARK 922        TOTAL FREE ENERGY PREDICTED BY IDOCK:   45.88 KCAL/MOL
REMARK 923 INTER-LIGAND FREE ENERGY PREDICTED BY IDOCK:   45.80 KCAL/MOL
REMARK 924 INTRA-LIGAND FREE ENERGY PREDICTED BY IDOCK:    0.08 KCAL/MOL
REMARK 927      BINDING AFFINITY PREDICTED BY RF-SCORE:    0.00 PKD
ROOT
HETATM    1  C   UNL     1     -10.371  17.581  73.596  1.00  0.00     6.437 C  
HETATM    2  C   UNL     1      -9.228  17.682  72.583  1.00  0.00    13.818 C  
HETATM    3  C   UNL     1      -9.576  16.860  71.328  1.00  0.00     5.375 C  
HETATM    4  C   UNL     1      -7.921  17.266  73.263  1.00  0.00    16.610 C  
ENDROOT
BRANCH   3   5
HETATM    5  N   UNL     1      -8.573  16.901  70.283  1.00  0.00     2.269 NA 
HETATM    6  C   UNL     1      -7.402  16.188  70.369  1.00  0.00     1.415 A  
HETATM    7  N   UNL     1      -6.682  16.297  69.283  1.00  0.00    -0.192 NA 
HETATM    8  C   UNL     1      -7.392  17.155  68.469  1.00  0.00    -0.231 A  
HETATM    9  C   UNL     1      -8.565  17.601  69.093  1.00  0.00     0.123 A  
HETATM   10  C   UNL     1      -9.408  18.549  68.443  1.00  0.00    -0.359 A  
HETATM   11  C   UNL     1     -10.608  19.081  68.973  1.00  0.00     0.387 A  
HETATM   12  C   UNL     1     -11.342  20.025  68.259  1.00  0.00     1.286 A  
HETATM   13  C   UNL     1     -10.891  20.451  67.018  1.00  0.00     0.341 A  
HETATM   14  C   UNL     1      -9.711  19.921  66.490  1.00  0.00    -0.547 A  
HETATM   15  C   UNL     1      -8.957  18.975  67.169  1.00  0.00    -0.287 A  
HETATM   16  N   UNL     1      -7.845  18.523  66.568  1.00  0.00    -0.249 NA 
HETATM   17  C   UNL     1      -7.064  17.605  67.173  1.00  0.00    -0.173 A  
HETATM   18  N   UNL     1      -5.941  17.159  66.486  1.00  0.00    -0.219 NA 
HETATM   19  H2  UNL     1      -5.983  16.140  66.455  1.00  0.00     0.000 HD 
HETATM   20  H1  UNL     1      -5.704  17.484  65.549  1.00  0.00     0.000 HD 
ENDBRANCH   3   5
TORSDOF 1
ENDMDL
MODEL      224
REMARK 921   NORMALIZED FREE ENERGY PREDICTED BY IDOCK:   44.37 KCAL/MOL
REMARK 922        TOTAL FREE ENERGY PREDICTED BY IDOCK:   46.72 KCAL/MOL
REMARK 923 INTER-LIGAND FREE ENERGY PREDICTED BY IDOCK:   47.13 KCAL/MOL
REMARK 924 INTRA-LIGAND FREE ENERGY PREDICTED BY IDOCK:   -0.40 KCAL/MOL
REMARK 927      BINDING AFFINITY PREDICTED BY RF-SCORE:    0.00 PKD
ROOT
HETATM    1  C   UNL     1      -6.510  16.838  66.656  1.00  0.00    -0.176 C  
HETATM    2  C   UNL     1      -7.787  17.625  66.349  1.00  0.00    -0.318 C  
HETATM    3  C   UNL     1      -8.638  17.746  67.629  1.00  0.00    -0.230 C  
HETATM    4  C   UNL     1      -8.511  16.962  65.175  1.00  0.00     2.704 C  
ENDROOT
BRANCH   3   5
HETATM    5  N   UNL     1      -9.866  18.497  67.466  1.00  0.00    -0.300 NA 
HETATM    6  C   UNL     1      -9.869  19.857  67.272  1.00  0.00    -0.403 A  
HETATM    7  N   UNL     1     -11.073  20.319  67.061  1.00  0.00     0.362 NA 
HETATM    8  C   UNL     1     -11.900  19.220  67.166  1.00  0.00     1.854 A  
HETATM    9  C   UNL     1     -11.176  18.061  67.477  1.00  0.00     0.327 A  
HETATM   10  C   UNL     1     -11.856  16.827  67.696  1.00  0.00     0.968 A  
HETATM   11  C   UNL     1     -11.239  15.596  68.026  1.00  0.00    -0.339 A  
HETATM   12  C   UNL     1     -12.005  14.454  68.243  1.00  0.00    -0.323 A  
HETATM   13  C   UNL     1     -13.387  14.523  68.137  1.00  0.00     4.063 A  
HETATM   14  C   UNL     1     -13.997  15.735  67.804  1.00  0.00     8.615 A  
HETATM   15  C   UNL     1     -13.267  16.891  67.575  1.00  0.00     6.362 A  
HETATM   16  N   UNL     1     -13.950  18.001  67.250  1.00  0.00     9.191 NA 
HETATM   17  C   UNL     1     -13.302  19.161  67.017  1.00  0.00     8.546 A  
HETATM   18  N   UNL     1     -14.065  20.266  66.659  1.00  0.00     6.225 NA 
HETATM   19  H2  UNL     1     -13.680  20.638  65.791  1.00  0.00     0.000 HD 
HETATM   20  H1  UNL     1     -15.078  20.224  66.552  1.00  0.00     0.000 HD 
ENDBRANCH   3   5
TORSDOF 1
ENDMDL
