MODEL        1
REMARK 921   NORMALIZED FREE ENERGY PREDICTED BY IDOCK:   -7.08 KCAL/MOL
REMARK 922        TOTAL FREE ENERGY PREDICTED BY IDOCK:   -8.99 KCAL/MOL
REMARK 923 INTER-LIGAND FREE ENERGY PREDICTED BY IDOCK:   -8.33 KCAL/MOL
REMARK 924 INTRA-LIGAND FREE ENERGY PREDICTED BY IDOCK:   -0.66 KCAL/MOL
REMARK 927      BINDING AFFINITY PREDICTED BY RF-SCORE:    0.00 PKD
ROOT
HETATM    1  C   UNL     1     -13.164   9.964  70.979  1.00  0.00    -0.375 C  
HETATM    2  C   UNL     1     -11.784   9.469  71.410  1.00  0.00    -0.393 A  
HETATM    3  C   UNL     1     -11.888   8.419  72.551  1.00  0.00    -0.427 A  
HETATM    4  C   UNL     1     -11.333   7.182  71.916  1.00  0.00    -0.294 A  
HETATM    5  C   UNL     1     -11.187   5.926  72.485  1.00  0.00    -0.341 A  
HETATM    6  C   UNL     1     -10.621   4.915  71.708  1.00  0.00    -0.164 A  
HETATM    7  C   UNL     1     -10.233   5.170  70.383  1.00  0.00    -0.334 A  
HETATM    8  C   UNL     1     -10.380   6.448  69.828  1.00  0.00    -0.246 A  
HETATM    9  C   UNL     1     -10.911   7.460  70.612  1.00  0.00    -0.256 A  
HETATM   10  N   UNL     1     -11.032   8.823  70.318  1.00  0.00    -0.239 NA 
ENDROOT
BRANCH  10  11
HETATM   11  N   UNL     1     -11.099   9.247  69.004  1.00  0.00    -0.445 N  
HETATM   12  C   UNL     1     -10.067  10.046  68.526  1.00  0.00    -0.169 C  
HETATM   13  H   UNL     1     -11.881   8.982  68.405  1.00  0.00     0.000 HD 
HETATM   14  O   UNL     1      -9.034  10.316  69.132  1.00  0.00    -0.160 OA 
BRANCH  12  15
HETATM   15  C   UNL     1     -10.322  10.690  67.208  1.00  0.00    -0.265 A  
HETATM   16  C   UNL     1     -10.934  11.952  67.186  1.00  0.00    -0.319 A  
HETATM   17  C   UNL     1     -11.314  12.529  65.963  1.00  0.00    -0.344 A  
HETATM   18  C   UNL     1     -11.061  11.860  64.763  1.00  0.00    -0.311 A  
HETATM   19  C   UNL     1     -10.013  10.051  66.005  1.00  0.00    -0.334 A  
HETATM   20 CL   UNL     1     -11.550  12.433  63.210  1.00  0.00    -0.500 Cl 
HETATM   21  C   UNL     1     -10.387  10.632  64.789  1.00  0.00    -0.353 A  
BRANCH  17  22
HETATM   22  S   UNL     1     -12.166  14.073  65.995  1.00  0.00    -0.452 S  
HETATM   23  O   UNL     1     -13.521  13.874  65.532  1.00  0.00    -0.657 OA 
HETATM   24  N   UNL     1     -12.323  14.404  67.631  1.00  0.00    -0.601 N  
HETATM   25  H1  UNL     1     -12.816  15.298  67.649  1.00  0.00     0.000 HD 
HETATM   26  O   UNL     1     -11.312  15.090  65.429  1.00  0.00    -0.347 OA 
HETATM   27  H2  UNL     1     -12.002  13.846  68.421  1.00  0.00     0.000 HD 
ENDBRANCH  17  22
ENDBRANCH  12  15
ENDBRANCH  10  11
TORSDOF 3
ENDMDL
MODEL        2
REMARK 921   NORMALIZED FREE ENERGY PREDICTED BY IDOCK:   -7.05 KCAL/MOL
REMARK 922        TOTAL FREE ENERGY PREDICTED BY IDOCK:   -8.95 KCAL/MOL
REMARK 923 INTER-LIGAND FREE ENERGY PREDICTED BY IDOCK:   -8.31 KCAL/MOL
REMARK 924 INTRA-LIGAND FREE ENERGY PREDICTED BY IDOCK:   -0.63 KCAL/MOL
REMARK 927      BINDING AFFINITY PREDICTED BY RF-SCORE:    0.00 PKD
ROOT
HETATM    1  C   UNL     1     -13.354   9.716  71.745  1.00  0.00    -0.505 C  
HETATM    2  C   UNL     1     -11.885   9.300  71.805  1.00  0.00    -0.384 A  
HETATM    3  C   UNL     1     -11.703   7.975  72.596  1.00  0.00    -0.418 A  
HETATM    4  C   UNL     1     -11.173   7.037  71.556  1.00  0.00    -0.279 A  
HETATM    5  C   UNL     1     -10.831   5.702  71.710  1.00  0.00    -0.301 A  
HETATM    6  C   UNL     1     -10.334   5.020  70.599  1.00  0.00    -0.278 A  
HETATM    7  C   UNL     1     -10.208   5.672  69.363  1.00  0.00    -0.315 A  
HETATM    8  C   UNL     1     -10.551   7.024  69.229  1.00  0.00    -0.240 A  
HETATM    9  C   UNL     1     -11.013   7.709  70.341  1.00  0.00    -0.247 A  
HETATM   10  N   UNL     1     -11.290   9.075  70.475  1.00  0.00    -0.259 NA 
ENDROOT
BRANCH  10  11
HETATM   11  N   UNL     1     -11.622   9.828  69.365  1.00  0.00    -0.449 N  
HETATM   12  C   UNL     1     -10.693  10.755  68.907  1.00  0.00    -0.222 C  
HETATM   13  H   UNL     1     -12.521   9.707  68.896  1.00  0.00     0.000 HD 
HETATM   14  O   UNL     1      -9.549  10.887  69.330  1.00  0.00    -0.158 OA 
BRANCH  12  15
HETATM   15  C   UNL     1     -11.204  11.716  67.891  1.00  0.00    -0.334 A  
HETATM   16  C   UNL     1     -11.091  11.380  66.535  1.00  0.00    -0.312 A  
HETATM   17  C   UNL     1     -11.434  12.317  65.546  1.00  0.00    -0.361 A  
HETATM   18  C   UNL     1     -11.915  13.578  65.911  1.00  0.00    -0.406 A  
HETATM   19  C   UNL     1     -11.744  12.953  68.255  1.00  0.00    -0.390 A  
HETATM   20 CL   UNL     1     -12.295  14.833  64.789  1.00  0.00    -0.366 Cl 
HETATM   21  C   UNL     1     -12.091  13.880  67.266  1.00  0.00    -0.403 A  
BRANCH  17  22
HETATM   22  S   UNL     1     -11.183  11.881  63.855  1.00  0.00    -0.449 S  
HETATM   23  O   UNL     1     -10.139  12.714  63.304  1.00  0.00    -0.300 OA 
HETATM   24  N   UNL     1     -10.503  10.350  63.939  1.00  0.00    -0.393 N  
HETATM   25  H1  UNL     1     -10.358  10.098  62.961  1.00  0.00     0.000 HD 
HETATM   26  O   UNL     1     -12.468  11.747  63.212  1.00  0.00    -0.543 OA 
HETATM   27  H2  UNL     1     -10.286   9.801  64.770  1.00  0.00     0.000 HD 
ENDBRANCH  17  22
ENDBRANCH  12  15
ENDBRANCH  10  11
TORSDOF 3
ENDMDL
MODEL        3
REMARK 921   NORMALIZED FREE ENERGY PREDICTED BY IDOCK:   -7.00 KCAL/MOL
REMARK 922        TOTAL FREE ENERGY PREDICTED BY IDOCK:   -8.89 KCAL/MOL
REMARK 923 INTER-LIGAND FREE ENERGY PREDICTED BY IDOCK:   -8.41 KCAL/MOL
REMARK 924 INTRA-LIGAND FREE ENERGY PREDICTED BY IDOCK:   -0.48 KCAL/MOL
REMARK 927      BINDING AFFINITY PREDICTED BY RF-SCORE:    0.00 PKD
ROOT
HETATM    1  C   UNL     1     -10.974  19.307  66.653  1.00  0.00    -0.285 C  
HETATM    2  C   UNL     1      -9.547  18.779  66.515  1.00  0.00    -0.348 A  
HETATM    3  C   UNL     1      -8.559  19.911  66.115  1.00  0.00    -0.348 A  
HETATM    4  C   UNL     1      -7.643  19.986  67.297  1.00  0.00    -0.321 A  
HETATM    5  C   UNL     1      -6.563  20.834  67.483  1.00  0.00    -0.390 A  
HETATM    6  C   UNL     1      -5.829  20.714  68.664  1.00  0.00    -0.376 A  
HETATM    7  C   UNL     1      -6.197  19.771  69.636  1.00  0.00    -0.365 A  
HETATM    8  C   UNL     1      -7.287  18.916  69.426  1.00  0.00    -0.087 A  
HETATM    9  C   UNL     1      -7.994  19.013  68.238  1.00  0.00    -0.315 A  
HETATM   10  N   UNL     1      -9.022  18.191  67.762  1.00  0.00    -0.260 NA 
ENDROOT
BRANCH  10  11
HETATM   11  N   UNL     1      -9.808  17.478  68.647  1.00  0.00    -0.322 N  
HETATM   12  C   UNL     1      -9.624  16.103  68.717  1.00  0.00    -0.235 C  
HETATM   13  H   UNL     1     -10.502  17.947  69.230  1.00  0.00     0.000 HD 
HETATM   14  O   UNL     1      -8.739  15.471  68.147  1.00  0.00    -0.161 OA 
BRANCH  12  15
HETATM   15  C   UNL     1     -10.669  15.360  69.475  1.00  0.00    -0.269 A  
HETATM   16  C   UNL     1     -11.079  15.863  70.717  1.00  0.00    -0.352 A  
HETATM   17  C   UNL     1     -11.959  15.120  71.522  1.00  0.00    -0.360 A  
HETATM   18  C   UNL     1     -12.450  13.890  71.075  1.00  0.00    -0.377 A  
HETATM   19  C   UNL     1     -11.208  14.161  69.001  1.00  0.00    -0.303 A  
HETATM   20 CL   UNL     1     -13.473  12.857  72.005  1.00  0.00    -0.598 Cl 
HETATM   21  C   UNL     1     -12.090  13.429  69.803  1.00  0.00    -0.374 A  
BRANCH  17  22
HETATM   22  S   UNL     1     -12.370  15.750  73.118  1.00  0.00    -0.542 S  
HETATM   23  O   UNL     1     -11.839  17.088  73.247  1.00  0.00    -0.267 OA 
HETATM   24  N   UNL     1     -14.032  15.961  73.044  1.00  0.00    -0.649 N  
HETATM   25  H1  UNL     1     -14.269  16.325  73.967  1.00  0.00     0.000 HD 
HETATM   26  O   UNL     1     -12.108  14.730  74.104  1.00  0.00    -0.510 OA 
HETATM   27  H2  UNL     1     -14.658  15.769  72.262  1.00  0.00     0.000 HD 
ENDBRANCH  17  22
ENDBRANCH  12  15
ENDBRANCH  10  11
TORSDOF 3
ENDMDL
MODEL        4
REMARK 921   NORMALIZED FREE ENERGY PREDICTED BY IDOCK:   -6.95 KCAL/MOL
REMARK 922        TOTAL FREE ENERGY PREDICTED BY IDOCK:   -8.84 KCAL/MOL
REMARK 923 INTER-LIGAND FREE ENERGY PREDICTED BY IDOCK:   -8.22 KCAL/MOL
REMARK 924 INTRA-LIGAND FREE ENERGY PREDICTED BY IDOCK:   -0.62 KCAL/MOL
REMARK 927      BINDING AFFINITY PREDICTED BY RF-SCORE:    0.00 PKD
ROOT
HETATM    1  C   UNL     1     -11.256   9.705  71.373  1.00  0.00    -0.426 C  
HETATM    2  C   UNL     1     -12.404  10.547  70.818  1.00  0.00    -0.378 A  
HETATM    3  C   UNL     1     -13.268  11.150  71.959  1.00  0.00    -0.428 A  
HETATM    4  C   UNL     1     -13.066  12.624  71.786  1.00  0.00    -0.461 A  
HETATM    5  C   UNL     1     -13.608  13.652  72.542  1.00  0.00    -0.675 A  
HETATM    6  C   UNL     1     -13.298  14.964  72.184  1.00  0.00    -0.473 A  
HETATM    7  C   UNL     1     -12.445  15.222  71.101  1.00  0.00    -0.438 A  
HETATM    8  C   UNL     1     -11.913  14.170  70.343  1.00  0.00    -0.400 A  
HETATM    9  C   UNL     1     -12.249  12.869  70.678  1.00  0.00    -0.302 A  
HETATM   10  N   UNL     1     -11.947  11.684  69.998  1.00  0.00    -0.340 NA 
ENDROOT
BRANCH  10  11
HETATM   11  N   UNL     1     -10.839  11.619  69.173  1.00  0.00    -0.330 N  
HETATM   12  C   UNL     1     -11.051  11.618  67.800  1.00  0.00    -0.249 C  
HETATM   13  H   UNL     1      -9.896  11.574  69.561  1.00  0.00     0.000 HD 
HETATM   14  O   UNL     1     -12.132  11.788  67.244  1.00  0.00    -0.595 OA 
BRANCH  12  15
HETATM   15  C   UNL     1      -9.859  11.277  66.974  1.00  0.00    -0.217 A  
HETATM   16  C   UNL     1      -9.998  11.242  65.580  1.00  0.00    -0.293 A  
HETATM   17  C   UNL     1      -8.936  10.792  64.777  1.00  0.00    -0.178 A  
HETATM   18  C   UNL     1      -7.729  10.402  65.365  1.00  0.00    -0.136 A  
HETATM   19  C   UNL     1      -8.632  10.947  67.556  1.00  0.00    -0.127 A  
HETATM   20 CL   UNL     1      -6.386   9.762  64.490  1.00  0.00    -0.103 Cl 
HETATM   21  C   UNL     1      -7.575  10.506  66.752  1.00  0.00    -0.115 A  
BRANCH  17  22
HETATM   22  S   UNL     1      -9.193  10.676  63.036  1.00  0.00    -0.336 S  
HETATM   23  O   UNL     1      -9.134   9.286  62.642  1.00  0.00    -0.222 OA 
HETATM   24  N   UNL     1     -10.804  11.101  62.845  1.00  0.00    -0.806 N  
HETATM   25  H1  UNL     1     -10.952  11.034  61.837  1.00  0.00     0.000 HD 
HETATM   26  O   UNL     1      -8.399  11.686  62.378  1.00  0.00    -0.191 OA 
HETATM   27  H2  UNL     1     -11.476  11.365  63.565  1.00  0.00     0.000 HD 
ENDBRANCH  17  22
ENDBRANCH  12  15
ENDBRANCH  10  11
TORSDOF 3
ENDMDL
MODEL        5
REMARK 921   NORMALIZED FREE ENERGY PREDICTED BY IDOCK:   -6.94 KCAL/MOL
REMARK 922        TOTAL FREE ENERGY PREDICTED BY IDOCK:   -8.81 KCAL/MOL
REMARK 923 INTER-LIGAND FREE ENERGY PREDICTED BY IDOCK:   -8.30 KCAL/MOL
REMARK 924 INTRA-LIGAND FREE ENERGY PREDICTED BY IDOCK:   -0.52 KCAL/MOL
REMARK 927      BINDING AFFINITY PREDICTED BY RF-SCORE:    0.00 PKD
ROOT
HETATM    1  C   UNL     1      -8.478  10.279  69.725  1.00  0.00    -0.082 C  
HETATM    2  C   UNL     1      -9.808   9.686  69.261  1.00  0.00    -0.189 A  
HETATM    3  C   UNL     1     -10.030   8.264  69.845  1.00  0.00    -0.190 A  
HETATM    4  C   UNL     1     -11.242   8.443  70.707  1.00  0.00    -0.290 A  
HETATM    5  C   UNL     1     -11.887   7.487  71.476  1.00  0.00    -0.324 A  
HETATM    6  C   UNL     1     -13.022   7.876  72.189  1.00  0.00    -0.200 A  
HETATM    7  C   UNL     1     -13.474   9.203  72.137  1.00  0.00    -0.530 A  
HETATM    8  C   UNL     1     -12.813  10.153  71.347  1.00  0.00    -0.530 A  
HETATM    9  C   UNL     1     -11.707   9.758  70.612  1.00  0.00    -0.300 A  
HETATM   10  N   UNL     1     -10.976  10.489  69.669  1.00  0.00    -0.264 NA 
ENDROOT
BRANCH  10  11
HETATM   11  N   UNL     1     -10.957  11.870  69.723  1.00  0.00    -0.462 N  
HETATM   12  C   UNL     1     -11.582  12.570  68.697  1.00  0.00    -0.314 C  
HETATM   13  H   UNL     1     -10.500  12.361  70.492  1.00  0.00     0.000 HD 
HETATM   14  O   UNL     1     -12.256  12.070  67.800  1.00  0.00    -0.474 OA 
BRANCH  12  15
HETATM   15  C   UNL     1     -11.300  14.031  68.662  1.00  0.00    -0.307 A  
HETATM   16  C   UNL     1     -10.930  14.613  67.441  1.00  0.00    -0.309 A  
HETATM   17  C   UNL     1     -10.524  15.957  67.395  1.00  0.00    -0.306 A  
HETATM   18  C   UNL     1     -10.514  16.726  68.562  1.00  0.00    -0.335 A  
HETATM   19  C   UNL     1     -11.349  14.817  69.816  1.00  0.00    -0.319 A  
HETATM   20 CL   UNL     1      -9.964  18.361  68.642  1.00  0.00    -0.399 Cl 
HETATM   21  C   UNL     1     -10.951  16.157  69.764  1.00  0.00    -0.349 A  
BRANCH  17  22
HETATM   22  S   UNL     1      -9.977  16.615  65.853  1.00  0.00    -0.257 S  
HETATM   23  O   UNL     1      -8.541  16.475  65.764  1.00  0.00    -0.442 OA 
HETATM   24  N   UNL     1     -10.579  15.531  64.725  1.00  0.00    -0.540 N  
HETATM   25  H1  UNL     1     -10.262  15.912  63.832  1.00  0.00     0.000 HD 
HETATM   26  O   UNL     1     -10.632  17.881  65.627  1.00  0.00    -0.587 OA 
HETATM   27  H2  UNL     1     -11.131  14.690  64.891  1.00  0.00     0.000 HD 
ENDBRANCH  17  22
ENDBRANCH  12  15
ENDBRANCH  10  11
TORSDOF 3
ENDMDL
MODEL        6
REMARK 921   NORMALIZED FREE ENERGY PREDICTED BY IDOCK:   -6.89 KCAL/MOL
REMARK 922        TOTAL FREE ENERGY PREDICTED BY IDOCK:   -8.75 KCAL/MOL
REMARK 923 INTER-LIGAND FREE ENERGY PREDICTED BY IDOCK:   -8.18 KCAL/MOL
REMARK 924 INTRA-LIGAND FREE ENERGY PREDICTED BY IDOCK:   -0.58 KCAL/MOL
REMARK 927      BINDING AFFINITY PREDICTED BY RF-SCORE:    0.00 PKD
ROOT
HETATM    1  C   UNL     1      -9.900   7.563  68.290  1.00  0.00    -0.177 C  
HETATM    2  C   UNL     1     -11.006   7.140  69.256  1.00  0.00    -0.136 A  
HETATM    3  C   UNL     1     -10.715   5.744  69.874  1.00  0.00    -0.412 A  
HETATM    4  C   UNL     1     -10.559   6.051  71.332  1.00  0.00    -0.300 A  
HETATM    5  C   UNL     1     -10.284   5.166  72.363  1.00  0.00    -0.249 A  
HETATM    6  C   UNL     1     -10.203   5.674  73.659  1.00  0.00    -0.232 A  
HETATM    7  C   UNL     1     -10.375   7.046  73.897  1.00  0.00    -0.386 A  
HETATM    8  C   UNL     1     -10.660   7.924  72.843  1.00  0.00    -0.434 A  
HETATM    9  C   UNL     1     -10.775   7.414  71.560  1.00  0.00    -0.222 A  
HETATM   10  N   UNL     1     -11.174   8.069  70.389  1.00  0.00    -0.258 NA 
ENDROOT
BRANCH  10  11
HETATM   11  N   UNL     1     -11.016   9.437  70.271  1.00  0.00    -0.249 N  
HETATM   12  C   UNL     1     -12.143  10.236  70.420  1.00  0.00    -0.286 C  
HETATM   13  H   UNL     1     -10.101   9.847  70.079  1.00  0.00     0.000 HD 
HETATM   14  O   UNL     1     -13.253   9.846  70.768  1.00  0.00    -0.308 OA 
BRANCH  12  15
HETATM   15  C   UNL     1     -11.969  11.659  70.018  1.00  0.00    -0.429 A  
HETATM   16  C   UNL     1     -12.370  12.662  70.912  1.00  0.00    -0.352 A  
HETATM   17  C   UNL     1     -12.350  14.009  70.515  1.00  0.00    -0.367 A  
HETATM   18  C   UNL     1     -11.904  14.357  69.236  1.00  0.00    -0.325 A  
HETATM   19  C   UNL     1     -11.465  12.012  68.764  1.00  0.00    -0.355 A  
HETATM   20 CL   UNL     1     -11.906  15.966  68.612  1.00  0.00    -0.344 Cl 
HETATM   21  C   UNL     1     -11.440  13.356  68.375  1.00  0.00    -0.351 A  
BRANCH  17  22
HETATM   22  S   UNL     1     -12.955  15.224  71.641  1.00  0.00    -0.447 S  
HETATM   23  O   UNL     1     -14.304  15.583  71.268  1.00  0.00    -0.536 OA 
HETATM   24  N   UNL     1     -13.125  14.379  73.080  1.00  0.00    -0.526 N  
HETATM   25  H1  UNL     1     -13.474  15.082  73.732  1.00  0.00     0.000 HD 
HETATM   26  O   UNL     1     -11.932  16.222  71.846  1.00  0.00    -0.494 OA 
HETATM   27  H2  UNL     1     -12.925  13.396  73.261  1.00  0.00     0.000 HD 
ENDBRANCH  17  22
ENDBRANCH  12  15
ENDBRANCH  10  11
TORSDOF 3
ENDMDL
MODEL        7
REMARK 921   NORMALIZED FREE ENERGY PREDICTED BY IDOCK:   -6.87 KCAL/MOL
REMARK 922        TOTAL FREE ENERGY PREDICTED BY IDOCK:   -8.74 KCAL/MOL
REMARK 923 INTER-LIGAND FREE ENERGY PREDICTED BY IDOCK:   -8.29 KCAL/MOL
REMARK 924 INTRA-LIGAND FREE ENERGY PREDICTED BY IDOCK:   -0.45 KCAL/MOL
REMARK 927      BINDING AFFINITY PREDICTED BY RF-SCORE:    0.00 PKD
ROOT
HETATM    1  C   UNL     1     -10.289   7.611  68.839  1.00  0.00    -0.222 C  
HETATM    2  C   UNL     1     -11.233   6.950  69.842  1.00  0.00    -0.285 A  
HETATM    3  C   UNL     1     -10.704   5.557  70.284  1.00  0.00    -0.333 A  
HETATM    4  C   UNL     1     -10.452   5.745  71.748  1.00  0.00    -0.281 A  
HETATM    5  C   UNL     1      -9.968   4.815  72.655  1.00  0.00    -0.211 A  
HETATM    6  C   UNL     1      -9.831   5.206  73.987  1.00  0.00    -0.182 A  
HETATM    7  C   UNL     1     -10.158   6.513  74.381  1.00  0.00    -0.371 A  
HETATM    8  C   UNL     1     -10.654   7.437  73.452  1.00  0.00    -0.427 A  
HETATM    9  C   UNL     1     -10.823   7.037  72.136  1.00  0.00    -0.224 A  
HETATM   10  N   UNL     1     -11.413   7.736  71.077  1.00  0.00    -0.279 NA 
ENDROOT
BRANCH  10  11
HETATM   11  N   UNL     1     -11.448   9.118  71.090  1.00  0.00    -0.293 N  
HETATM   12  C   UNL     1     -12.609   9.734  71.540  1.00  0.00    -0.398 C  
HETATM   13  H   UNL     1     -10.646   9.668  70.780  1.00  0.00     0.000 HD 
HETATM   14  O   UNL     1     -13.573   9.161  72.041  1.00  0.00    -0.400 OA 
BRANCH  12  15
HETATM   15  C   UNL     1     -12.692  11.197  71.280  1.00  0.00    -0.531 A  
HETATM   16  C   UNL     1     -12.047  11.715  70.149  1.00  0.00    -0.414 A  
HETATM   17  C   UNL     1     -11.987  13.104  69.945  1.00  0.00    -0.317 A  
HETATM   18  C   UNL     1     -12.594  13.973  70.856  1.00  0.00    -0.361 A  
HETATM   19  C   UNL     1     -13.352  12.063  72.156  1.00  0.00    -0.396 A  
HETATM   20 CL   UNL     1     -12.520  15.694  70.751  1.00  0.00    -0.475 Cl 
HETATM   21  C   UNL     1     -13.296  13.445  71.946  1.00  0.00    -0.539 A  
BRANCH  17  22
HETATM   22  S   UNL     1     -11.081  13.709  68.558  1.00  0.00    -0.290 S  
HETATM   23  O   UNL     1     -10.736  12.598  67.700  1.00  0.00    -0.213 OA 
HETATM   24  N   UNL     1     -12.222  14.577  67.688  1.00  0.00    -0.614 N  
HETATM   25  H1  UNL     1     -11.697  14.927  66.886  1.00  0.00     0.000 HD 
HETATM   26  O   UNL     1     -10.087  14.647  69.022  1.00  0.00    -0.229 OA 
HETATM   27  H2  UNL     1     -13.207  14.721  67.910  1.00  0.00     0.000 HD 
ENDBRANCH  17  22
ENDBRANCH  12  15
ENDBRANCH  10  11
TORSDOF 3
ENDMDL
MODEL        8
REMARK 921   NORMALIZED FREE ENERGY PREDICTED BY IDOCK:   -6.85 KCAL/MOL
REMARK 922        TOTAL FREE ENERGY PREDICTED BY IDOCK:   -8.71 KCAL/MOL
REMARK 923 INTER-LIGAND FREE ENERGY PREDICTED BY IDOCK:   -8.03 KCAL/MOL
REMARK 924 INTRA-LIGAND FREE ENERGY PREDICTED BY IDOCK:   -0.68 KCAL/MOL
REMARK 927      BINDING AFFINITY PREDICTED BY RF-SCORE:    0.00 PKD
ROOT
HETATM    1  C   UNL     1     -10.907  17.965  68.189  1.00  0.00    -0.178 C  
HETATM    2  C   UNL     1     -10.423  18.606  66.889  1.00  0.00    -0.402 A  
HETATM    3  C   UNL     1      -9.752  19.983  67.152  1.00  0.00    -0.545 A  
HETATM    4  C   UNL     1      -8.338  19.754  66.715  1.00  0.00    -0.354 A  
HETATM    5  C   UNL     1      -7.286  20.656  66.731  1.00  0.00    -0.294 A  
HETATM    6  C   UNL     1      -6.048  20.229  66.252  1.00  0.00    -0.207 A  
HETATM    7  C   UNL     1      -5.880  18.915  65.790  1.00  0.00    -0.207 A  
HETATM    8  C   UNL     1      -6.957  18.019  65.773  1.00  0.00    -0.266 A  
HETATM    9  C   UNL     1      -8.196  18.455  66.217  1.00  0.00    -0.219 A  
HETATM   10  N   UNL     1      -9.425  17.789  66.174  1.00  0.00    -0.501 NA 
ENDROOT
BRANCH  10  11
HETATM   11  N   UNL     1      -9.466  16.407  66.145  1.00  0.00    -0.315 N  
HETATM   12  C   UNL     1     -10.308  15.802  65.219  1.00  0.00    -0.357 C  
HETATM   13  H   UNL     1      -8.896  15.850  66.782  1.00  0.00     0.000 HD 
HETATM   14  O   UNL     1     -10.936  16.382  64.339  1.00  0.00    -0.798 OA 
BRANCH  12  15
HETATM   15  C   UNL     1     -10.516  14.340  65.412  1.00  0.00    -0.382 A  
HETATM   16  C   UNL     1     -10.695  13.855  66.716  1.00  0.00    -0.281 A  
HETATM   17  C   UNL     1     -10.756  12.471  66.950  1.00  0.00    -0.243 A  
HETATM   18  C   UNL     1     -10.666  11.574  65.882  1.00  0.00    -0.272 A  
HETATM   19  C   UNL     1     -10.489  13.446  64.339  1.00  0.00    -0.403 A  
HETATM   20 CL   UNL     1     -10.653   9.857  66.056  1.00  0.00    -0.101 Cl 
HETATM   21  C   UNL     1     -10.558  12.069  64.577  1.00  0.00    -0.356 A  
BRANCH  17  22
HETATM   22  S   UNL     1     -10.885  11.909  68.617  1.00  0.00    -0.245 S  
HETATM   23  O   UNL     1      -9.618  11.346  69.024  1.00  0.00    -0.120 OA 
HETATM   24  N   UNL     1     -11.022  13.326  69.503  1.00  0.00    -0.459 N  
HETATM   25  H1  UNL     1     -11.096  13.001  70.467  1.00  0.00     0.000 HD 
HETATM   26  O   UNL     1     -12.124  11.184  68.771  1.00  0.00    -0.522 OA 
HETATM   27  H2  UNL     1     -11.029  14.286  69.159  1.00  0.00     0.000 HD 
ENDBRANCH  17  22
ENDBRANCH  12  15
ENDBRANCH  10  11
TORSDOF 3
ENDMDL
MODEL        9
REMARK 921   NORMALIZED FREE ENERGY PREDICTED BY IDOCK:   -6.79 KCAL/MOL
REMARK 922        TOTAL FREE ENERGY PREDICTED BY IDOCK:   -8.64 KCAL/MOL
REMARK 923 INTER-LIGAND FREE ENERGY PREDICTED BY IDOCK:   -8.00 KCAL/MOL
REMARK 924 INTRA-LIGAND FREE ENERGY PREDICTED BY IDOCK:   -0.64 KCAL/MOL
REMARK 927      BINDING AFFINITY PREDICTED BY RF-SCORE:    0.00 PKD
ROOT
HETATM    1  C   UNL     1     -10.279   7.643  68.672  1.00  0.00    -0.214 C  
HETATM    2  C   UNL     1     -11.246   6.954  69.635  1.00  0.00    -0.242 A  
HETATM    3  C   UNL     1     -10.726   5.551  70.053  1.00  0.00    -0.356 A  
HETATM    4  C   UNL     1     -10.509   5.701  71.527  1.00  0.00    -0.298 A  
HETATM    5  C   UNL     1     -10.045   4.748  72.420  1.00  0.00    -0.235 A  
HETATM    6  C   UNL     1      -9.941   5.105  73.765  1.00  0.00    -0.194 A  
HETATM    7  C   UNL     1     -10.279   6.400  74.185  1.00  0.00    -0.361 A  
HETATM    8  C   UNL     1     -10.755   7.347  73.268  1.00  0.00    -0.441 A  
HETATM    9  C   UNL     1     -10.891   6.982  71.939  1.00  0.00    -0.224 A  
HETATM   10  N   UNL     1     -11.457   7.708  70.885  1.00  0.00    -0.280 NA 
ENDROOT
BRANCH  10  11
HETATM   11  N   UNL     1     -11.495   9.089  70.934  1.00  0.00    -0.281 N  
HETATM   12  C   UNL     1     -12.676   9.692  71.350  1.00  0.00    -0.374 C  
HETATM   13  H   UNL     1     -10.682   9.647  70.672  1.00  0.00     0.000 HD 
HETATM   14  O   UNL     1     -13.658   9.106  71.794  1.00  0.00    -0.379 OA 
BRANCH  12  15
HETATM   15  C   UNL     1     -12.750  11.162  71.126  1.00  0.00    -0.510 A  
HETATM   16  C   UNL     1     -12.105  11.702  70.005  1.00  0.00    -0.395 A  
HETATM   17  C   UNL     1     -12.037  13.095  69.834  1.00  0.00    -0.287 A  
HETATM   18  C   UNL     1     -12.635  13.946  70.768  1.00  0.00    -0.354 A  
HETATM   19  C   UNL     1     -13.401  12.011  72.025  1.00  0.00    -0.447 A  
HETATM   20 CL   UNL     1     -12.551  15.669  70.705  1.00  0.00    -0.477 Cl 
HETATM   21  C   UNL     1     -13.337  13.396  71.848  1.00  0.00    -0.539 A  
BRANCH  17  22
HETATM   22  S   UNL     1     -11.132  13.728  68.459  1.00  0.00    -0.281 S  
HETATM   23  O   UNL     1      -9.999  14.481  68.946  1.00  0.00    -0.228 OA 
HETATM   24  N   UNL     1     -10.461  12.357  67.763  1.00  0.00    -0.214 N  
HETATM   25  H1  UNL     1      -9.938  12.723  66.967  1.00  0.00     0.000 HD 
HETATM   26  O   UNL     1     -12.061  14.285  67.505  1.00  0.00    -0.385 OA 
HETATM   27  H2  UNL     1     -10.555  11.387  68.064  1.00  0.00     0.000 HD 
ENDBRANCH  17  22
ENDBRANCH  12  15
ENDBRANCH  10  11
TORSDOF 3
ENDMDL
MODEL       10
REMARK 921   NORMALIZED FREE ENERGY PREDICTED BY IDOCK:   -6.75 KCAL/MOL
REMARK 922        TOTAL FREE ENERGY PREDICTED BY IDOCK:   -8.60 KCAL/MOL
REMARK 923 INTER-LIGAND FREE ENERGY PREDICTED BY IDOCK:   -8.09 KCAL/MOL
REMARK 924 INTRA-LIGAND FREE ENERGY PREDICTED BY IDOCK:   -0.51 KCAL/MOL
REMARK 927      BINDING AFFINITY PREDICTED BY RF-SCORE:    0.00 PKD
ROOT
HETATM    1  C   UNL     1      -9.687  19.824  66.543  1.00  0.00    -0.529 C  
HETATM    2  C   UNL     1      -8.173  19.643  66.448  1.00  0.00    -0.337 A  
HETATM    3  C   UNL     1      -7.417  20.886  66.995  1.00  0.00    -0.289 A  
HETATM    4  C   UNL     1      -6.680  20.334  68.176  1.00  0.00    -0.330 A  
HETATM    5  C   UNL     1      -5.840  21.011  69.046  1.00  0.00    -0.242 A  
HETATM    6  C   UNL     1      -5.236  20.285  70.074  1.00  0.00    -0.282 A  
HETATM    7  C   UNL     1      -5.497  18.915  70.224  1.00  0.00    -0.237 A  
HETATM    8  C   UNL     1      -6.343  18.246  69.329  1.00  0.00    -0.259 A  
HETATM    9  C   UNL     1      -6.914  18.960  68.288  1.00  0.00    -0.250 A  
HETATM   10  N   UNL     1      -7.677  18.485  67.215  1.00  0.00    -0.222 NA 
ENDROOT
BRANCH  10  11
HETATM   11  N   UNL     1      -8.384  17.304  67.335  1.00  0.00    -0.197 N  
HETATM   12  C   UNL     1      -7.757  16.128  66.940  1.00  0.00    -0.249 C  
HETATM   13  H   UNL     1      -9.337  17.295  67.702  1.00  0.00     0.000 HD 
HETATM   14  O   UNL     1      -6.582  16.025  66.601  1.00  0.00    -0.224 OA 
BRANCH  12  15
HETATM   15  C   UNL     1      -8.647  14.939  66.835  1.00  0.00    -0.269 A  
HETATM   16  C   UNL     1      -9.678  14.955  65.886  1.00  0.00    -0.366 A  
HETATM   17  C   UNL     1     -10.620  13.913  65.851  1.00  0.00    -0.293 A  
HETATM   18  C   UNL     1     -10.516  12.843  66.744  1.00  0.00    -0.254 A  
HETATM   19  C   UNL     1      -8.507  13.839  67.685  1.00  0.00    -0.183 A  
HETATM   20 CL   UNL     1     -11.653  11.549  66.845  1.00  0.00    -0.266 Cl 
HETATM   21  C   UNL     1      -9.442  12.800  67.642  1.00  0.00    -0.190 A  
BRANCH  17  22
HETATM   22  S   UNL     1     -11.954  14.028  64.702  1.00  0.00    -0.452 S  
HETATM   23  O   UNL     1     -13.202  14.055  65.431  1.00  0.00    -0.761 OA 
HETATM   24  N   UNL     1     -11.800  15.574  64.071  1.00  0.00    -0.954 N  
HETATM   25  H1  UNL     1     -12.572  15.640  63.406  1.00  0.00     0.000 HD 
HETATM   26  O   UNL     1     -11.724  13.097  63.624  1.00  0.00    -0.458 OA 
HETATM   27  H2  UNL     1     -11.100  16.280  64.297  1.00  0.00     0.000 HD 
ENDBRANCH  17  22
ENDBRANCH  12  15
ENDBRANCH  10  11
TORSDOF 3
ENDMDL
MODEL       11
REMARK 921   NORMALIZED FREE ENERGY PREDICTED BY IDOCK:   -6.69 KCAL/MOL
REMARK 922        TOTAL FREE ENERGY PREDICTED BY IDOCK:   -8.52 KCAL/MOL
REMARK 923 INTER-LIGAND FREE ENERGY PREDICTED BY IDOCK:   -8.49 KCAL/MOL
REMARK 924 INTRA-LIGAND FREE ENERGY PREDICTED BY IDOCK:   -0.04 KCAL/MOL
REMARK 927      BINDING AFFINITY PREDICTED BY RF-SCORE:    0.00 PKD
ROOT
HETATM    1  C   UNL     1     -12.991  10.464  71.356  1.00  0.00    -0.545 C  
HETATM    2  C   UNL     1     -11.593   9.849  71.384  1.00  0.00    -0.352 A  
HETATM    3  C   UNL     1     -11.619   8.408  71.965  1.00  0.00    -0.418 A  
HETATM    4  C   UNL     1     -11.172   7.574  70.804  1.00  0.00    -0.287 A  
HETATM    5  C   UNL     1     -11.013   6.197  70.757  1.00  0.00    -0.365 A  
HETATM    6  C   UNL     1     -10.561   5.629  69.565  1.00  0.00    -0.384 A  
HETATM    7  C   UNL     1     -10.298   6.437  68.448  1.00  0.00    -0.228 A  
HETATM    8  C   UNL     1     -10.457   7.827  68.518  1.00  0.00    -0.202 A  
HETATM    9  C   UNL     1     -10.872   8.394  69.712  1.00  0.00    -0.183 A  
HETATM   10  N   UNL     1     -10.976   9.748  70.049  1.00  0.00    -0.260 NA 
ENDROOT
BRANCH  10  11
HETATM   11  N   UNL     1     -11.158  10.698  69.062  1.00  0.00    -0.235 N  
HETATM   12  C   UNL     1     -10.029  11.313  68.534  1.00  0.00    -0.202 C  
HETATM   13  H   UNL     1     -12.093  10.941  68.731  1.00  0.00     0.000 HD 
HETATM   14  O   UNL     1      -8.867  11.004  68.782  1.00  0.00    -0.161 OA 
BRANCH  12  15
HETATM   15  C   UNL     1     -10.294  12.504  67.683  1.00  0.00    -0.222 A  
HETATM   16  C   UNL     1     -11.131  12.358  66.568  1.00  0.00    -0.346 A  
HETATM   17  C   UNL     1     -11.295  13.422  65.665  1.00  0.00    -0.298 A  
HETATM   18  C   UNL     1     -10.646  14.639  65.890  1.00  0.00    -0.311 A  
HETATM   19  C   UNL     1      -9.696  13.741  67.941  1.00  0.00    -0.229 A  
HETATM   20 CL   UNL     1     -10.711  15.988  64.815  1.00  0.00    -0.352 Cl 
HETATM   21  C   UNL     1      -9.868  14.800  67.044  1.00  0.00    -0.240 A  
BRANCH  17  22
HETATM   22  S   UNL     1     -12.281  13.157  64.227  1.00  0.00    -0.388 S  
HETATM   23  O   UNL     1     -12.657  14.436  63.670  1.00  0.00    -0.817 OA 
HETATM   24  N   UNL     1     -11.199  12.515  63.118  1.00  0.00    -0.738 N  
HETATM   25  H1  UNL     1     -11.769  12.361  62.286  1.00  0.00     0.000 HD 
HETATM   26  O   UNL     1     -13.260  12.136  64.514  1.00  0.00    -0.724 OA 
HETATM   27  H2  UNL     1     -10.205  12.323  63.246  1.00  0.00     0.000 HD 
ENDBRANCH  17  22
ENDBRANCH  12  15
ENDBRANCH  10  11
TORSDOF 3
ENDMDL
MODEL       12
REMARK 921   NORMALIZED FREE ENERGY PREDICTED BY IDOCK:   -6.62 KCAL/MOL
REMARK 922        TOTAL FREE ENERGY PREDICTED BY IDOCK:   -8.44 KCAL/MOL
REMARK 923 INTER-LIGAND FREE ENERGY PREDICTED BY IDOCK:   -8.10 KCAL/MOL
REMARK 924 INTRA-LIGAND FREE ENERGY PREDICTED BY IDOCK:   -0.34 KCAL/MOL
REMARK 927      BINDING AFFINITY PREDICTED BY RF-SCORE:    0.00 PKD
ROOT
HETATM    1  C   UNL     1     -12.521  13.535  65.791  1.00  0.00    -0.514 C  
HETATM    2  C   UNL     1     -11.106  14.095  65.932  1.00  0.00    -0.306 A  
HETATM    3  C   UNL     1     -10.910  15.366  65.059  1.00  0.00    -0.462 A  
HETATM    4  C   UNL     1     -10.653  16.433  66.077  1.00  0.00    -0.275 A  
HETATM    5  C   UNL     1     -10.410  17.780  65.855  1.00  0.00    -0.257 A  
HETATM    6  C   UNL     1     -10.172  18.595  66.962  1.00  0.00    -0.418 A  
HETATM    7  C   UNL     1     -10.202  18.059  68.259  1.00  0.00    -0.402 A  
HETATM    8  C   UNL     1     -10.441  16.693  68.462  1.00  0.00    -0.319 A  
HETATM    9  C   UNL     1     -10.642  15.878  67.360  1.00  0.00    -0.315 A  
HETATM   10  N   UNL     1     -10.770  14.485  67.313  1.00  0.00    -0.283 NA 
ENDROOT
BRANCH  10  11
HETATM   11  N   UNL     1     -11.218  13.791  68.421  1.00  0.00    -0.257 N  
HETATM   12  C   UNL     1     -10.554  12.620  68.766  1.00  0.00    -0.186 C  
HETATM   13  H   UNL     1     -12.011  14.127  68.969  1.00  0.00     0.000 HD 
HETATM   14  O   UNL     1      -9.524  12.203  68.244  1.00  0.00    -0.202 OA 
BRANCH  12  15
HETATM   15  C   UNL     1     -11.237  11.780  69.789  1.00  0.00    -0.166 A  
HETATM   16  C   UNL     1     -10.797  10.463  69.977  1.00  0.00    -0.348 A  
HETATM   17  C   UNL     1     -11.503   9.599  70.832  1.00  0.00    -0.353 A  
HETATM   18  C   UNL     1     -12.631  10.059  71.518  1.00  0.00    -0.425 A  
HETATM   19  C   UNL     1     -12.327  12.257  70.522  1.00  0.00    -0.349 A  
HETATM   20 CL   UNL     1     -13.619   9.072  72.532  1.00  0.00    -0.510 Cl 
HETATM   21  C   UNL     1     -13.022  11.396  71.378  1.00  0.00    -0.468 A  
BRANCH  17  22
HETATM   22  S   UNL     1     -10.966   7.924  70.961  1.00  0.00    -0.249 S  
HETATM   23  O   UNL     1     -10.827   7.580  72.357  1.00  0.00    -0.238 OA 
HETATM   24  N   UNL     1     -12.293   7.042  70.438  1.00  0.00    -0.618 N  
HETATM   25  H1  UNL     1     -11.982   6.073  70.512  1.00  0.00     0.000 HD 
HETATM   26  O   UNL     1      -9.900   7.701  70.013  1.00  0.00    -0.179 OA 
HETATM   27  H2  UNL     1     -13.197   7.392  70.120  1.00  0.00     0.000 HD 
ENDBRANCH  17  22
ENDBRANCH  12  15
ENDBRANCH  10  11
TORSDOF 3
ENDMDL
MODEL       13
REMARK 921   NORMALIZED FREE ENERGY PREDICTED BY IDOCK:   -6.51 KCAL/MOL
REMARK 922        TOTAL FREE ENERGY PREDICTED BY IDOCK:   -8.31 KCAL/MOL
REMARK 923 INTER-LIGAND FREE ENERGY PREDICTED BY IDOCK:   -7.57 KCAL/MOL
REMARK 924 INTRA-LIGAND FREE ENERGY PREDICTED BY IDOCK:   -0.73 KCAL/MOL
REMARK 927      BINDING AFFINITY PREDICTED BY RF-SCORE:    0.00 PKD
ROOT
HETATM    1  C   UNL     1      -8.171  12.641  68.108  1.00  0.00    -0.170 C  
HETATM    2  C   UNL     1      -9.248  13.723  68.178  1.00  0.00    -0.199 A  
HETATM    3  C   UNL     1      -9.079  14.766  67.039  1.00  0.00    -0.257 A  
HETATM    4  C   UNL     1     -10.333  14.592  66.239  1.00  0.00    -0.300 A  
HETATM    5  C   UNL     1     -10.713  15.274  65.094  1.00  0.00    -0.455 A  
HETATM    6  C   UNL     1     -11.945  14.960  64.521  1.00  0.00    -0.420 A  
HETATM    7  C   UNL     1     -12.758  13.965  65.085  1.00  0.00    -0.434 A  
HETATM    8  C   UNL     1     -12.361  13.292  66.248  1.00  0.00    -0.382 A  
HETATM    9  C   UNL     1     -11.152  13.629  66.836  1.00  0.00    -0.304 A  
HETATM   10  N   UNL     1     -10.617  13.189  68.052  1.00  0.00    -0.230 NA 
ENDROOT
BRANCH  10  11
HETATM   11  N   UNL     1     -11.000  11.970  68.579  1.00  0.00    -0.226 N  
HETATM   12  C   UNL     1     -11.719  11.973  69.768  1.00  0.00    -0.319 C  
HETATM   13  H   UNL     1     -10.763  11.095  68.110  1.00  0.00     0.000 HD 
HETATM   14  O   UNL     1     -12.151  12.971  70.338  1.00  0.00    -0.359 OA 
BRANCH  12  15
HETATM   15  C   UNL     1     -11.868  10.645  70.424  1.00  0.00    -0.441 A  
HETATM   16  C   UNL     1     -11.070   9.583  69.975  1.00  0.00    -0.268 A  
HETATM   17  C   UNL     1     -11.278   8.286  70.473  1.00  0.00    -0.239 A  
HETATM   18  C   UNL     1     -12.262   8.055  71.438  1.00  0.00    -0.309 A  
HETATM   19  C   UNL     1     -12.809  10.425  71.433  1.00  0.00    -0.556 A  
HETATM   20 CL   UNL     1     -12.658   6.497  72.067  1.00  0.00    -0.312 Cl 
HETATM   21  C   UNL     1     -13.007   9.133  71.932  1.00  0.00    -0.473 A  
BRANCH  17  22
HETATM   22  S   UNL     1     -10.314   6.968  69.807  1.00  0.00    -0.218 S  
HETATM   23  O   UNL     1     -11.171   6.105  69.027  1.00  0.00    -0.383 OA 
HETATM   24  N   UNL     1      -9.336   7.727  68.675  1.00  0.00    -0.148 N  
HETATM   25  H1  UNL     1      -8.778   6.964  68.289  1.00  0.00     0.000 HD 
HETATM   26  O   UNL     1      -9.452   6.450  70.842  1.00  0.00    -0.173 OA 
HETATM   27  H2  UNL     1      -9.306   8.716  68.430  1.00  0.00     0.000 HD 
ENDBRANCH  17  22
ENDBRANCH  12  15
ENDBRANCH  10  11
TORSDOF 3
ENDMDL
MODEL       14
REMARK 921   NORMALIZED FREE ENERGY PREDICTED BY IDOCK:   -6.41 KCAL/MOL
REMARK 922        TOTAL FREE ENERGY PREDICTED BY IDOCK:   -8.20 KCAL/MOL
REMARK 923 INTER-LIGAND FREE ENERGY PREDICTED BY IDOCK:   -7.95 KCAL/MOL
REMARK 924 INTRA-LIGAND FREE ENERGY PREDICTED BY IDOCK:   -0.24 KCAL/MOL
REMARK 927      BINDING AFFINITY PREDICTED BY RF-SCORE:    0.00 PKD
ROOT
HETATM    1  C   UNL     1      -9.012  11.663  68.441  1.00  0.00    -0.176 C  
HETATM    2  C   UNL     1     -10.530  11.778  68.311  1.00  0.00    -0.206 A  
HETATM    3  C   UNL     1     -11.242  10.498  68.828  1.00  0.00    -0.317 A  
HETATM    4  C   UNL     1     -12.032  11.006  69.995  1.00  0.00    -0.430 A  
HETATM    5  C   UNL     1     -12.862  10.284  70.839  1.00  0.00    -0.463 A  
HETATM    6  C   UNL     1     -13.522  10.972  71.857  1.00  0.00    -0.299 A  
HETATM    7  C   UNL     1     -13.326  12.352  72.025  1.00  0.00    -0.511 A  
HETATM    8  C   UNL     1     -12.489  13.066  71.157  1.00  0.00    -0.364 A  
HETATM    9  C   UNL     1     -11.861  12.387  70.125  1.00  0.00    -0.262 A  
HETATM   10  N   UNL     1     -11.094  12.906  69.075  1.00  0.00    -0.250 NA 
ENDROOT
BRANCH  10  11
HETATM   11  N   UNL     1     -10.443  14.116  69.222  1.00  0.00    -0.424 N  
HETATM   12  C   UNL     1     -10.694  15.107  68.281  1.00  0.00    -0.251 C  
HETATM   13  H   UNL     1      -9.799  14.277  69.998  1.00  0.00     0.000 HD 
HETATM   14  O   UNL     1     -11.536  15.049  67.390  1.00  0.00    -0.341 OA 
BRANCH  12  15
HETATM   15  C   UNL     1      -9.774  16.277  68.331  1.00  0.00    -0.222 A  
HETATM   16  C   UNL     1     -10.133  17.442  67.640  1.00  0.00    -0.327 A  
HETATM   17  C   UNL     1      -9.230  18.515  67.550  1.00  0.00    -0.279 A  
HETATM   18  C   UNL     1      -7.981  18.434  68.171  1.00  0.00    -0.288 A  
HETATM   19  C   UNL     1      -8.550  16.221  69.004  1.00  0.00    -0.247 A  
HETATM   20 CL   UNL     1      -6.764  19.653  68.065  1.00  0.00    -0.276 Cl 
HETATM   21  C   UNL     1      -7.657  17.295  68.917  1.00  0.00    -0.235 A  
BRANCH  17  22
HETATM   22  S   UNL     1      -9.692  19.920  66.589  1.00  0.00    -0.456 S  
HETATM   23  O   UNL     1      -9.780  21.075  67.455  1.00  0.00    -0.416 OA 
HETATM   24  N   UNL     1      -8.343  20.208  65.636  1.00  0.00    -0.411 N  
HETATM   25  H1  UNL     1      -8.610  21.021  65.080  1.00  0.00     0.000 HD 
HETATM   26  O   UNL     1     -10.772  19.548  65.706  1.00  0.00    -0.503 OA 
HETATM   27  H2  UNL     1      -7.463  19.693  65.616  1.00  0.00     0.000 HD 
ENDBRANCH  17  22
ENDBRANCH  12  15
ENDBRANCH  10  11
TORSDOF 3
ENDMDL
MODEL       15
REMARK 921   NORMALIZED FREE ENERGY PREDICTED BY IDOCK:   -6.32 KCAL/MOL
REMARK 922        TOTAL FREE ENERGY PREDICTED BY IDOCK:   -8.10 KCAL/MOL
REMARK 923 INTER-LIGAND FREE ENERGY PREDICTED BY IDOCK:   -8.03 KCAL/MOL
REMARK 924 INTRA-LIGAND FREE ENERGY PREDICTED BY IDOCK:   -0.06 KCAL/MOL
REMARK 927      BINDING AFFINITY PREDICTED BY RF-SCORE:    0.00 PKD
ROOT
HETATM    1  C   UNL     1      -6.788  10.429  70.285  1.00  0.00    -0.132 C  
HETATM    2  C   UNL     1      -7.707   9.237  70.021  1.00  0.00    -0.104 A  
HETATM    3  C   UNL     1      -7.586   8.169  71.145  1.00  0.00    -0.082 A  
HETATM    4  C   UNL     1      -8.957   8.165  71.748  1.00  0.00    -0.216 A  
HETATM    5  C   UNL     1      -9.419   7.393  72.802  1.00  0.00    -0.207 A  
HETATM    6  C   UNL     1     -10.752   7.540  73.188  1.00  0.00    -0.452 A  
HETATM    7  C   UNL     1     -11.585   8.460  72.532  1.00  0.00    -0.426 A  
HETATM    8  C   UNL     1     -11.101   9.225  71.462  1.00  0.00    -0.443 A  
HETATM    9  C   UNL     1      -9.787   9.054  71.058  1.00  0.00    -0.282 A  
HETATM   10  N   UNL     1      -9.132   9.605  69.951  1.00  0.00    -0.211 NA 
ENDROOT
BRANCH  10  11
HETATM   11  N   UNL     1      -9.575  10.795  69.403  1.00  0.00    -0.410 N  
HETATM   12  C   UNL     1     -10.408  10.729  68.292  1.00  0.00    -0.173 C  
HETATM   13  H   UNL     1      -9.301  11.693  69.803  1.00  0.00     0.000 HD 
HETATM   14  O   UNL     1     -10.885   9.702  67.818  1.00  0.00    -0.270 OA 
BRANCH  12  15
HETATM   15  C   UNL     1     -10.630  12.022  67.588  1.00  0.00    -0.239 A  
HETATM   16  C   UNL     1     -11.362  12.016  66.392  1.00  0.00    -0.411 A  
HETATM   17  C   UNL     1     -11.475  13.191  65.631  1.00  0.00    -0.323 A  
HETATM   18  C   UNL     1     -10.882  14.376  66.076  1.00  0.00    -0.309 A  
HETATM   19  C   UNL     1     -10.092  13.220  68.064  1.00  0.00    -0.235 A  
HETATM   20 CL   UNL     1     -10.890  15.858  65.191  1.00  0.00    -0.443 Cl 
HETATM   21  C   UNL     1     -10.214  14.389  67.306  1.00  0.00    -0.252 A  
BRANCH  17  22
HETATM   22  S   UNL     1     -12.324  13.110  64.086  1.00  0.00    -0.321 S  
HETATM   23  O   UNL     1     -12.700  14.446  63.684  1.00  0.00    -0.773 OA 
HETATM   24  N   UNL     1     -11.127  12.662  63.001  1.00  0.00    -0.605 N  
HETATM   25  H1  UNL     1     -11.618  12.615  62.107  1.00  0.00     0.000 HD 
HETATM   26  O   UNL     1     -13.284  12.033  64.137  1.00  0.00    -0.712 OA 
HETATM   27  H2  UNL     1     -10.141  12.480  63.189  1.00  0.00     0.000 HD 
ENDBRANCH  17  22
ENDBRANCH  12  15
ENDBRANCH  10  11
TORSDOF 3
ENDMDL
MODEL       16
REMARK 921   NORMALIZED FREE ENERGY PREDICTED BY IDOCK:   -6.24 KCAL/MOL
REMARK 922        TOTAL FREE ENERGY PREDICTED BY IDOCK:   -8.00 KCAL/MOL
REMARK 923 INTER-LIGAND FREE ENERGY PREDICTED BY IDOCK:   -7.65 KCAL/MOL
REMARK 924 INTRA-LIGAND FREE ENERGY PREDICTED BY IDOCK:   -0.35 KCAL/MOL
REMARK 927      BINDING AFFINITY PREDICTED BY RF-SCORE:    0.00 PKD
ROOT
HETATM    1  C   UNL     1     -11.301  12.800  64.175  1.00  0.00    -0.442 C  
HETATM    2  C   UNL     1     -10.912  11.325  64.275  1.00  0.00    -0.288 A  
HETATM    3  C   UNL     1      -9.882  10.934  63.178  1.00  0.00    -0.392 A  
HETATM    4  C   UNL     1      -8.672  10.558  63.977  1.00  0.00    -0.176 A  
HETATM    5  C   UNL     1      -7.443  10.127  63.504  1.00  0.00    -0.132 A  
HETATM    6  C   UNL     1      -6.456   9.808  64.438  1.00  0.00    -0.117 A  
HETATM    7  C   UNL     1      -6.707   9.944  65.812  1.00  0.00    -0.099 A  
HETATM    8  C   UNL     1      -7.960  10.374  66.270  1.00  0.00    -0.138 A  
HETATM    9  C   UNL     1      -8.950  10.657  65.343  1.00  0.00    -0.189 A  
HETATM   10  N   UNL     1     -10.295  10.974  65.568  1.00  0.00    -0.263 NA 
ENDROOT
BRANCH  10  11
HETATM   11  N   UNL     1     -10.684  11.542  66.766  1.00  0.00    -0.257 N  
HETATM   12  C   UNL     1     -11.095  10.690  67.785  1.00  0.00    -0.321 C  
HETATM   13  H   UNL     1     -10.670  12.554  66.899  1.00  0.00     0.000 HD 
HETATM   14  O   UNL     1     -11.032   9.465  67.760  1.00  0.00    -0.219 OA 
BRANCH  12  15
HETATM   15  C   UNL     1     -11.753  11.357  68.942  1.00  0.00    -0.409 A  
HETATM   16  C   UNL     1     -11.735  12.757  69.008  1.00  0.00    -0.371 A  
HETATM   17  C   UNL     1     -12.223  13.416  70.149  1.00  0.00    -0.315 A  
HETATM   18  C   UNL     1     -12.753  12.678  71.211  1.00  0.00    -0.257 A  
HETATM   19  C   UNL     1     -12.340  10.624  69.977  1.00  0.00    -0.341 A  
HETATM   20 CL   UNL     1     -13.310  13.371  72.691  1.00  0.00    -0.589 Cl 
HETATM   21  C   UNL     1     -12.832  11.284  71.108  1.00  0.00    -0.452 A  
BRANCH  17  22
HETATM   22  S   UNL     1     -12.090  15.173  70.223  1.00  0.00    -0.368 S  
HETATM   23  O   UNL     1     -11.812  15.681  68.899  1.00  0.00    -0.379 OA 
HETATM   24  N   UNL     1     -13.656  15.675  70.549  1.00  0.00    -0.768 N  
HETATM   25  H1  UNL     1     -13.579  16.691  70.593  1.00  0.00     0.000 HD 
HETATM   26  O   UNL     1     -11.277  15.532  71.361  1.00  0.00    -0.368 OA 
HETATM   27  H2  UNL     1     -14.489  15.100  70.675  1.00  0.00     0.000 HD 
ENDBRANCH  17  22
ENDBRANCH  12  15
ENDBRANCH  10  11
TORSDOF 3
ENDMDL
MODEL       17
REMARK 921   NORMALIZED FREE ENERGY PREDICTED BY IDOCK:   -6.21 KCAL/MOL
REMARK 922        TOTAL FREE ENERGY PREDICTED BY IDOCK:   -7.97 KCAL/MOL
REMARK 923 INTER-LIGAND FREE ENERGY PREDICTED BY IDOCK:   -7.47 KCAL/MOL
REMARK 924 INTRA-LIGAND FREE ENERGY PREDICTED BY IDOCK:   -0.49 KCAL/MOL
REMARK 927      BINDING AFFINITY PREDICTED BY RF-SCORE:    0.00 PKD
ROOT
HETATM    1  C   UNL     1      -9.329  12.810  68.299  1.00  0.00    -0.194 C  
HETATM    2  C   UNL     1     -10.857  12.817  68.295  1.00  0.00    -0.248 A  
HETATM    3  C   UNL     1     -11.432  11.615  69.096  1.00  0.00    -0.364 A  
HETATM    4  C   UNL     1     -12.155  12.284  70.225  1.00  0.00    -0.376 A  
HETATM    5  C   UNL     1     -12.859  11.684  71.258  1.00  0.00    -0.430 A  
HETATM    6  C   UNL     1     -13.478  12.509  72.196  1.00  0.00    -0.523 A  
HETATM    7  C   UNL     1     -13.366  13.905  72.099  1.00  0.00    -0.555 A  
HETATM    8  C   UNL     1     -12.657  14.493  71.043  1.00  0.00    -0.410 A  
HETATM    9  C   UNL     1     -12.072  13.673  70.091  1.00  0.00    -0.361 A  
HETATM   10  N   UNL     1     -11.434  14.032  68.899  1.00  0.00    -0.273 NA 
ENDROOT
BRANCH  10  11
HETATM   11  N   UNL     1     -10.860  15.283  68.767  1.00  0.00    -0.244 N  
HETATM   12  C   UNL     1     -10.836  15.857  67.502  1.00  0.00    -0.305 C  
HETATM   13  H   UNL     1     -10.466  15.769  69.573  1.00  0.00     0.000 HD 
HETATM   14  O   UNL     1     -11.387  15.404  66.502  1.00  0.00    -0.243 OA 
BRANCH  12  15
HETATM   15  C   UNL     1      -9.976  17.065  67.369  1.00  0.00    -0.278 A  
HETATM   16  C   UNL     1      -8.640  16.985  67.787  1.00  0.00    -0.213 A  
HETATM   17  C   UNL     1      -7.838  18.138  67.806  1.00  0.00    -0.235 A  
HETATM   18  C   UNL     1      -8.361  19.363  67.382  1.00  0.00    -0.292 A  
HETATM   19  C   UNL     1     -10.479  18.276  66.888  1.00  0.00    -0.396 A  
HETATM   20 CL   UNL     1      -7.496  20.857  67.433  1.00  0.00    -0.389 Cl 
HETATM   21  C   UNL     1      -9.674  19.420  66.901  1.00  0.00    -0.431 A  
BRANCH  17  22
HETATM   22  S   UNL     1      -6.193  18.004  68.430  1.00  0.00    -0.194 S  
HETATM   23  O   UNL     1      -6.120  18.673  69.709  1.00  0.00    -0.257 OA 
HETATM   24  N   UNL     1      -6.040  16.375  68.795  1.00  0.00    -0.126 N  
HETATM   25  H1  UNL     1      -5.089  16.298  69.156  1.00  0.00     0.000 HD 
HETATM   26  O   UNL     1      -5.264  18.297  67.365  1.00  0.00    -0.137 OA 
HETATM   27  H2  UNL     1      -6.734  15.636  68.682  1.00  0.00     0.000 HD 
ENDBRANCH  17  22
ENDBRANCH  12  15
ENDBRANCH  10  11
TORSDOF 3
ENDMDL
MODEL       18
REMARK 921   NORMALIZED FREE ENERGY PREDICTED BY IDOCK:   -6.21 KCAL/MOL
REMARK 922        TOTAL FREE ENERGY PREDICTED BY IDOCK:   -7.96 KCAL/MOL
REMARK 923 INTER-LIGAND FREE ENERGY PREDICTED BY IDOCK:   -7.28 KCAL/MOL
REMARK 924 INTRA-LIGAND FREE ENERGY PREDICTED BY IDOCK:   -0.68 KCAL/MOL
REMARK 927      BINDING AFFINITY PREDICTED BY RF-SCORE:    0.00 PKD
ROOT
HETATM    1  C   UNL     1      -8.931  14.865  69.040  1.00  0.00    -0.174 C  
HETATM    2  C   UNL     1     -10.211  15.681  68.870  1.00  0.00    -0.214 A  
HETATM    3  C   UNL     1     -10.085  17.079  69.538  1.00  0.00    -0.048 A  
HETATM    4  C   UNL     1     -10.197  18.015  68.374  1.00  0.00    -0.399 A  
HETATM    5  C   UNL     1     -10.149  19.400  68.390  1.00  0.00    -0.538 A  
HETATM    6  C   UNL     1     -10.298  20.076  67.178  1.00  0.00    -0.554 A  
HETATM    7  C   UNL     1     -10.470  19.361  65.983  1.00  0.00    -0.596 A  
HETATM    8  C   UNL     1     -10.524  17.961  65.988  1.00  0.00    -0.293 A  
HETATM    9  C   UNL     1     -10.411  17.293  67.197  1.00  0.00    -0.321 A  
HETATM   10  N   UNL     1     -10.561  15.926  67.459  1.00  0.00    -0.309 NA 
ENDROOT
BRANCH  10  11
HETATM   11  N   UNL     1     -10.342  14.999  66.457  1.00  0.00    -0.276 N  
HETATM   12  C   UNL     1     -11.356  14.089  66.181  1.00  0.00    -0.321 C  
HETATM   13  H   UNL     1      -9.464  14.982  65.938  1.00  0.00     0.000 HD 
HETATM   14  O   UNL     1     -12.483  14.108  66.667  1.00  0.00    -0.426 OA 
BRANCH  12  15
HETATM   15  C   UNL     1     -10.969  12.957  65.295  1.00  0.00    -0.310 A  
HETATM   16  C   UNL     1     -10.118  11.967  65.807  1.00  0.00    -0.272 A  
HETATM   17  C   UNL     1      -9.622  10.959  64.963  1.00  0.00    -0.251 A  
HETATM   18  C   UNL     1      -9.995  10.925  63.617  1.00  0.00    -0.359 A  
HETATM   19  C   UNL     1     -11.391  12.886  63.965  1.00  0.00    -0.466 A  
HETATM   20 CL   UNL     1      -9.391   9.784  62.471  1.00  0.00    -0.273 Cl 
HETATM   21  C   UNL     1     -10.899  11.876  63.130  1.00  0.00    -0.294 A  
BRANCH  17  22
HETATM   22  S   UNL     1      -8.479   9.793  65.633  1.00  0.00    -0.145 S  
HETATM   23  O   UNL     1      -7.184  10.003  65.028  1.00  0.00    -0.129 OA 
HETATM   24  N   UNL     1      -8.290  10.293  67.222  1.00  0.00    -0.121 N  
HETATM   25  H1  UNL     1      -7.630   9.618  67.609  1.00  0.00     0.000 HD 
HETATM   26  O   UNL     1      -9.103   8.492  65.661  1.00  0.00    -0.187 OA 
HETATM   27  H2  UNL     1      -8.732  11.084  67.691  1.00  0.00     0.000 HD 
ENDBRANCH  17  22
ENDBRANCH  12  15
ENDBRANCH  10  11
TORSDOF 3
ENDMDL
MODEL       19
REMARK 921   NORMALIZED FREE ENERGY PREDICTED BY IDOCK:   -6.20 KCAL/MOL
REMARK 922        TOTAL FREE ENERGY PREDICTED BY IDOCK:   -7.94 KCAL/MOL
REMARK 923 INTER-LIGAND FREE ENERGY PREDICTED BY IDOCK:   -7.40 KCAL/MOL
REMARK 924 INTRA-LIGAND FREE ENERGY PREDICTED BY IDOCK:   -0.55 KCAL/MOL
REMARK 927      BINDING AFFINITY PREDICTED BY RF-SCORE:    0.00 PKD
ROOT
HETATM    1  C   UNL     1     -11.486  15.020  71.123  1.00  0.00    -0.355 C  
HETATM    2  C   UNL     1     -12.187  14.640  69.820  1.00  0.00    -0.302 A  
HETATM    3  C   UNL     1     -12.013  15.743  68.740  1.00  0.00    -0.226 A  
HETATM    4  C   UNL     1     -11.228  15.043  67.673  1.00  0.00    -0.331 A  
HETATM    5  C   UNL     1     -10.786  15.560  66.465  1.00  0.00    -0.304 A  
HETATM    6  C   UNL     1     -10.084  14.714  65.607  1.00  0.00    -0.389 A  
HETATM    7  C   UNL     1      -9.822  13.386  65.976  1.00  0.00    -0.273 A  
HETATM    8  C   UNL     1     -10.284  12.879  67.198  1.00  0.00    -0.239 A  
HETATM    9  C   UNL     1     -11.011  13.710  68.035  1.00  0.00    -0.250 A  
HETATM   10  N   UNL     1     -11.673  13.392  69.226  1.00  0.00    -0.310 NA 
ENDROOT
BRANCH  10  11
HETATM   11  N   UNL     1     -11.259  12.313  69.984  1.00  0.00    -0.460 N  
HETATM   12  C   UNL     1     -11.928  11.106  69.816  1.00  0.00    -0.357 C  
HETATM   13  H   UNL     1     -10.487  12.400  70.646  1.00  0.00     0.000 HD 
HETATM   14  O   UNL     1     -12.782  10.877  68.965  1.00  0.00    -0.239 OA 
BRANCH  12  15
HETATM   15  C   UNL     1     -11.626  10.066  70.837  1.00  0.00    -0.463 A  
HETATM   16  C   UNL     1     -10.287   9.714  71.059  1.00  0.00    -0.292 A  
HETATM   17  C   UNL     1      -9.973   8.643  71.913  1.00  0.00    -0.322 A  
HETATM   18  C   UNL     1     -10.992   7.943  72.565  1.00  0.00    -0.350 A  
HETATM   19  C   UNL     1     -12.640   9.407  71.537  1.00  0.00    -0.447 A  
HETATM   20 CL   UNL     1     -10.733   6.567  73.574  1.00  0.00    -0.304 Cl 
HETATM   21  C   UNL     1     -12.322   8.347  72.392  1.00  0.00    -0.412 A  
BRANCH  17  22
HETATM   22  S   UNL     1      -8.280   8.177  72.084  1.00  0.00    -0.162 S  
HETATM   23  O   UNL     1      -8.129   6.796  71.686  1.00  0.00    -0.105 OA 
HETATM   24  N   UNL     1      -7.506   9.051  70.881  1.00  0.00    -0.105 N  
HETATM   25  H1  UNL     1      -6.527   8.782  70.980  1.00  0.00     0.000 HD 
HETATM   26  O   UNL     1      -7.789   8.660  73.353  1.00  0.00    -0.398 OA 
HETATM   27  H2  UNL     1      -7.916   9.700  70.210  1.00  0.00     0.000 HD 
ENDBRANCH  17  22
ENDBRANCH  12  15
ENDBRANCH  10  11
TORSDOF 3
ENDMDL
MODEL       20
REMARK 921   NORMALIZED FREE ENERGY PREDICTED BY IDOCK:   -6.18 KCAL/MOL
REMARK 922        TOTAL FREE ENERGY PREDICTED BY IDOCK:   -7.93 KCAL/MOL
REMARK 923 INTER-LIGAND FREE ENERGY PREDICTED BY IDOCK:   -7.31 KCAL/MOL
REMARK 924 INTRA-LIGAND FREE ENERGY PREDICTED BY IDOCK:   -0.61 KCAL/MOL
REMARK 927      BINDING AFFINITY PREDICTED BY RF-SCORE:    0.00 PKD
ROOT
HETATM    1  C   UNL     1     -12.848  10.445  71.271  1.00  0.00    -0.533 C  
HETATM    2  C   UNL     1     -11.461   9.804  71.309  1.00  0.00    -0.385 A  
HETATM    3  C   UNL     1     -11.466   8.493  72.145  1.00  0.00    -0.446 A  
HETATM    4  C   UNL     1     -11.122   7.449  71.127  1.00  0.00    -0.271 A  
HETATM    5  C   UNL     1     -10.990   6.083  71.322  1.00  0.00    -0.340 A  
HETATM    6  C   UNL     1     -10.640   5.295  70.226  1.00  0.00    -0.288 A  
HETATM    7  C   UNL     1     -10.451   5.877  68.963  1.00  0.00    -0.332 A  
HETATM    8  C   UNL     1     -10.581   7.262  68.788  1.00  0.00    -0.202 A  
HETATM    9  C   UNL     1     -10.895   8.048  69.884  1.00  0.00    -0.217 A  
HETATM   10  N   UNL     1     -10.950   9.443  69.974  1.00  0.00    -0.236 NA 
ENDROOT
BRANCH  10  11
HETATM   11  N   UNL     1     -11.193  10.203  68.845  1.00  0.00    -0.396 N  
HETATM   12  C   UNL     1     -10.143  10.952  68.328  1.00  0.00    -0.174 C  
HETATM   13  H   UNL     1     -12.114  10.214  68.406  1.00  0.00     0.000 HD 
HETATM   14  O   UNL     1      -8.979  10.910  68.714  1.00  0.00    -0.162 OA 
BRANCH  12  15
HETATM   15  C   UNL     1     -10.525  11.948  67.289  1.00  0.00    -0.248 A  
HETATM   16  C   UNL     1     -10.041  13.258  67.407  1.00  0.00    -0.233 A  
HETATM   17  C   UNL     1     -10.489  14.257  66.527  1.00  0.00    -0.287 A  
HETATM   18  C   UNL     1     -11.399  13.943  65.514  1.00  0.00    -0.308 A  
HETATM   19  C   UNL     1     -11.386  11.621  66.238  1.00  0.00    -0.293 A  
HETATM   20 CL   UNL     1     -12.077  15.098  64.425  1.00  0.00    -0.404 Cl 
HETATM   21  C   UNL     1     -11.824  12.618  65.360  1.00  0.00    -0.473 A  
BRANCH  17  22
HETATM   22  S   UNL     1      -9.924  15.909  66.777  1.00  0.00    -0.257 S  
HETATM   23  O   UNL     1     -10.977  16.679  67.400  1.00  0.00    -0.238 OA 
HETATM   24  N   UNL     1      -8.754  15.751  67.968  1.00  0.00    -0.170 N  
HETATM   25  H1  UNL     1      -8.427  16.707  68.112  1.00  0.00     0.000 HD 
HETATM   26  O   UNL     1      -9.259  16.362  65.578  1.00  0.00    -0.419 OA 
HETATM   27  H2  UNL     1      -8.443  14.901  68.437  1.00  0.00     0.000 HD 
ENDBRANCH  17  22
ENDBRANCH  12  15
ENDBRANCH  10  11
TORSDOF 3
ENDMDL
MODEL       21
REMARK 921   NORMALIZED FREE ENERGY PREDICTED BY IDOCK:   -6.17 KCAL/MOL
REMARK 922        TOTAL FREE ENERGY PREDICTED BY IDOCK:   -7.91 KCAL/MOL
REMARK 923 INTER-LIGAND FREE ENERGY PREDICTED BY IDOCK:   -7.48 KCAL/MOL
REMARK 924 INTRA-LIGAND FREE ENERGY PREDICTED BY IDOCK:   -0.43 KCAL/MOL
REMARK 927      BINDING AFFINITY PREDICTED BY RF-SCORE:    0.00 PKD
ROOT
HETATM    1  C   UNL     1     -10.568   7.234  68.131  1.00  0.00    -0.228 C  
HETATM    2  C   UNL     1     -11.407   6.939  69.374  1.00  0.00    -0.118 A  
HETATM    3  C   UNL     1     -10.970   5.610  70.051  1.00  0.00    -0.311 A  
HETATM    4  C   UNL     1     -10.469   6.066  71.386  1.00  0.00    -0.282 A  
HETATM    5  C   UNL     1      -9.950   5.289  72.411  1.00  0.00    -0.219 A  
HETATM    6  C   UNL     1      -9.562   5.930  73.588  1.00  0.00    -0.143 A  
HETATM    7  C   UNL     1      -9.678   7.323  73.711  1.00  0.00    -0.344 A  
HETATM    8  C   UNL     1     -10.213   8.090  72.667  1.00  0.00    -0.385 A  
HETATM    9  C   UNL     1     -10.630   7.449  71.512  1.00  0.00    -0.206 A  
HETATM   10  N   UNL     1     -11.302   7.985  70.407  1.00  0.00    -0.233 NA 
ENDROOT
BRANCH  10  11
HETATM   11  N   UNL     1     -11.184   9.330  70.108  1.00  0.00    -0.332 N  
HETATM   12  C   UNL     1     -12.173  10.188  70.574  1.00  0.00    -0.264 C  
HETATM   13  H   UNL     1     -10.396   9.681  69.562  1.00  0.00     0.000 HD 
HETATM   14  O   UNL     1     -13.087   9.879  71.332  1.00  0.00    -0.359 OA 
BRANCH  12  15
HETATM   15  C   UNL     1     -12.142  11.562  70.000  1.00  0.00    -0.408 A  
HETATM   16  C   UNL     1     -11.876  11.710  68.631  1.00  0.00    -0.370 A  
HETATM   17  C   UNL     1     -11.703  12.992  68.082  1.00  0.00    -0.351 A  
HETATM   18  C   UNL     1     -11.823  14.124  68.893  1.00  0.00    -0.347 A  
HETATM   19  C   UNL     1     -12.323  12.696  70.796  1.00  0.00    -0.372 A  
HETATM   20 CL   UNL     1     -11.557  15.740  68.348  1.00  0.00    -0.369 Cl 
HETATM   21  C   UNL     1     -12.158  13.970  70.243  1.00  0.00    -0.425 A  
BRANCH  17  22
HETATM   22  S   UNL     1     -11.274  13.122  66.376  1.00  0.00    -0.310 S  
HETATM   23  O   UNL     1     -11.343  11.811  65.772  1.00  0.00    -0.318 OA 
HETATM   24  N   UNL     1     -12.562  13.963  65.708  1.00  0.00    -0.504 N  
HETATM   25  H1  UNL     1     -12.314  14.038  64.721  1.00  0.00     0.000 HD 
HETATM   26  O   UNL     1     -10.103  13.956  66.251  1.00  0.00    -0.283 OA 
HETATM   27  H2  UNL     1     -13.396  14.317  66.177  1.00  0.00     0.000 HD 
ENDBRANCH  17  22
ENDBRANCH  12  15
ENDBRANCH  10  11
TORSDOF 3
ENDMDL
MODEL       22
REMARK 921   NORMALIZED FREE ENERGY PREDICTED BY IDOCK:   -6.14 KCAL/MOL
REMARK 922        TOTAL FREE ENERGY PREDICTED BY IDOCK:   -7.88 KCAL/MOL
REMARK 923 INTER-LIGAND FREE ENERGY PREDICTED BY IDOCK:   -7.32 KCAL/MOL
REMARK 924 INTRA-LIGAND FREE ENERGY PREDICTED BY IDOCK:   -0.56 KCAL/MOL
REMARK 927      BINDING AFFINITY PREDICTED BY RF-SCORE:    0.00 PKD
ROOT
HETATM    1  C   UNL     1     -12.787  13.524  71.979  1.00  0.00    -0.348 C  
HETATM    2  C   UNL     1     -12.875  14.020  70.537  1.00  0.00    -0.220 A  
HETATM    3  C   UNL     1     -12.743  15.567  70.460  1.00  0.00    -0.436 A  
HETATM    4  C   UNL     1     -11.477  15.754  69.681  1.00  0.00    -0.348 A  
HETATM    5  C   UNL     1     -10.873  16.946  69.315  1.00  0.00    -0.214 A  
HETATM    6  C   UNL     1      -9.699  16.883  68.564  1.00  0.00    -0.264 A  
HETATM    7  C   UNL     1      -9.144  15.643  68.214  1.00  0.00    -0.187 A  
HETATM    8  C   UNL     1      -9.775  14.448  68.587  1.00  0.00    -0.216 A  
HETATM    9  C   UNL     1     -10.959  14.512  69.303  1.00  0.00    -0.260 A  
HETATM   10  N   UNL     1     -11.819  13.469  69.667  1.00  0.00    -0.319 NA 
ENDROOT
BRANCH  10  11
HETATM   11  N   UNL     1     -11.334  12.182  69.796  1.00  0.00    -0.493 N  
HETATM   12  C   UNL     1     -11.553  11.297  68.746  1.00  0.00    -0.316 C  
HETATM   13  H   UNL     1     -10.832  11.889  70.635  1.00  0.00     0.000 HD 
HETATM   14  O   UNL     1     -12.037  11.588  67.657  1.00  0.00    -0.623 OA 
BRANCH  12  15
HETATM   15  C   UNL     1     -11.254   9.870  69.047  1.00  0.00    -0.131 A  
HETATM   16  C   UNL     1     -11.637   9.353  70.293  1.00  0.00    -0.181 A  
HETATM   17  C   UNL     1     -11.252   8.054  70.665  1.00  0.00    -0.261 A  
HETATM   18  C   UNL     1     -10.509   7.263  69.785  1.00  0.00    -0.227 A  
HETATM   19  C   UNL     1     -10.566   9.056  68.143  1.00  0.00    -0.225 A  
HETATM   20 CL   UNL     1      -9.916   5.687  70.161  1.00  0.00    -0.251 Cl 
HETATM   21  C   UNL     1     -10.191   7.761  68.515  1.00  0.00    -0.227 A  
BRANCH  17  22
HETATM   22  S   UNL     1     -11.676   7.486  72.280  1.00  0.00    -0.292 S  
HETATM   23  O   UNL     1     -10.570   7.739  73.175  1.00  0.00    -0.359 OA 
HETATM   24  N   UNL     1     -12.872   8.553  72.774  1.00  0.00    -0.603 N  
HETATM   25  H1  UNL     1     -13.117   8.224  73.708  1.00  0.00     0.000 HD 
HETATM   26  O   UNL     1     -12.282   6.180  72.172  1.00  0.00    -0.319 OA 
HETATM   27  H2  UNL     1     -13.262   9.344  72.261  1.00  0.00     0.000 HD 
ENDBRANCH  17  22
ENDBRANCH  12  15
ENDBRANCH  10  11
TORSDOF 3
ENDMDL
MODEL       23
REMARK 921   NORMALIZED FREE ENERGY PREDICTED BY IDOCK:   -6.14 KCAL/MOL
REMARK 922        TOTAL FREE ENERGY PREDICTED BY IDOCK:   -7.88 KCAL/MOL
REMARK 923 INTER-LIGAND FREE ENERGY PREDICTED BY IDOCK:   -7.42 KCAL/MOL
REMARK 924 INTRA-LIGAND FREE ENERGY PREDICTED BY IDOCK:   -0.46 KCAL/MOL
REMARK 927      BINDING AFFINITY PREDICTED BY RF-SCORE:    0.00 PKD
ROOT
HETATM    1  C   UNL     1      -9.841  14.566  68.450  1.00  0.00    -0.227 C  
HETATM    2  C   UNL     1     -11.224  14.184  67.926  1.00  0.00    -0.279 A  
HETATM    3  C   UNL     1     -11.643  15.080  66.727  1.00  0.00    -0.209 A  
HETATM    4  C   UNL     1     -11.744  14.100  65.599  1.00  0.00    -0.357 A  
HETATM    5  C   UNL     1     -12.086  14.355  64.279  1.00  0.00    -0.461 A  
HETATM    6  C   UNL     1     -12.138  13.277  63.395  1.00  0.00    -0.508 A  
HETATM    7  C   UNL     1     -11.832  11.980  63.837  1.00  0.00    -0.543 A  
HETATM    8  C   UNL     1     -11.497  11.742  65.176  1.00  0.00    -0.248 A  
HETATM    9  C   UNL     1     -11.479  12.808  66.061  1.00  0.00    -0.350 A  
HETATM   10  N   UNL     1     -11.301  12.791  67.449  1.00  0.00    -0.294 NA 
ENDROOT
BRANCH  10  11
HETATM   11  N   UNL     1     -10.614  11.752  68.049  1.00  0.00    -0.199 N  
HETATM   12  C   UNL     1     -11.308  10.945  68.943  1.00  0.00    -0.288 C  
HETATM   13  H   UNL     1      -9.630  11.582  67.841  1.00  0.00     0.000 HD 
HETATM   14  O   UNL     1     -12.514  10.997  69.163  1.00  0.00    -0.432 OA 
BRANCH  12  15
HETATM   15  C   UNL     1     -10.464  10.025  69.754  1.00  0.00    -0.291 A  
HETATM   16  C   UNL     1     -11.098   9.114  70.610  1.00  0.00    -0.320 A  
HETATM   17  C   UNL     1     -10.336   8.327  71.491  1.00  0.00    -0.214 A  
HETATM   18  C   UNL     1      -8.942   8.430  71.496  1.00  0.00    -0.194 A  
HETATM   19  C   UNL     1      -9.068  10.083  69.716  1.00  0.00    -0.219 A  
HETATM   20 CL   UNL     1      -7.910   7.573  72.582  1.00  0.00    -0.106 Cl 
HETATM   21  C   UNL     1      -8.314   9.292  70.589  1.00  0.00    -0.245 A  
BRANCH  17  22
HETATM   22  S   UNL     1     -11.186   7.266  72.615  1.00  0.00    -0.306 S  
HETATM   23  O   UNL     1     -10.652   7.463  73.943  1.00  0.00    -0.307 OA 
HETATM   24  N   UNL     1     -12.731   7.915  72.679  1.00  0.00    -0.550 N  
HETATM   25  H1  UNL     1     -13.223   7.301  73.330  1.00  0.00     0.000 HD 
HETATM   26  O   UNL     1     -11.294   5.953  72.026  1.00  0.00    -0.276 OA 
HETATM   27  H2  UNL     1     -13.094   8.730  72.185  1.00  0.00     0.000 HD 
ENDBRANCH  17  22
ENDBRANCH  12  15
ENDBRANCH  10  11
TORSDOF 3
ENDMDL
MODEL       24
REMARK 921   NORMALIZED FREE ENERGY PREDICTED BY IDOCK:   -6.09 KCAL/MOL
REMARK 922        TOTAL FREE ENERGY PREDICTED BY IDOCK:   -7.82 KCAL/MOL
REMARK 923 INTER-LIGAND FREE ENERGY PREDICTED BY IDOCK:   -7.25 KCAL/MOL
REMARK 924 INTRA-LIGAND FREE ENERGY PREDICTED BY IDOCK:   -0.58 KCAL/MOL
REMARK 927      BINDING AFFINITY PREDICTED BY RF-SCORE:    0.00 PKD
ROOT
HETATM    1  C   UNL     1     -11.969  14.763  71.363  1.00  0.00    -0.403 C  
HETATM    2  C   UNL     1     -12.254  14.614  69.869  1.00  0.00    -0.316 A  
HETATM    3  C   UNL     1     -11.909  15.916  69.094  1.00  0.00    -0.340 A  
HETATM    4  C   UNL     1     -10.801  15.480  68.186  1.00  0.00    -0.296 A  
HETATM    5  C   UNL     1     -10.106  16.246  67.264  1.00  0.00    -0.264 A  
HETATM    6  C   UNL     1      -9.118  15.621  66.503  1.00  0.00    -0.337 A  
HETATM    7  C   UNL     1      -8.831  14.260  66.691  1.00  0.00    -0.167 A  
HETATM    8  C   UNL     1      -9.550  13.500  67.623  1.00  0.00    -0.222 A  
HETATM    9  C   UNL     1     -10.555  14.114  68.353  1.00  0.00    -0.259 A  
HETATM   10  N   UNL     1     -11.475  13.535  69.234  1.00  0.00    -0.279 NA 
ENDROOT
BRANCH  10  11
HETATM   11  N   UNL     1     -11.172  12.349  69.875  1.00  0.00    -0.486 N  
HETATM   12  C   UNL     1     -11.650  11.168  69.318  1.00  0.00    -0.318 C  
HETATM   13  H   UNL     1     -10.615  12.339  70.730  1.00  0.00     0.000 HD 
HETATM   14  O   UNL     1     -12.223  11.070  68.237  1.00  0.00    -0.582 OA 
BRANCH  12  15
HETATM   15  C   UNL     1     -11.529   9.963  70.184  1.00  0.00    -0.309 A  
HETATM   16  C   UNL     1     -10.712   8.908  69.753  1.00  0.00    -0.230 A  
HETATM   17  C   UNL     1     -10.680   7.703  70.473  1.00  0.00    -0.236 A  
HETATM   18  C   UNL     1     -11.441   7.560  71.637  1.00  0.00    -0.261 A  
HETATM   19  C   UNL     1     -12.240   9.843  71.381  1.00  0.00    -0.499 A  
HETATM   20 CL   UNL     1     -11.541   6.105  72.560  1.00  0.00    -0.318 Cl 
HETATM   21  C   UNL     1     -12.200   8.643  72.099  1.00  0.00    -0.453 A  
BRANCH  17  22
HETATM   22  S   UNL     1      -9.712   6.372  69.838  1.00  0.00    -0.167 S  
HETATM   23  O   UNL     1     -10.595   5.335  69.355  1.00  0.00    -0.252 OA 
HETATM   24  N   UNL     1      -9.019   7.015  68.452  1.00  0.00    -0.123 N  
HETATM   25  H1  UNL     1      -8.458   6.246  68.085  1.00  0.00     0.000 HD 
HETATM   26  O   UNL     1      -8.642   6.089  70.764  1.00  0.00    -0.131 OA 
HETATM   27  H2  UNL     1      -9.130   7.953  68.069  1.00  0.00     0.000 HD 
ENDBRANCH  17  22
ENDBRANCH  12  15
ENDBRANCH  10  11
TORSDOF 3
ENDMDL
MODEL       25
REMARK 921   NORMALIZED FREE ENERGY PREDICTED BY IDOCK:   -6.06 KCAL/MOL
REMARK 922        TOTAL FREE ENERGY PREDICTED BY IDOCK:   -7.78 KCAL/MOL
REMARK 923 INTER-LIGAND FREE ENERGY PREDICTED BY IDOCK:   -7.06 KCAL/MOL
REMARK 924 INTRA-LIGAND FREE ENERGY PREDICTED BY IDOCK:   -0.73 KCAL/MOL
REMARK 927      BINDING AFFINITY PREDICTED BY RF-SCORE:    0.00 PKD
ROOT
HETATM    1  C   UNL     1      -8.435   9.312  69.371  1.00  0.00    -0.137 C  
HETATM    2  C   UNL     1      -9.922   9.106  69.085  1.00  0.00    -0.187 A  
HETATM    3  C   UNL     1     -10.551   8.079  70.067  1.00  0.00    -0.242 A  
HETATM    4  C   UNL     1     -11.552   8.904  70.815  1.00  0.00    -0.301 A  
HETATM    5  C   UNL     1     -12.407   8.494  71.826  1.00  0.00    -0.388 A  
HETATM    6  C   UNL     1     -13.280   9.436  72.370  1.00  0.00    -0.483 A  
HETATM    7  C   UNL     1     -13.268  10.763  71.913  1.00  0.00    -0.524 A  
HETATM    8  C   UNL     1     -12.403  11.157  70.884  1.00  0.00    -0.500 A  
HETATM    9  C   UNL     1     -11.560  10.212  70.321  1.00  0.00    -0.302 A  
HETATM   10  N   UNL     1     -10.715  10.342  69.213  1.00  0.00    -0.220 NA 
ENDROOT
BRANCH  10  11
HETATM   11  N   UNL     1     -10.234  11.586  68.849  1.00  0.00    -0.339 N  
HETATM   12  C   UNL     1     -10.758  12.176  67.705  1.00  0.00    -0.220 C  
HETATM   13  H   UNL     1      -9.516  12.056  69.402  1.00  0.00     0.000 HD 
HETATM   14  O   UNL     1     -11.701  11.744  67.048  1.00  0.00    -0.555 OA 
BRANCH  12  15
HETATM   15  C   UNL     1     -10.022  13.372  67.213  1.00  0.00    -0.232 A  
HETATM   16  C   UNL     1      -8.804  13.706  67.823  1.00  0.00    -0.190 A  
HETATM   17  C   UNL     1      -8.150  14.902  67.481  1.00  0.00    -0.182 A  
HETATM   18  C   UNL     1      -8.697  15.749  66.513  1.00  0.00    -0.319 A  
HETATM   19  C   UNL     1     -10.535  14.188  66.202  1.00  0.00    -0.297 A  
HETATM   20 CL   UNL     1      -8.025  17.275  66.068  1.00  0.00    -0.274 Cl 
HETATM   21  C   UNL     1      -9.876  15.374  65.859  1.00  0.00    -0.387 A  
BRANCH  17  22
HETATM   22  S   UNL     1      -6.671  15.324  68.345  1.00  0.00    -0.121 S  
HETATM   23  O   UNL     1      -6.937  16.448  69.214  1.00  0.00    -0.208 OA 
HETATM   24  N   UNL     1      -6.438  14.030  69.386  1.00  0.00    -0.114 N  
HETATM   25  H1  UNL     1      -5.582  14.274  69.886  1.00  0.00     0.000 HD 
HETATM   26  O   UNL     1      -5.570  15.330  67.411  1.00  0.00    -0.338 OA 
HETATM   27  H2  UNL     1      -7.015  13.196  69.494  1.00  0.00     0.000 HD 
ENDBRANCH  17  22
ENDBRANCH  12  15
ENDBRANCH  10  11
TORSDOF 3
ENDMDL
MODEL       26
REMARK 921   NORMALIZED FREE ENERGY PREDICTED BY IDOCK:   -6.04 KCAL/MOL
REMARK 922        TOTAL FREE ENERGY PREDICTED BY IDOCK:   -7.76 KCAL/MOL
REMARK 923 INTER-LIGAND FREE ENERGY PREDICTED BY IDOCK:   -7.70 KCAL/MOL
REMARK 924 INTRA-LIGAND FREE ENERGY PREDICTED BY IDOCK:   -0.06 KCAL/MOL
REMARK 927      BINDING AFFINITY PREDICTED BY RF-SCORE:    0.00 PKD
ROOT
HETATM    1  C   UNL     1     -10.087   7.309  66.907  1.00  0.00    -0.317 C  
HETATM    2  C   UNL     1     -11.109   7.288  68.042  1.00  0.00     0.092 A  
HETATM    3  C   UNL     1     -10.882   6.075  68.987  1.00  0.00    -0.412 A  
HETATM    4  C   UNL     1     -10.532   6.729  70.289  1.00  0.00    -0.238 A  
HETATM    5  C   UNL     1     -10.226   6.115  71.493  1.00  0.00    -0.243 A  
HETATM    6  C   UNL     1      -9.950   6.928  72.593  1.00  0.00    -0.191 A  
HETATM    7  C   UNL     1      -9.964   8.325  72.465  1.00  0.00    -0.373 A  
HETATM    8  C   UNL     1     -10.285   8.927  71.240  1.00  0.00    -0.361 A  
HETATM    9  C   UNL     1     -10.593   8.119  70.158  1.00  0.00    -0.237 A  
HETATM   10  N   UNL     1     -11.060   8.492  68.892  1.00  0.00     0.160 NA 
ENDROOT
BRANCH  10  11
HETATM   11  N   UNL     1     -10.789   9.753  68.395  1.00  0.00    -0.366 N  
HETATM   12  C   UNL     1     -11.741  10.746  68.591  1.00  0.00    -0.219 C  
HETATM   13  H   UNL     1      -9.918   9.948  67.901  1.00  0.00     0.000 HD 
HETATM   14  O   UNL     1     -12.757  10.637  69.271  1.00  0.00    -0.202 OA 
BRANCH  12  15
HETATM   15  C   UNL     1     -11.525  11.995  67.810  1.00  0.00    -0.394 A  
HETATM   16  C   UNL     1     -11.820  11.988  66.439  1.00  0.00    -0.232 A  
HETATM   17  C   UNL     1     -11.500  13.101  65.644  1.00  0.00    -0.323 A  
HETATM   18  C   UNL     1     -10.912  14.230  66.221  1.00  0.00    -0.317 A  
HETATM   19  C   UNL     1     -10.995  13.147  68.397  1.00  0.00    -0.287 A  
HETATM   20 CL   UNL     1     -10.407  15.622  65.335  1.00  0.00    -0.406 Cl 
HETATM   21  C   UNL     1     -10.685  14.256  67.603  1.00  0.00    -0.259 A  
BRANCH  17  22
HETATM   22  S   UNL     1     -11.803  13.006  63.909  1.00  0.00    -0.504 S  
HETATM   23  O   UNL     1     -12.964  12.178  63.678  1.00  0.00    -0.780 OA 
HETATM   24  N   UNL     1     -12.302  14.556  63.509  1.00  0.00    -1.090 N  
HETATM   25  H1  UNL     1     -12.476  14.501  62.505  1.00  0.00     0.000 HD 
HETATM   26  O   UNL     1     -10.552  12.767  63.229  1.00  0.00    -0.201 OA 
HETATM   27  H2  UNL     1     -12.405  15.363  64.123  1.00  0.00     0.000 HD 
ENDBRANCH  17  22
ENDBRANCH  12  15
ENDBRANCH  10  11
TORSDOF 3
ENDMDL
MODEL       27
REMARK 921   NORMALIZED FREE ENERGY PREDICTED BY IDOCK:   -6.04 KCAL/MOL
REMARK 922        TOTAL FREE ENERGY PREDICTED BY IDOCK:   -7.76 KCAL/MOL
REMARK 923 INTER-LIGAND FREE ENERGY PREDICTED BY IDOCK:   -7.11 KCAL/MOL
REMARK 924 INTRA-LIGAND FREE ENERGY PREDICTED BY IDOCK:   -0.65 KCAL/MOL
REMARK 927      BINDING AFFINITY PREDICTED BY RF-SCORE:    0.00 PKD
ROOT
HETATM    1  C   UNL     1      -9.371   9.343  65.390  1.00  0.00    -0.311 C  
HETATM    2  C   UNL     1      -9.152  10.839  65.609  1.00  0.00    -0.194 A  
HETATM    3  C   UNL     1      -9.463  11.652  64.321  1.00  0.00    -0.045 A  
HETATM    4  C   UNL     1     -10.625  12.501  64.736  1.00  0.00    -0.333 A  
HETATM    5  C   UNL     1     -11.318  13.427  63.972  1.00  0.00    -0.356 A  
HETATM    6  C   UNL     1     -12.364  14.125  64.575  1.00  0.00    -0.419 A  
HETATM    7  C   UNL     1     -12.708  13.873  65.912  1.00  0.00    -0.466 A  
HETATM    8  C   UNL     1     -11.991  12.939  66.671  1.00  0.00    -0.436 A  
HETATM    9  C   UNL     1     -10.930  12.271  66.081  1.00  0.00    -0.293 A  
HETATM   10  N   UNL     1     -10.005  11.402  66.671  1.00  0.00    -0.203 NA 
ENDROOT
BRANCH  10  11
HETATM   11  N   UNL     1     -10.340  10.704  67.816  1.00  0.00    -0.193 N  
HETATM   12  C   UNL     1      -9.499  10.820  68.917  1.00  0.00    -0.181 C  
HETATM   13  H   UNL     1     -11.178  10.122  67.852  1.00  0.00     0.000 HD 
HETATM   14  O   UNL     1      -8.542  11.583  69.007  1.00  0.00    -0.030 OA 
BRANCH  12  15
HETATM   15  C   UNL     1      -9.755   9.847  70.015  1.00  0.00    -0.274 A  
HETATM   16  C   UNL     1     -11.083   9.542  70.344  1.00  0.00    -0.330 A  
HETATM   17  C   UNL     1     -11.365   8.737  71.460  1.00  0.00    -0.304 A  
HETATM   18  C   UNL     1     -10.322   8.216  72.231  1.00  0.00    -0.292 A  
HETATM   19  C   UNL     1      -8.712   9.276  70.748  1.00  0.00    -0.272 A  
HETATM   20 CL   UNL     1     -10.547   7.282  73.665  1.00  0.00    -0.407 Cl 
HETATM   21  C   UNL     1      -8.997   8.469  71.855  1.00  0.00    -0.301 A  
BRANCH  17  22
HETATM   22  S   UNL     1     -13.053   8.460  71.889  1.00  0.00    -0.361 S  
HETATM   23  O   UNL     1     -13.302   9.009  73.203  1.00  0.00    -0.214 OA 
HETATM   24  N   UNL     1     -13.896   9.467  70.845  1.00  0.00    -0.508 N  
HETATM   25  H1  UNL     1     -14.873   9.307  71.092  1.00  0.00     0.000 HD 
HETATM   26  O   UNL     1     -13.404   7.101  71.554  1.00  0.00    -0.383 OA 
HETATM   27  H2  UNL     1     -13.521  10.090  70.131  1.00  0.00     0.000 HD 
ENDBRANCH  17  22
ENDBRANCH  12  15
ENDBRANCH  10  11
TORSDOF 3
ENDMDL
MODEL       28
REMARK 921   NORMALIZED FREE ENERGY PREDICTED BY IDOCK:   -6.02 KCAL/MOL
REMARK 922        TOTAL FREE ENERGY PREDICTED BY IDOCK:   -7.74 KCAL/MOL
REMARK 923 INTER-LIGAND FREE ENERGY PREDICTED BY IDOCK:   -7.09 KCAL/MOL
REMARK 924 INTRA-LIGAND FREE ENERGY PREDICTED BY IDOCK:   -0.65 KCAL/MOL
REMARK 927      BINDING AFFINITY PREDICTED BY RF-SCORE:    0.00 PKD
ROOT
HETATM    1  C   UNL     1      -8.807  10.281  65.401  1.00  0.00    -0.192 C  
HETATM    2  C   UNL     1     -10.152   9.773  65.920  1.00  0.00    -0.243 A  
HETATM    3  C   UNL     1     -10.022   8.352  66.535  1.00  0.00    -0.335 A  
HETATM    4  C   UNL     1     -10.376   8.578  67.973  1.00  0.00    -0.272 A  
HETATM    5  C   UNL     1     -10.422   7.643  68.995  1.00  0.00    -0.214 A  
HETATM    6  C   UNL     1     -10.802   8.077  70.265  1.00  0.00    -0.241 A  
HETATM    7  C   UNL     1     -11.106   9.428  70.493  1.00  0.00    -0.330 A  
HETATM    8  C   UNL     1     -11.061  10.358  69.445  1.00  0.00    -0.304 A  
HETATM    9  C   UNL     1     -10.718   9.919  68.176  1.00  0.00    -0.233 A  
HETATM   10  N   UNL     1     -10.731  10.629  66.971  1.00  0.00    -0.266 NA 
ENDROOT
BRANCH  10  11
HETATM   11  N   UNL     1     -10.605  12.006  66.974  1.00  0.00    -0.221 N  
HETATM   12  C   UNL     1     -11.464  12.739  66.163  1.00  0.00    -0.351 C  
HETATM   13  H   UNL     1      -9.904  12.469  67.553  1.00  0.00     0.000 HD 
HETATM   14  O   UNL     1     -12.410  12.281  65.529  1.00  0.00    -0.602 OA 
BRANCH  12  15
HETATM   15  C   UNL     1     -11.109  14.175  65.999  1.00  0.00    -0.314 A  
HETATM   16  C   UNL     1     -10.407  14.814  67.031  1.00  0.00    -0.255 A  
HETATM   17  C   UNL     1     -10.176  16.199  66.973  1.00  0.00    -0.285 A  
HETATM   18  C   UNL     1     -10.621  16.939  65.875  1.00  0.00    -0.233 A  
HETATM   19  C   UNL     1     -11.499  14.905  64.873  1.00  0.00    -0.407 A  
HETATM   20 CL   UNL     1     -10.463  18.652  65.730  1.00  0.00    -0.406 Cl 
HETATM   21  C   UNL     1     -11.260  16.282  64.816  1.00  0.00    -0.267 A  
BRANCH  17  22
HETATM   22  S   UNL     1      -9.373  16.971  68.341  1.00  0.00    -0.273 S  
HETATM   23  O   UNL     1     -10.308  17.855  68.999  1.00  0.00    -0.361 OA 
HETATM   24  N   UNL     1      -9.143  15.714  69.426  1.00  0.00    -0.274 N  
HETATM   25  H1  UNL     1      -8.678  16.161  70.217  1.00  0.00     0.000 HD 
HETATM   26  O   UNL     1      -8.068  17.423  67.921  1.00  0.00    -0.210 OA 
HETATM   27  H2  UNL     1      -9.405  14.734  69.321  1.00  0.00     0.000 HD 
ENDBRANCH  17  22
ENDBRANCH  12  15
ENDBRANCH  10  11
TORSDOF 3
ENDMDL
MODEL       29
REMARK 921   NORMALIZED FREE ENERGY PREDICTED BY IDOCK:   -5.98 KCAL/MOL
REMARK 922        TOTAL FREE ENERGY PREDICTED BY IDOCK:   -7.70 KCAL/MOL
REMARK 923 INTER-LIGAND FREE ENERGY PREDICTED BY IDOCK:   -7.44 KCAL/MOL
REMARK 924 INTRA-LIGAND FREE ENERGY PREDICTED BY IDOCK:   -0.26 KCAL/MOL
REMARK 927      BINDING AFFINITY PREDICTED BY RF-SCORE:    0.00 PKD
ROOT
HETATM    1  C   UNL     1      -8.364  10.806  68.956  1.00  0.00    -0.138 C  
HETATM    2  C   UNL     1      -9.733  10.153  68.773  1.00  0.00    -0.172 A  
HETATM    3  C   UNL     1      -9.947   8.990  69.782  1.00  0.00    -0.204 A  
HETATM    4  C   UNL     1     -11.096   9.475  70.610  1.00  0.00    -0.364 A  
HETATM    5  C   UNL     1     -11.710   8.831  71.673  1.00  0.00    -0.402 A  
HETATM    6  C   UNL     1     -12.788   9.465  72.291  1.00  0.00    -0.452 A  
HETATM    7  C   UNL     1     -13.216  10.728  71.853  1.00  0.00    -0.524 A  
HETATM    8  C   UNL     1     -12.587  11.360  70.772  1.00  0.00    -0.409 A  
HETATM    9  C   UNL     1     -11.539  10.714  70.136  1.00  0.00    -0.330 A  
HETATM   10  N   UNL     1     -10.855  11.088  68.974  1.00  0.00    -0.214 NA 
ENDROOT
BRANCH  10  11
HETATM   11  N   UNL     1     -10.805  12.416  68.595  1.00  0.00    -0.234 N  
HETATM   12  C   UNL     1     -11.294  12.752  67.338  1.00  0.00    -0.313 C  
HETATM   13  H   UNL     1     -10.421  13.128  69.218  1.00  0.00     0.000 HD 
HETATM   14  O   UNL     1     -11.878  11.991  66.573  1.00  0.00    -0.585 OA 
BRANCH  12  15
HETATM   15  C   UNL     1     -10.970  14.131  66.879  1.00  0.00    -0.302 A  
HETATM   16  C   UNL     1     -10.486  15.053  67.817  1.00  0.00    -0.249 A  
HETATM   17  C   UNL     1     -10.299  16.397  67.453  1.00  0.00    -0.295 A  
HETATM   18  C   UNL     1     -10.571  16.814  66.147  1.00  0.00    -0.210 A  
HETATM   19  C   UNL     1     -11.180  14.534  65.558  1.00  0.00    -0.335 A  
HETATM   20 CL   UNL     1     -10.453  18.448  65.605  1.00  0.00    -0.268 Cl 
HETATM   21  C   UNL     1     -10.987  15.872  65.198  1.00  0.00    -0.389 A  
BRANCH  17  22
HETATM   22  S   UNL     1      -9.781  17.537  68.695  1.00  0.00    -0.316 S  
HETATM   23  O   UNL     1     -10.297  18.849  68.375  1.00  0.00    -0.365 OA 
HETATM   24  N   UNL     1     -10.643  17.063  70.052  1.00  0.00    -0.157 N  
HETATM   25  H1  UNL     1     -10.343  17.722  70.771  1.00  0.00     0.000 HD 
HETATM   26  O   UNL     1      -8.382  17.319  68.974  1.00  0.00    -0.212 OA 
HETATM   27  H2  UNL     1     -11.309  16.296  70.140  1.00  0.00     0.000 HD 
ENDBRANCH  17  22
ENDBRANCH  12  15
ENDBRANCH  10  11
TORSDOF 3
ENDMDL
MODEL       30
REMARK 921   NORMALIZED FREE ENERGY PREDICTED BY IDOCK:   -5.96 KCAL/MOL
REMARK 922        TOTAL FREE ENERGY PREDICTED BY IDOCK:   -7.66 KCAL/MOL
REMARK 923 INTER-LIGAND FREE ENERGY PREDICTED BY IDOCK:   -7.24 KCAL/MOL
REMARK 924 INTRA-LIGAND FREE ENERGY PREDICTED BY IDOCK:   -0.42 KCAL/MOL
REMARK 927      BINDING AFFINITY PREDICTED BY RF-SCORE:    0.00 PKD
ROOT
HETATM    1  C   UNL     1      -6.939  10.480  70.079  1.00  0.00    -0.150 C  
HETATM    2  C   UNL     1      -7.530   9.071  70.104  1.00  0.00    -0.072 A  
HETATM    3  C   UNL     1      -7.421   8.435  71.517  1.00  0.00    -0.111 A  
HETATM    4  C   UNL     1      -8.854   8.258  71.914  1.00  0.00    -0.238 A  
HETATM    5  C   UNL     1      -9.350   7.729  73.095  1.00  0.00    -0.315 A  
HETATM    6  C   UNL     1     -10.735   7.639  73.243  1.00  0.00    -0.409 A  
HETATM    7  C   UNL     1     -11.589   8.093  72.228  1.00  0.00    -0.436 A  
HETATM    8  C   UNL     1     -11.069   8.618  71.037  1.00  0.00    -0.316 A  
HETATM    9  C   UNL     1      -9.694   8.674  70.876  1.00  0.00    -0.204 A  
HETATM   10  N   UNL     1      -8.959   9.034  69.741  1.00  0.00    -0.146 NA 
ENDROOT
BRANCH  10  11
HETATM   11  N   UNL     1      -9.515   9.866  68.788  1.00  0.00    -0.152 N  
HETATM   12  C   UNL     1      -9.883   9.306  67.570  1.00  0.00    -0.175 C  
HETATM   13  H   UNL     1      -9.651  10.861  68.973  1.00  0.00     0.000 HD 
HETATM   14  O   UNL     1      -9.868   8.109  67.303  1.00  0.00    -0.164 OA 
BRANCH  12  15
HETATM   15  C   UNL     1     -10.218  10.283  66.498  1.00  0.00    -0.289 A  
HETATM   16  C   UNL     1     -10.804  11.504  66.863  1.00  0.00    -0.331 A  
HETATM   17  C   UNL     1     -11.259  12.391  65.873  1.00  0.00    -0.336 A  
HETATM   18  C   UNL     1     -11.106  12.071  64.521  1.00  0.00    -0.331 A  
HETATM   19  C   UNL     1     -10.009   9.993  65.147  1.00  0.00    -0.350 A  
HETATM   20 CL   UNL     1     -11.693  13.044  63.222  1.00  0.00    -0.485 Cl 
HETATM   21  C   UNL     1     -10.458  10.882  64.165  1.00  0.00    -0.397 A  
BRANCH  17  22
HETATM   22  S   UNL     1     -12.075  13.869  66.384  1.00  0.00    -0.454 S  
HETATM   23  O   UNL     1     -12.188  13.871  67.825  1.00  0.00    -0.338 OA 
HETATM   24  N   UNL     1     -10.958  15.073  66.046  1.00  0.00    -0.331 N  
HETATM   25  H1  UNL     1     -11.430  15.929  66.341  1.00  0.00     0.000 HD 
HETATM   26  O   UNL     1     -13.219  14.090  65.531  1.00  0.00    -0.710 OA 
HETATM   27  H2  UNL     1     -10.028  14.975  65.640  1.00  0.00     0.000 HD 
ENDBRANCH  17  22
ENDBRANCH  12  15
ENDBRANCH  10  11
TORSDOF 3
ENDMDL
MODEL       31
REMARK 921   NORMALIZED FREE ENERGY PREDICTED BY IDOCK:   -5.93 KCAL/MOL
REMARK 922        TOTAL FREE ENERGY PREDICTED BY IDOCK:   -7.63 KCAL/MOL
REMARK 923 INTER-LIGAND FREE ENERGY PREDICTED BY IDOCK:   -7.23 KCAL/MOL
REMARK 924 INTRA-LIGAND FREE ENERGY PREDICTED BY IDOCK:   -0.40 KCAL/MOL
REMARK 927      BINDING AFFINITY PREDICTED BY RF-SCORE:    0.00 PKD
ROOT
HETATM    1  C   UNL     1      -7.504  10.189  67.976  1.00  0.00    -0.087 C  
HETATM    2  C   UNL     1      -8.304   9.782  66.740  1.00  0.00    -0.124 A  
HETATM    3  C   UNL     1      -7.585   8.657  65.944  1.00  0.00    -0.089 A  
HETATM    4  C   UNL     1      -8.544   7.511  66.048  1.00  0.00    -0.164 A  
HETATM    5  C   UNL     1      -8.409   6.238  65.516  1.00  0.00    -0.147 A  
HETATM    6  C   UNL     1      -9.446   5.328  65.721  1.00  0.00    -0.132 A  
HETATM    7  C   UNL     1     -10.579   5.696  66.462  1.00  0.00    -0.320 A  
HETATM    8  C   UNL     1     -10.702   6.991  66.984  1.00  0.00    -0.423 A  
HETATM    9  C   UNL     1      -9.686   7.905  66.751  1.00  0.00    -0.234 A  
HETATM   10  N   UNL     1      -9.648   9.269  67.060  1.00  0.00    -0.161 NA 
ENDROOT
BRANCH  10  11
HETATM   11  N   UNL     1     -10.417   9.769  68.095  1.00  0.00    -0.203 N  
HETATM   12  C   UNL     1     -11.242  10.855  67.826  1.00  0.00    -0.317 C  
HETATM   13  H   UNL     1     -10.380   9.354  69.026  1.00  0.00     0.000 HD 
HETATM   14  O   UNL     1     -11.442  11.341  66.717  1.00  0.00    -0.407 OA 
BRANCH  12  15
HETATM   15  C   UNL     1     -11.833  11.515  69.022  1.00  0.00    -0.408 A  
HETATM   16  C   UNL     1     -11.842  12.916  69.078  1.00  0.00    -0.352 A  
HETATM   17  C   UNL     1     -12.264  13.571  70.247  1.00  0.00    -0.347 A  
HETATM   18  C   UNL     1     -12.701  12.829  71.348  1.00  0.00    -0.255 A  
HETATM   19  C   UNL     1     -12.328  10.776  70.100  1.00  0.00    -0.401 A  
HETATM   20 CL   UNL     1     -13.169  13.520  72.860  1.00  0.00    -0.361 Cl 
HETATM   21  C   UNL     1     -12.754  11.433  71.259  1.00  0.00    -0.498 A  
BRANCH  17  22
HETATM   22  S   UNL     1     -12.167  15.331  70.302  1.00  0.00    -0.376 S  
HETATM   23  O   UNL     1     -11.970  15.835  68.962  1.00  0.00    -0.385 OA 
HETATM   24  N   UNL     1     -13.725  15.801  70.705  1.00  0.00    -0.664 N  
HETATM   25  H1  UNL     1     -13.669  16.819  70.737  1.00  0.00     0.000 HD 
HETATM   26  O   UNL     1     -11.304  15.718  71.393  1.00  0.00    -0.375 OA 
HETATM   27  H2  UNL     1     -14.537  15.209  70.878  1.00  0.00     0.000 HD 
ENDBRANCH  17  22
ENDBRANCH  12  15
ENDBRANCH  10  11
TORSDOF 3
ENDMDL
MODEL       32
REMARK 921   NORMALIZED FREE ENERGY PREDICTED BY IDOCK:   -5.93 KCAL/MOL
REMARK 922        TOTAL FREE ENERGY PREDICTED BY IDOCK:   -7.63 KCAL/MOL
REMARK 923 INTER-LIGAND FREE ENERGY PREDICTED BY IDOCK:   -7.05 KCAL/MOL
REMARK 924 INTRA-LIGAND FREE ENERGY PREDICTED BY IDOCK:   -0.58 KCAL/MOL
REMARK 927      BINDING AFFINITY PREDICTED BY RF-SCORE:    0.00 PKD
ROOT
HETATM    1  C   UNL     1     -11.081  10.312  70.358  1.00  0.00    -0.391 C  
HETATM    2  C   UNL     1     -12.227  11.260  70.009  1.00  0.00    -0.314 A  
HETATM    3  C   UNL     1     -12.667  12.097  71.242  1.00  0.00    -0.363 A  
HETATM    4  C   UNL     1     -12.345  13.499  70.824  1.00  0.00    -0.440 A  
HETATM    5  C   UNL     1     -12.531  14.666  71.549  1.00  0.00    -0.411 A  
HETATM    6  C   UNL     1     -12.176  15.874  70.949  1.00  0.00    -0.397 A  
HETATM    7  C   UNL     1     -11.627  15.892  69.657  1.00  0.00    -0.339 A  
HETATM    8  C   UNL     1     -11.454  14.702  68.937  1.00  0.00    -0.323 A  
HETATM    9  C   UNL     1     -11.840  13.506  69.521  1.00  0.00    -0.334 A  
HETATM   10  N   UNL     1     -11.879  12.228  68.953  1.00  0.00    -0.314 NA 
ENDROOT
BRANCH  10  11
HETATM   11  N   UNL     1     -11.056  11.915  67.887  1.00  0.00    -0.226 N  
HETATM   12  C   UNL     1     -11.558  12.095  66.604  1.00  0.00    -0.350 C  
HETATM   13  H   UNL     1     -10.110  11.564  68.038  1.00  0.00     0.000 HD 
HETATM   14  O   UNL     1     -12.632  12.620  66.324  1.00  0.00    -0.358 OA 
BRANCH  12  15
HETATM   15  C   UNL     1     -10.742  11.494  65.513  1.00  0.00    -0.328 A  
HETATM   16  C   UNL     1      -9.926  10.394  65.815  1.00  0.00    -0.334 A  
HETATM   17  C   UNL     1      -9.040   9.888  64.849  1.00  0.00    -0.224 A  
HETATM   18  C   UNL     1      -8.988  10.461  63.576  1.00  0.00    -0.233 A  
HETATM   19  C   UNL     1     -10.734  12.026  64.221  1.00  0.00    -0.382 A  
HETATM   20 CL   UNL     1      -7.890   9.975  62.336  1.00  0.00    -0.132 Cl 
HETATM   21  C   UNL     1      -9.856  11.514  63.261  1.00  0.00    -0.431 A  
BRANCH  17  22
HETATM   22  S   UNL     1      -7.967   8.566  65.309  1.00  0.00    -0.128 S  
HETATM   23  O   UNL     1      -6.629   9.084  65.486  1.00  0.00    -0.067 OA 
HETATM   24  N   UNL     1      -8.473   8.165  66.856  1.00  0.00    -0.118 N  
HETATM   25  H1  UNL     1      -7.852   7.400  67.121  1.00  0.00     0.000 HD 
HETATM   26  O   UNL     1      -8.235   7.430  64.459  1.00  0.00    -0.114 OA 
HETATM   27  H2  UNL     1      -9.224   8.585  67.402  1.00  0.00     0.000 HD 
ENDBRANCH  17  22
ENDBRANCH  12  15
ENDBRANCH  10  11
TORSDOF 3
ENDMDL
MODEL       33
REMARK 921   NORMALIZED FREE ENERGY PREDICTED BY IDOCK:   -5.92 KCAL/MOL
REMARK 922        TOTAL FREE ENERGY PREDICTED BY IDOCK:   -7.62 KCAL/MOL
REMARK 923 INTER-LIGAND FREE ENERGY PREDICTED BY IDOCK:   -7.16 KCAL/MOL
REMARK 924 INTRA-LIGAND FREE ENERGY PREDICTED BY IDOCK:   -0.46 KCAL/MOL
REMARK 927      BINDING AFFINITY PREDICTED BY RF-SCORE:    0.00 PKD
ROOT
HETATM    1  C   UNL     1     -12.435  13.031  65.203  1.00  0.00    -0.552 C  
HETATM    2  C   UNL     1     -11.047  13.611  65.475  1.00  0.00    -0.295 A  
HETATM    3  C   UNL     1     -11.001  15.135  65.175  1.00  0.00    -0.428 A  
HETATM    4  C   UNL     1     -10.716  15.730  66.519  1.00  0.00    -0.283 A  
HETATM    5  C   UNL     1     -10.570  17.070  66.842  1.00  0.00    -0.208 A  
HETATM    6  C   UNL     1     -10.283  17.398  68.168  1.00  0.00    -0.350 A  
HETATM    7  C   UNL     1     -10.169  16.392  69.140  1.00  0.00    -0.280 A  
HETATM    8  C   UNL     1     -10.311  15.042  68.792  1.00  0.00    -0.240 A  
HETATM    9  C   UNL     1     -10.562  14.716  67.469  1.00  0.00    -0.257 A  
HETATM   10  N   UNL     1     -10.614  13.450  66.875  1.00  0.00    -0.271 NA 
ENDROOT
BRANCH  10  11
HETATM   11  N   UNL     1     -10.924  12.338  67.635  1.00  0.00    -0.233 N  
HETATM   12  C   UNL     1      -9.892  11.463  67.957  1.00  0.00    -0.184 C  
HETATM   13  H   UNL     1     -11.879  12.164  67.950  1.00  0.00     0.000 HD 
HETATM   14  O   UNL     1      -8.701  11.649  67.727  1.00  0.00    -0.142 OA 
BRANCH  12  15
HETATM   15  C   UNL     1     -10.322  10.161  68.536  1.00  0.00    -0.203 A  
HETATM   16  C   UNL     1     -11.177  10.171  69.647  1.00  0.00    -0.310 A  
HETATM   17  C   UNL     1     -11.494   8.970  70.304  1.00  0.00    -0.124 A  
HETATM   18  C   UNL     1     -10.979   7.757  69.835  1.00  0.00    -0.190 A  
HETATM   19  C   UNL     1      -9.860   8.943  68.031  1.00  0.00    -0.199 A  
HETATM   20 CL   UNL     1     -11.236   6.233  70.602  1.00  0.00    -0.383 Cl 
HETATM   21  C   UNL     1     -10.183   7.749  68.683  1.00  0.00    -0.217 A  
BRANCH  17  22
HETATM   22  S   UNL     1     -12.495   9.046  71.754  1.00  0.00    -0.396 S  
HETATM   23  O   UNL     1     -12.942  10.407  71.947  1.00  0.00    -0.438 OA 
HETATM   24  N   UNL     1     -13.880   8.204  71.323  1.00  0.00    -0.585 N  
HETATM   25  H1  UNL     1     -14.459   8.248  72.162  1.00  0.00     0.000 HD 
HETATM   26  O   UNL     1     -11.848   8.302  72.808  1.00  0.00    -0.388 OA 
HETATM   27  H2  UNL     1     -14.092   7.753  70.433  1.00  0.00     0.000 HD 
ENDBRANCH  17  22
ENDBRANCH  12  15
ENDBRANCH  10  11
TORSDOF 3
ENDMDL
MODEL       34
REMARK 921   NORMALIZED FREE ENERGY PREDICTED BY IDOCK:   -5.91 KCAL/MOL
REMARK 922        TOTAL FREE ENERGY PREDICTED BY IDOCK:   -7.61 KCAL/MOL
REMARK 923 INTER-LIGAND FREE ENERGY PREDICTED BY IDOCK:   -6.94 KCAL/MOL
REMARK 924 INTRA-LIGAND FREE ENERGY PREDICTED BY IDOCK:   -0.67 KCAL/MOL
REMARK 927      BINDING AFFINITY PREDICTED BY RF-SCORE:    0.00 PKD
ROOT
HETATM    1  C   UNL     1     -10.684  14.018  68.887  1.00  0.00    -0.265 C  
HETATM    2  C   UNL     1     -11.675  13.403  67.900  1.00  0.00    -0.361 A  
HETATM    3  C   UNL     1     -11.671  14.164  66.545  1.00  0.00    -0.414 A  
HETATM    4  C   UNL     1     -11.184  13.126  65.582  1.00  0.00    -0.306 A  
HETATM    5  C   UNL     1     -10.984  13.260  64.217  1.00  0.00    -0.418 A  
HETATM    6  C   UNL     1     -10.541  12.144  63.506  1.00  0.00    -0.501 A  
HETATM    7  C   UNL     1     -10.289  10.933  64.169  1.00  0.00    -0.432 A  
HETATM    8  C   UNL     1     -10.505  10.815  65.548  1.00  0.00    -0.264 A  
HETATM    9  C   UNL     1     -10.978  11.914  66.247  1.00  0.00    -0.302 A  
HETATM   10  N   UNL     1     -11.383  11.993  67.585  1.00  0.00    -0.285 NA 
ENDROOT
BRANCH  10  11
HETATM   11  N   UNL     1     -10.882  11.102  68.516  1.00  0.00    -0.187 N  
HETATM   12  C   UNL     1     -11.780  10.512  69.398  1.00  0.00    -0.223 C  
HETATM   13  H   UNL     1      -9.886  10.885  68.554  1.00  0.00     0.000 HD 
HETATM   14  O   UNL     1     -13.001  10.620  69.352  1.00  0.00    -0.045 OA 
BRANCH  12  15
HETATM   15  C   UNL     1     -11.161   9.782  70.539  1.00  0.00    -0.384 A  
HETATM   16  C   UNL     1      -9.772   9.589  70.536  1.00  0.00    -0.325 A  
HETATM   17  C   UNL     1      -9.171   8.788  71.521  1.00  0.00    -0.262 A  
HETATM   18  C   UNL     1      -9.951   8.205  72.524  1.00  0.00    -0.302 A  
HETATM   19  C   UNL     1     -11.931   9.250  71.576  1.00  0.00    -0.439 A  
HETATM   20 CL   UNL     1      -9.335   7.144  73.738  1.00  0.00    -0.247 Cl 
HETATM   21  C   UNL     1     -11.327   8.460  72.560  1.00  0.00    -0.416 A  
BRANCH  17  22
HETATM   22  S   UNL     1      -7.434   8.497  71.419  1.00  0.00    -0.109 S  
HETATM   23  O   UNL     1      -7.209   7.124  71.028  1.00  0.00    -0.071 OA 
HETATM   24  N   UNL     1      -6.960   9.398  70.086  1.00  0.00    -0.065 N  
HETATM   25  H1  UNL     1      -5.955   9.230  70.027  1.00  0.00     0.000 HD 
HETATM   26  O   UNL     1      -6.794   9.072  72.578  1.00  0.00    -0.313 OA 
HETATM   27  H2  UNL     1      -7.539   9.978  69.479  1.00  0.00     0.000 HD 
ENDBRANCH  17  22
ENDBRANCH  12  15
ENDBRANCH  10  11
TORSDOF 3
ENDMDL
MODEL       35
REMARK 921   NORMALIZED FREE ENERGY PREDICTED BY IDOCK:   -5.85 KCAL/MOL
REMARK 922        TOTAL FREE ENERGY PREDICTED BY IDOCK:   -7.54 KCAL/MOL
REMARK 923 INTER-LIGAND FREE ENERGY PREDICTED BY IDOCK:   -7.10 KCAL/MOL
REMARK 924 INTRA-LIGAND FREE ENERGY PREDICTED BY IDOCK:   -0.44 KCAL/MOL
REMARK 927      BINDING AFFINITY PREDICTED BY RF-SCORE:    0.00 PKD
ROOT
HETATM    1  C   UNL     1     -11.787  15.933  70.707  1.00  0.00    -0.423 C  
HETATM    2  C   UNL     1     -11.653  15.804  69.190  1.00  0.00    -0.392 A  
HETATM    3  C   UNL     1     -11.035  17.085  68.564  1.00  0.00    -0.247 A  
HETATM    4  C   UNL     1      -9.744  16.586  67.992  1.00  0.00    -0.236 A  
HETATM    5  C   UNL     1      -8.778  17.312  67.312  1.00  0.00    -0.221 A  
HETATM    6  C   UNL     1      -7.654  16.631  66.844  1.00  0.00    -0.262 A  
HETATM    7  C   UNL     1      -7.507  15.255  67.080  1.00  0.00    -0.202 A  
HETATM    8  C   UNL     1      -8.498  14.537  67.763  1.00  0.00    -0.176 A  
HETATM    9  C   UNL     1      -9.630  15.207  68.196  1.00  0.00    -0.205 A  
HETATM   10  N   UNL     1     -10.790  14.682  68.777  1.00  0.00    -0.246 NA 
ENDROOT
BRANCH  10  11
HETATM   11  N   UNL     1     -10.743  13.479  69.455  1.00  0.00    -0.436 N  
HETATM   12  C   UNL     1     -11.554  12.444  69.002  1.00  0.00    -0.311 C  
HETATM   13  H   UNL     1     -10.133  13.353  70.264  1.00  0.00     0.000 HD 
HETATM   14  O   UNL     1     -12.225  12.463  67.974  1.00  0.00    -0.356 OA 
BRANCH  12  15
HETATM   15  C   UNL     1     -11.667  11.278  69.919  1.00  0.00    -0.430 A  
HETATM   16  C   UNL     1     -10.940  10.117  69.619  1.00  0.00    -0.305 A  
HETATM   17  C   UNL     1     -11.126   8.952  70.382  1.00  0.00    -0.239 A  
HETATM   18  C   UNL     1     -12.017   8.954  71.460  1.00  0.00    -0.333 A  
HETATM   19  C   UNL     1     -12.509  11.297  71.034  1.00  0.00    -0.503 A  
HETATM   20 CL   UNL     1     -12.384   7.567  72.419  1.00  0.00    -0.178 Cl 
HETATM   21  C   UNL     1     -12.686  10.138  71.796  1.00  0.00    -0.534 A  
BRANCH  17  22
HETATM   22  S   UNL     1     -10.261   7.490  69.906  1.00  0.00    -0.215 S  
HETATM   23  O   UNL     1      -9.330   7.817  68.850  1.00  0.00    -0.147 OA 
HETATM   24  N   UNL     1      -9.294   7.153  71.233  1.00  0.00    -0.156 N  
HETATM   25  H1  UNL     1      -8.794   6.307  70.958  1.00  0.00     0.000 HD 
HETATM   26  O   UNL     1     -11.208   6.409  69.776  1.00  0.00    -0.352 OA 
HETATM   27  H2  UNL     1      -9.223   7.670  72.109  1.00  0.00     0.000 HD 
ENDBRANCH  17  22
ENDBRANCH  12  15
ENDBRANCH  10  11
TORSDOF 3
ENDMDL
MODEL       36
REMARK 921   NORMALIZED FREE ENERGY PREDICTED BY IDOCK:   -5.84 KCAL/MOL
REMARK 922        TOTAL FREE ENERGY PREDICTED BY IDOCK:   -7.52 KCAL/MOL
REMARK 923 INTER-LIGAND FREE ENERGY PREDICTED BY IDOCK:   -6.97 KCAL/MOL
REMARK 924 INTRA-LIGAND FREE ENERGY PREDICTED BY IDOCK:   -0.55 KCAL/MOL
REMARK 927      BINDING AFFINITY PREDICTED BY RF-SCORE:    0.00 PKD
ROOT
HETATM    1  C   UNL     1     -11.720  14.474  66.997  1.00  0.00    -0.412 C  
HETATM    2  C   UNL     1     -11.178  14.594  68.420  1.00  0.00    -0.274 A  
HETATM    3  C   UNL     1     -12.016  15.595  69.264  1.00  0.00    -0.338 A  
HETATM    4  C   UNL     1     -12.595  14.723  70.335  1.00  0.00    -0.399 A  
HETATM    5  C   UNL     1     -13.434  15.095  71.374  1.00  0.00    -0.561 A  
HETATM    6  C   UNL     1     -13.838  14.111  72.277  1.00  0.00    -0.643 A  
HETATM    7  C   UNL     1     -13.416  12.783  72.115  1.00  0.00    -0.591 A  
HETATM    8  C   UNL     1     -12.561  12.427  71.064  1.00  0.00    -0.349 A  
HETATM    9  C   UNL     1     -12.133  13.412  70.188  1.00  0.00    -0.344 A  
HETATM   10  N   UNL     1     -11.191  13.317  69.157  1.00  0.00    -0.264 NA 
ENDROOT
BRANCH  10  11
HETATM   11  N   UNL     1     -10.940  12.099  68.554  1.00  0.00    -0.225 N  
HETATM   12  C   UNL     1      -9.622  11.785  68.246  1.00  0.00    -0.199 C  
HETATM   13  H   UNL     1     -11.699  11.450  68.343  1.00  0.00     0.000 HD 
HETATM   14  O   UNL     1      -8.638  12.444  68.568  1.00  0.00    -0.148 OA 
BRANCH  12  15
HETATM   15  C   UNL     1      -9.441  10.599  67.365  1.00  0.00    -0.172 A  
HETATM   16  C   UNL     1      -9.938   9.361  67.797  1.00  0.00    -0.228 A  
HETATM   17  C   UNL     1      -9.667   8.197  67.059  1.00  0.00    -0.212 A  
HETATM   18  C   UNL     1      -8.924   8.272  65.877  1.00  0.00    -0.163 A  
HETATM   19  C   UNL     1      -8.753  10.682  66.151  1.00  0.00    -0.178 A  
HETATM   20 CL   UNL     1      -8.466   6.904  64.930  1.00  0.00    -0.013 Cl 
HETATM   21  C   UNL     1      -8.492   9.521  65.416  1.00  0.00    -0.157 A  
BRANCH  17  22
HETATM   22  S   UNL     1     -10.233   6.652  67.694  1.00  0.00    -0.202 S  
HETATM   23  O   UNL     1      -9.114   5.942  68.272  1.00  0.00    -0.119 OA 
HETATM   24  N   UNL     1     -11.180   7.087  69.008  1.00  0.00    -0.491 N  
HETATM   25  H1  UNL     1     -11.507   6.193  69.375  1.00  0.00     0.000 HD 
HETATM   26  O   UNL     1     -11.102   6.036  66.721  1.00  0.00    -0.291 OA 
HETATM   27  H2  UNL     1     -11.382   8.024  69.356  1.00  0.00     0.000 HD 
ENDBRANCH  17  22
ENDBRANCH  12  15
ENDBRANCH  10  11
TORSDOF 3
ENDMDL
MODEL       37
REMARK 921   NORMALIZED FREE ENERGY PREDICTED BY IDOCK:   -5.82 KCAL/MOL
REMARK 922        TOTAL FREE ENERGY PREDICTED BY IDOCK:   -7.50 KCAL/MOL
REMARK 923 INTER-LIGAND FREE ENERGY PREDICTED BY IDOCK:   -6.89 KCAL/MOL
REMARK 924 INTRA-LIGAND FREE ENERGY PREDICTED BY IDOCK:   -0.61 KCAL/MOL
REMARK 927      BINDING AFFINITY PREDICTED BY RF-SCORE:    0.00 PKD
ROOT
HETATM    1  C   UNL     1     -11.449  12.932  65.285  1.00  0.00    -0.348 C  
HETATM    2  C   UNL     1     -10.239  13.654  65.876  1.00  0.00    -0.311 A  
HETATM    3  C   UNL     1     -10.218  15.153  65.469  1.00  0.00    -0.405 A  
HETATM    4  C   UNL     1     -10.365  15.857  66.783  1.00  0.00    -0.298 A  
HETATM    5  C   UNL     1     -10.410  17.223  67.015  1.00  0.00    -0.318 A  
HETATM    6  C   UNL     1     -10.532  17.660  68.335  1.00  0.00    -0.360 A  
HETATM    7  C   UNL     1     -10.625  16.734  69.385  1.00  0.00    -0.318 A  
HETATM    8  C   UNL     1     -10.568  15.357  69.130  1.00  0.00    -0.248 A  
HETATM    9  C   UNL     1     -10.413  14.924  67.823  1.00  0.00    -0.255 A  
HETATM   10  N   UNL     1     -10.206  13.623  67.350  1.00  0.00    -0.239 NA 
ENDROOT
BRANCH  10  11
HETATM   11  N   UNL     1     -10.638  12.538  68.090  1.00  0.00    -0.219 N  
HETATM   12  C   UNL     1      -9.684  11.619  68.512  1.00  0.00    -0.184 C  
HETATM   13  H   UNL     1     -11.625  12.416  68.319  1.00  0.00     0.000 HD 
HETATM   14  O   UNL     1      -8.469  11.744  68.388  1.00  0.00    -0.155 OA 
BRANCH  12  15
HETATM   15  C   UNL     1     -10.229  10.348  69.062  1.00  0.00    -0.233 A  
HETATM   16  C   UNL     1     -11.298  10.412  69.966  1.00  0.00    -0.384 A  
HETATM   17  C   UNL     1     -11.748   9.247  70.610  1.00  0.00    -0.222 A  
HETATM   18  C   UNL     1     -11.149   8.016  70.331  1.00  0.00    -0.238 A  
HETATM   19  C   UNL     1      -9.672   9.108  68.737  1.00  0.00    -0.167 A  
HETATM   20 CL   UNL     1     -11.564   6.535  71.114  1.00  0.00    -0.374 Cl 
HETATM   21  C   UNL     1     -10.128   7.949  69.375  1.00  0.00    -0.196 A  
BRANCH  17  22
HETATM   22  S   UNL     1     -13.031   9.396  71.811  1.00  0.00    -0.435 S  
HETATM   23  O   UNL     1     -12.565   8.859  73.069  1.00  0.00    -0.200 OA 
HETATM   24  N   UNL     1     -13.139  11.049  72.071  1.00  0.00    -0.517 N  
HETATM   25  H1  UNL     1     -13.882  11.135  72.766  1.00  0.00     0.000 HD 
HETATM   26  O   UNL     1     -14.277   8.971  71.218  1.00  0.00    -0.269 OA 
HETATM   27  H2  UNL     1     -12.593  11.793  71.638  1.00  0.00     0.000 HD 
ENDBRANCH  17  22
ENDBRANCH  12  15
ENDBRANCH  10  11
TORSDOF 3
ENDMDL
MODEL       38
REMARK 921   NORMALIZED FREE ENERGY PREDICTED BY IDOCK:   -5.77 KCAL/MOL
REMARK 922        TOTAL FREE ENERGY PREDICTED BY IDOCK:   -7.44 KCAL/MOL
REMARK 923 INTER-LIGAND FREE ENERGY PREDICTED BY IDOCK:   -8.01 KCAL/MOL
REMARK 924 INTRA-LIGAND FREE ENERGY PREDICTED BY IDOCK:    0.56 KCAL/MOL
REMARK 927      BINDING AFFINITY PREDICTED BY RF-SCORE:    0.00 PKD
ROOT
HETATM    1  C   UNL     1      -9.952  18.974  68.929  1.00  0.00    -0.460 C  
HETATM    2  C   UNL     1      -9.704  19.738  67.629  1.00  0.00    -0.371 A  
HETATM    3  C   UNL     1      -8.645  20.858  67.822  1.00  0.00     0.063 A  
HETATM    4  C   UNL     1      -7.528  20.418  66.927  1.00  0.00    -0.345 A  
HETATM    5  C   UNL     1      -6.314  21.051  66.709  1.00  0.00    -0.373 A  
HETATM    6  C   UNL     1      -5.423  20.468  65.807  1.00  0.00    -0.221 A  
HETATM    7  C   UNL     1      -5.750  19.265  65.162  1.00  0.00    -0.242 A  
HETATM    8  C   UNL     1      -6.986  18.645  65.389  1.00  0.00    -0.107 A  
HETATM    9  C   UNL     1      -7.884  19.243  66.258  1.00  0.00    -0.299 A  
HETATM   10  N   UNL     1      -9.207  18.880  66.537  1.00  0.00    -0.324 NA 
ENDROOT
BRANCH  10  11
HETATM   11  N   UNL     1      -9.621  17.574  66.358  1.00  0.00    -0.276 N  
HETATM   12  C   UNL     1      -8.938  16.576  67.044  1.00  0.00    -0.204 C  
HETATM   13  H   UNL     1     -10.404  17.349  65.743  1.00  0.00     0.000 HD 
HETATM   14  O   UNL     1      -8.069  16.759  67.891  1.00  0.00    -0.179 OA 
BRANCH  12  15
HETATM   15  C   UNL     1      -9.244  15.185  66.610  1.00  0.00    -0.298 A  
HETATM   16  C   UNL     1     -10.298  14.981  65.709  1.00  0.00    -0.354 A  
HETATM   17  C   UNL     1     -10.704  13.676  65.384  1.00  0.00    -0.308 A  
HETATM   18  C   UNL     1     -10.041  12.576  65.937  1.00  0.00    -0.254 A  
HETATM   19  C   UNL     1      -8.542  14.087  67.114  1.00  0.00    -0.220 A  
HETATM   20 CL   UNL     1     -10.498  10.933  65.672  1.00  0.00    -0.298 Cl 
HETATM   21  C   UNL     1      -8.945  12.789  66.781  1.00  0.00    -0.188 A  
BRANCH  17  22
HETATM   22  S   UNL     1     -12.097  13.472  64.320  1.00  0.00    -0.422 S  
HETATM   23  O   UNL     1     -12.472  14.760  63.783  1.00  0.00    -0.782 OA 
HETATM   24  N   UNL     1     -11.473  12.633  63.009  1.00  0.00    -0.738 N  
HETATM   25  H1  UNL     1     -12.279  12.515  62.394  1.00  0.00     0.000 HD 
HETATM   26  O   UNL     1     -13.056  12.609  64.968  1.00  0.00    -0.808 OA 
HETATM   27  H2  UNL     1     -10.516  12.315  62.862  1.00  0.00     0.000 HD 
ENDBRANCH  17  22
ENDBRANCH  12  15
ENDBRANCH  10  11
TORSDOF 3
ENDMDL
MODEL       39
REMARK 921   NORMALIZED FREE ENERGY PREDICTED BY IDOCK:   -5.75 KCAL/MOL
REMARK 922        TOTAL FREE ENERGY PREDICTED BY IDOCK:   -7.42 KCAL/MOL
REMARK 923 INTER-LIGAND FREE ENERGY PREDICTED BY IDOCK:   -6.83 KCAL/MOL
REMARK 924 INTRA-LIGAND FREE ENERGY PREDICTED BY IDOCK:   -0.60 KCAL/MOL
REMARK 927      BINDING AFFINITY PREDICTED BY RF-SCORE:    0.00 PKD
ROOT
HETATM    1  C   UNL     1     -11.305  11.662  66.286  1.00  0.00    -0.293 C  
HETATM    2  C   UNL     1     -10.110  12.604  66.427  1.00  0.00    -0.253 A  
HETATM    3  C   UNL     1     -10.350  13.940  65.670  1.00  0.00    -0.337 A  
HETATM    4  C   UNL     1     -10.352  14.952  66.775  1.00  0.00    -0.269 A  
HETATM    5  C   UNL     1     -10.528  16.323  66.672  1.00  0.00    -0.290 A  
HETATM    6  C   UNL     1     -10.471  17.082  67.841  1.00  0.00    -0.354 A  
HETATM    7  C   UNL     1     -10.261  16.461  69.082  1.00  0.00    -0.280 A  
HETATM    8  C   UNL     1     -10.077  15.074  69.165  1.00  0.00    -0.245 A  
HETATM    9  C   UNL     1     -10.100  14.325  67.999  1.00  0.00    -0.227 A  
HETATM   10  N   UNL     1      -9.817  12.966  67.826  1.00  0.00    -0.215 NA 
ENDROOT
BRANCH  10  11
HETATM   11  N   UNL     1      -9.972  12.084  68.879  1.00  0.00    -0.414 N  
HETATM   12  C   UNL     1      -9.050  11.052  69.004  1.00  0.00    -0.063 C  
HETATM   13  H   UNL     1     -10.740  12.188  69.544  1.00  0.00     0.000 HD 
HETATM   14  O   UNL     1      -8.033  10.918  68.329  1.00  0.00    -0.110 OA 
BRANCH  12  15
HETATM   15  C   UNL     1      -9.416   9.989  69.979  1.00  0.00    -0.184 A  
HETATM   16  C   UNL     1     -10.773   9.763  70.247  1.00  0.00    -0.358 A  
HETATM   17  C   UNL     1     -11.153   8.866  71.259  1.00  0.00    -0.297 A  
HETATM   18  C   UNL     1     -10.179   8.175  71.985  1.00  0.00    -0.249 A  
HETATM   19  C   UNL     1      -8.445   9.251  70.662  1.00  0.00    -0.258 A  
HETATM   20 CL   UNL     1     -10.521   7.109  73.298  1.00  0.00    -0.348 Cl 
HETATM   21  C   UNL     1      -8.827   8.353  71.664  1.00  0.00    -0.246 A  
BRANCH  17  22
HETATM   22  S   UNL     1     -12.870   8.689  71.622  1.00  0.00    -0.347 S  
HETATM   23  O   UNL     1     -13.129   9.216  72.942  1.00  0.00    -0.304 OA 
HETATM   24  N   UNL     1     -13.608   9.777  70.580  1.00  0.00    -0.539 N  
HETATM   25  H1  UNL     1     -14.601   9.675  70.790  1.00  0.00     0.000 HD 
HETATM   26  O   UNL     1     -13.295   7.366  71.234  1.00  0.00    -0.350 OA 
HETATM   27  H2  UNL     1     -13.168  10.394  69.898  1.00  0.00     0.000 HD 
ENDBRANCH  17  22
ENDBRANCH  12  15
ENDBRANCH  10  11
TORSDOF 3
ENDMDL
MODEL       40
REMARK 921   NORMALIZED FREE ENERGY PREDICTED BY IDOCK:   -5.64 KCAL/MOL
REMARK 922        TOTAL FREE ENERGY PREDICTED BY IDOCK:   -7.28 KCAL/MOL
REMARK 923 INTER-LIGAND FREE ENERGY PREDICTED BY IDOCK:   -6.90 KCAL/MOL
REMARK 924 INTRA-LIGAND FREE ENERGY PREDICTED BY IDOCK:   -0.39 KCAL/MOL
REMARK 927      BINDING AFFINITY PREDICTED BY RF-SCORE:    0.00 PKD
ROOT
HETATM    1  C   UNL     1      -8.730  10.107  66.810  1.00  0.00    -0.133 C  
HETATM    2  C   UNL     1     -10.069   9.420  67.070  1.00  0.00    -0.240 A  
HETATM    3  C   UNL     1      -9.890   7.892  67.291  1.00  0.00    -0.256 A  
HETATM    4  C   UNL     1     -10.344   7.705  68.706  1.00  0.00    -0.218 A  
HETATM    5  C   UNL     1     -10.395   6.527  69.434  1.00  0.00    -0.241 A  
HETATM    6  C   UNL     1     -10.878   6.583  70.741  1.00  0.00    -0.311 A  
HETATM    7  C   UNL     1     -11.279   7.807  71.299  1.00  0.00    -0.280 A  
HETATM    8  C   UNL     1     -11.228   8.987  70.544  1.00  0.00    -0.301 A  
HETATM    9  C   UNL     1     -10.780   8.924  69.234  1.00  0.00    -0.162 A  
HETATM   10  N   UNL     1     -10.764   9.933  68.265  1.00  0.00    -0.229 NA 
ENDROOT
BRANCH  10  11
HETATM   11  N   UNL     1     -10.724  11.261  68.646  1.00  0.00    -0.194 N  
HETATM   12  C   UNL     1     -11.472  12.172  67.909  1.00  0.00    -0.328 C  
HETATM   13  H   UNL     1     -10.163  11.564  69.443  1.00  0.00     0.000 HD 
HETATM   14  O   UNL     1     -12.264  11.887  67.016  1.00  0.00    -0.492 OA 
BRANCH  12  15
HETATM   15  C   UNL     1     -11.182  13.605  68.188  1.00  0.00    -0.303 A  
HETATM   16  C   UNL     1     -10.916  14.458  67.108  1.00  0.00    -0.305 A  
HETATM   17  C   UNL     1     -10.504  15.781  67.339  1.00  0.00    -0.297 A  
HETATM   18  C   UNL     1     -10.385  16.260  68.647  1.00  0.00    -0.263 A  
HETATM   19  C   UNL     1     -11.123  14.103  69.493  1.00  0.00    -0.222 A  
HETATM   20 CL   UNL     1      -9.817  17.838  69.054  1.00  0.00    -0.271 Cl 
HETATM   21  C   UNL     1     -10.720  15.423  69.718  1.00  0.00    -0.300 A  
BRANCH  17  22
HETATM   22  S   UNL     1     -10.089  16.784  65.949  1.00  0.00    -0.264 S  
HETATM   23  O   UNL     1      -8.675  16.653  65.679  1.00  0.00    -0.428 OA 
HETATM   24  N   UNL     1     -10.838  16.010  64.664  1.00  0.00    -0.557 N  
HETATM   25  H1  UNL     1     -10.598  16.590  63.860  1.00  0.00     0.000 HD 
HETATM   26  O   UNL     1     -10.717  18.075  66.100  1.00  0.00    -0.302 OA 
HETATM   27  H2  UNL     1     -11.401  15.160  64.682  1.00  0.00     0.000 HD 
ENDBRANCH  17  22
ENDBRANCH  12  15
ENDBRANCH  10  11
TORSDOF 3
ENDMDL
MODEL       41
REMARK 921   NORMALIZED FREE ENERGY PREDICTED BY IDOCK:   -5.63 KCAL/MOL
REMARK 922        TOTAL FREE ENERGY PREDICTED BY IDOCK:   -7.28 KCAL/MOL
REMARK 923 INTER-LIGAND FREE ENERGY PREDICTED BY IDOCK:   -6.58 KCAL/MOL
REMARK 924 INTRA-LIGAND FREE ENERGY PREDICTED BY IDOCK:   -0.70 KCAL/MOL
REMARK 927      BINDING AFFINITY PREDICTED BY RF-SCORE:    0.00 PKD
ROOT
HETATM    1  C   UNL     1      -7.098  11.272  69.546  1.00  0.00    -0.058 C  
HETATM    2  C   UNL     1      -7.820   9.935  69.384  1.00  0.00    -0.127 A  
HETATM    3  C   UNL     1      -7.679   9.055  70.657  1.00  0.00    -0.131 A  
HETATM    4  C   UNL     1      -9.093   8.934  71.136  1.00  0.00    -0.315 A  
HETATM    5  C   UNL     1      -9.557   8.252  72.250  1.00  0.00    -0.355 A  
HETATM    6  C   UNL     1     -10.931   8.254  72.495  1.00  0.00    -0.424 A  
HETATM    7  C   UNL     1     -11.803   8.949  71.644  1.00  0.00    -0.415 A  
HETATM    8  C   UNL     1     -11.315   9.626  70.518  1.00  0.00    -0.360 A  
HETATM    9  C   UNL     1      -9.955   9.594  70.256  1.00  0.00    -0.270 A  
HETATM   10  N   UNL     1      -9.267  10.082  69.139  1.00  0.00    -0.179 NA 
ENDROOT
BRANCH  10  11
HETATM   11  N   UNL     1      -9.802  11.111  68.388  1.00  0.00    -0.179 N  
HETATM   12  C   UNL     1      -9.870  10.943  67.010  1.00  0.00    -0.183 C  
HETATM   13  H   UNL     1     -10.136  11.968  68.831  1.00  0.00     0.000 HD 
HETATM   14  O   UNL     1      -9.606   9.909  66.404  1.00  0.00    -0.177 OA 
BRANCH  12  15
HETATM   15  C   UNL     1     -10.197  12.172  66.237  1.00  0.00    -0.249 A  
HETATM   16  C   UNL     1      -9.676  13.398  66.674  1.00  0.00    -0.275 A  
HETATM   17  C   UNL     1     -10.073  14.594  66.053  1.00  0.00    -0.311 A  
HETATM   18  C   UNL     1     -10.967  14.564  64.980  1.00  0.00    -0.398 A  
HETATM   19  C   UNL     1     -11.042  12.138  65.124  1.00  0.00    -0.369 A  
HETATM   20 CL   UNL     1     -11.583  15.970  64.190  1.00  0.00    -0.246 Cl 
HETATM   21  C   UNL     1     -11.428  13.330  64.504  1.00  0.00    -0.399 A  
BRANCH  17  22
HETATM   22  S   UNL     1      -9.464  16.117  66.703  1.00  0.00    -0.267 S  
HETATM   23  O   UNL     1     -10.533  16.791  67.404  1.00  0.00    -0.308 OA 
HETATM   24  N   UNL     1      -8.404  15.636  67.910  1.00  0.00    -0.144 N  
HETATM   25  H1  UNL     1      -8.052  16.517  68.285  1.00  0.00     0.000 HD 
HETATM   26  O   UNL     1      -8.686  16.781  65.685  1.00  0.00    -0.441 OA 
HETATM   27  H2  UNL     1      -8.167  14.688  68.200  1.00  0.00     0.000 HD 
ENDBRANCH  17  22
ENDBRANCH  12  15
ENDBRANCH  10  11
TORSDOF 3
ENDMDL
MODEL       42
REMARK 921   NORMALIZED FREE ENERGY PREDICTED BY IDOCK:   -5.59 KCAL/MOL
REMARK 922        TOTAL FREE ENERGY PREDICTED BY IDOCK:   -7.23 KCAL/MOL
REMARK 923 INTER-LIGAND FREE ENERGY PREDICTED BY IDOCK:   -6.84 KCAL/MOL
REMARK 924 INTRA-LIGAND FREE ENERGY PREDICTED BY IDOCK:   -0.39 KCAL/MOL
REMARK 927      BINDING AFFINITY PREDICTED BY RF-SCORE:    0.00 PKD
ROOT
HETATM    1  C   UNL     1      -7.629   8.992  69.198  1.00  0.00    -0.073 C  
HETATM    2  C   UNL     1      -8.660   7.917  68.855  1.00  0.00    -0.132 A  
HETATM    3  C   UNL     1      -8.326   6.569  69.552  1.00  0.00    -0.130 A  
HETATM    4  C   UNL     1      -9.494   6.369  70.468  1.00  0.00    -0.173 A  
HETATM    5  C   UNL     1      -9.720   5.315  71.340  1.00  0.00    -0.219 A  
HETATM    6  C   UNL     1     -10.898   5.324  72.088  1.00  0.00    -0.252 A  
HETATM    7  C   UNL     1     -11.809   6.385  71.967  1.00  0.00    -0.382 A  
HETATM    8  C   UNL     1     -11.566   7.437  71.073  1.00  0.00    -0.315 A  
HETATM    9  C   UNL     1     -10.413   7.409  70.306  1.00  0.00    -0.221 A  
HETATM   10  N   UNL     1     -10.029   8.271  69.271  1.00  0.00    -0.187 NA 
ENDROOT
BRANCH  10  11
HETATM   11  N   UNL     1     -10.519   9.562  69.225  1.00  0.00    -0.205 N  
HETATM   12  C   UNL     1     -10.939  10.055  67.995  1.00  0.00    -0.240 C  
HETATM   13  H   UNL     1     -10.572  10.136  70.067  1.00  0.00     0.000 HD 
HETATM   14  O   UNL     1     -11.025   9.404  66.958  1.00  0.00    -0.118 OA 
BRANCH  12  15
HETATM   15  C   UNL     1     -11.198  11.520  67.953  1.00  0.00    -0.344 A  
HETATM   16  C   UNL     1     -11.220  12.161  66.706  1.00  0.00    -0.375 A  
HETATM   17  C   UNL     1     -11.324  13.560  66.634  1.00  0.00    -0.322 A  
HETATM   18  C   UNL     1     -11.432  14.316  67.805  1.00  0.00    -0.329 A  
HETATM   19  C   UNL     1     -11.369  12.270  69.119  1.00  0.00    -0.330 A  
HETATM   20 CL   UNL     1     -11.489  16.041  67.845  1.00  0.00    -0.215 Cl 
HETATM   21  C   UNL     1     -11.479  13.663  69.043  1.00  0.00    -0.346 A  
BRANCH  17  22
HETATM   22  S   UNL     1     -11.252  14.326  65.047  1.00  0.00    -0.386 S  
HETATM   23  O   UNL     1     -10.316  15.426  65.097  1.00  0.00    -0.382 OA 
HETATM   24  N   UNL     1     -10.501  13.174  64.087  1.00  0.00    -0.517 N  
HETATM   25  H1  UNL     1     -10.459  13.617  63.168  1.00  0.00     0.000 HD 
HETATM   26  O   UNL     1     -12.596  14.493  64.547  1.00  0.00    -0.644 OA 
HETATM   27  H2  UNL     1     -10.165  12.250  64.357  1.00  0.00     0.000 HD 
ENDBRANCH  17  22
ENDBRANCH  12  15
ENDBRANCH  10  11
TORSDOF 3
ENDMDL
MODEL       43
REMARK 921   NORMALIZED FREE ENERGY PREDICTED BY IDOCK:   -5.58 KCAL/MOL
REMARK 922        TOTAL FREE ENERGY PREDICTED BY IDOCK:   -7.22 KCAL/MOL
REMARK 923 INTER-LIGAND FREE ENERGY PREDICTED BY IDOCK:   -6.73 KCAL/MOL
REMARK 924 INTRA-LIGAND FREE ENERGY PREDICTED BY IDOCK:   -0.49 KCAL/MOL
REMARK 927      BINDING AFFINITY PREDICTED BY RF-SCORE:    0.00 PKD
ROOT
HETATM    1  C   UNL     1      -9.656   8.547  65.620  1.00  0.00     0.041 C  
HETATM    2  C   UNL     1      -9.271  10.023  65.526  1.00  0.00    -0.198 A  
HETATM    3  C   UNL     1      -9.557  10.595  64.110  1.00  0.00    -0.353 A  
HETATM    4  C   UNL     1     -10.602  11.634  64.376  1.00  0.00    -0.377 A  
HETATM    5  C   UNL     1     -11.230  12.463  63.459  1.00  0.00    -0.540 A  
HETATM    6  C   UNL     1     -12.165  13.381  63.937  1.00  0.00    -0.478 A  
HETATM    7  C   UNL     1     -12.469  13.439  65.306  1.00  0.00    -0.532 A  
HETATM    8  C   UNL     1     -11.817  12.598  66.219  1.00  0.00    -0.471 A  
HETATM    9  C   UNL     1     -10.863  11.711  65.747  1.00  0.00    -0.281 A  
HETATM   10  N   UNL     1     -10.006  10.878  66.476  1.00  0.00    -0.204 NA 
ENDROOT
BRANCH  10  11
HETATM   11  N   UNL     1     -10.357  10.462  67.746  1.00  0.00    -0.192 N  
HETATM   12  C   UNL     1      -9.418  10.613  68.761  1.00  0.00    -0.183 C  
HETATM   13  H   UNL     1     -11.275  10.058  67.934  1.00  0.00     0.000 HD 
HETATM   14  O   UNL     1      -8.342  11.193  68.657  1.00  0.00    -0.146 OA 
BRANCH  12  15
HETATM   15  C   UNL     1      -9.741   9.909  70.033  1.00  0.00    -0.274 A  
HETATM   16  C   UNL     1      -8.690   9.349  70.773  1.00  0.00    -0.216 A  
HETATM   17  C   UNL     1      -8.966   8.561  71.903  1.00  0.00    -0.231 A  
HETATM   18  C   UNL     1     -10.288   8.356  72.309  1.00  0.00    -0.333 A  
HETATM   19  C   UNL     1     -11.057   9.756  70.475  1.00  0.00    -0.384 A  
HETATM   20 CL   UNL     1     -10.752   7.349  73.632  1.00  0.00    -0.364 Cl 
HETATM   21  C   UNL     1     -11.327   8.977  71.605  1.00  0.00    -0.430 A  
BRANCH  17  22
HETATM   22  S   UNL     1      -7.616   7.799  72.744  1.00  0.00    -0.112 S  
HETATM   23  O   UNL     1      -7.879   6.384  72.873  1.00  0.00    -0.102 OA 
HETATM   24  N   UNL     1      -6.358   7.896  71.640  1.00  0.00    -0.038 N  
HETATM   25  H1  UNL     1      -5.576   7.456  72.126  1.00  0.00     0.000 HD 
HETATM   26  O   UNL     1      -7.255   8.612  73.881  1.00  0.00    -0.334 OA 
HETATM   27  H2  UNL     1      -6.370   8.301  70.704  1.00  0.00     0.000 HD 
ENDBRANCH  17  22
ENDBRANCH  12  15
ENDBRANCH  10  11
TORSDOF 3
ENDMDL
MODEL       44
REMARK 921   NORMALIZED FREE ENERGY PREDICTED BY IDOCK:   -5.58 KCAL/MOL
REMARK 922        TOTAL FREE ENERGY PREDICTED BY IDOCK:   -7.22 KCAL/MOL
REMARK 923 INTER-LIGAND FREE ENERGY PREDICTED BY IDOCK:   -7.62 KCAL/MOL
REMARK 924 INTRA-LIGAND FREE ENERGY PREDICTED BY IDOCK:    0.40 KCAL/MOL
REMARK 927      BINDING AFFINITY PREDICTED BY RF-SCORE:    0.00 PKD
ROOT
HETATM    1  C   UNL     1     -10.896   7.269  73.217  1.00  0.00    -0.404 C  
HETATM    2  C   UNL     1      -9.803   7.202  72.151  1.00  0.00    -0.153 A  
HETATM    3  C   UNL     1      -9.755   5.805  71.474  1.00  0.00    -0.193 A  
HETATM    4  C   UNL     1     -10.111   6.112  70.052  1.00  0.00    -0.228 A  
HETATM    5  C   UNL     1     -10.222   5.225  68.992  1.00  0.00    -0.269 A  
HETATM    6  C   UNL     1     -10.546   5.740  67.737  1.00  0.00    -0.310 A  
HETATM    7  C   UNL     1     -10.773   7.115  67.569  1.00  0.00    -0.344 A  
HETATM    8  C   UNL     1     -10.648   7.997  68.651  1.00  0.00    -0.143 A  
HETATM    9  C   UNL     1     -10.291   7.489  69.890  1.00  0.00    -0.223 A  
HETATM   10  N   UNL     1      -9.988   8.184  71.066  1.00  0.00    -0.185 NA 
ENDROOT
BRANCH  10  11
HETATM   11  N   UNL     1     -10.500   9.450  71.277  1.00  0.00    -0.331 N  
HETATM   12  C   UNL     1     -11.879   9.612  71.218  1.00  0.00    -0.381 C  
HETATM   13  H   UNL     1      -9.884  10.241  71.470  1.00  0.00     0.000 HD 
HETATM   14  O   UNL     1     -12.700   8.706  71.112  1.00  0.00    -0.247 OA 
BRANCH  12  15
HETATM   15  C   UNL     1     -12.351  11.023  71.181  1.00  0.00    -0.465 A  
HETATM   16  C   UNL     1     -11.756  11.905  70.268  1.00  0.00    -0.293 A  
HETATM   17  C   UNL     1     -12.077  13.273  70.297  1.00  0.00    -0.335 A  
HETATM   18  C   UNL     1     -13.011  13.754  71.219  1.00  0.00    -0.334 A  
HETATM   19  C   UNL     1     -13.330  11.495  72.060  1.00  0.00    -0.397 A  
HETATM   20 CL   UNL     1     -13.427  15.420  71.399  1.00  0.00    -0.573 Cl 
HETATM   21  C   UNL     1     -13.652  12.856  72.080  1.00  0.00    -0.589 A  
BRANCH  17  22
HETATM   22  S   UNL     1     -11.230  14.356  69.192  1.00  0.00    -0.283 S  
HETATM   23  O   UNL     1     -10.573  15.391  69.958  1.00  0.00    -0.282 OA 
HETATM   24  N   UNL     1      -9.979  13.413  68.595  1.00  0.00    -0.380 N  
HETATM   25  H1  UNL     1      -9.489  14.040  67.956  1.00  0.00     0.000 HD 
HETATM   26  O   UNL     1     -12.102  14.668  68.085  1.00  0.00    -0.273 OA 
HETATM   27  H2  UNL     1      -9.760  12.442  68.818  1.00  0.00     0.000 HD 
ENDBRANCH  17  22
ENDBRANCH  12  15
ENDBRANCH  10  11
TORSDOF 3
ENDMDL
MODEL       45
REMARK 921   NORMALIZED FREE ENERGY PREDICTED BY IDOCK:   -5.56 KCAL/MOL
REMARK 922        TOTAL FREE ENERGY PREDICTED BY IDOCK:   -7.20 KCAL/MOL
REMARK 923 INTER-LIGAND FREE ENERGY PREDICTED BY IDOCK:   -6.65 KCAL/MOL
REMARK 924 INTRA-LIGAND FREE ENERGY PREDICTED BY IDOCK:   -0.55 KCAL/MOL
REMARK 927      BINDING AFFINITY PREDICTED BY RF-SCORE:    0.00 PKD
ROOT
HETATM    1  C   UNL     1     -11.898  13.450  69.553  1.00  0.00    -0.391 C  
HETATM    2  C   UNL     1     -11.967  14.267  68.263  1.00  0.00    -0.311 A  
HETATM    3  C   UNL     1     -11.872  15.791  68.551  1.00  0.00    -0.233 A  
HETATM    4  C   UNL     1     -10.596  16.179  67.870  1.00  0.00    -0.309 A  
HETATM    5  C   UNL     1     -10.014  17.436  67.807  1.00  0.00    -0.301 A  
HETATM    6  C   UNL     1      -8.823  17.573  67.094  1.00  0.00    -0.246 A  
HETATM    7  C   UNL     1      -8.230  16.458  66.481  1.00  0.00    -0.341 A  
HETATM    8  C   UNL     1      -8.838  15.197  66.549  1.00  0.00    -0.312 A  
HETATM    9  C   UNL     1     -10.039  15.070  67.228  1.00  0.00    -0.235 A  
HETATM   10  N   UNL     1     -10.880  13.954  67.318  1.00  0.00    -0.284 NA 
ENDROOT
BRANCH  10  11
HETATM   11  N   UNL     1     -10.365  12.682  67.157  1.00  0.00    -0.231 N  
HETATM   12  C   UNL     1     -11.105  11.771  66.412  1.00  0.00    -0.307 C  
HETATM   13  H   UNL     1      -9.470  12.419  67.572  1.00  0.00     0.000 HD 
HETATM   14  O   UNL     1     -12.124  12.028  65.779  1.00  0.00    -0.536 OA 
BRANCH  12  15
HETATM   15  C   UNL     1     -10.644  10.358  66.498  1.00  0.00    -0.220 A  
HETATM   16  C   UNL     1     -10.905   9.639  67.673  1.00  0.00    -0.276 A  
HETATM   17  C   UNL     1     -10.368   8.352  67.846  1.00  0.00    -0.221 A  
HETATM   18  C   UNL     1      -9.595   7.774  66.835  1.00  0.00    -0.198 A  
HETATM   19  C   UNL     1      -9.924   9.755  65.464  1.00  0.00    -0.329 A  
HETATM   20 CL   UNL     1      -8.822   6.236  66.965  1.00  0.00    -0.107 Cl 
HETATM   21  C   UNL     1      -9.397   8.470  65.637  1.00  0.00    -0.122 A  
BRANCH  17  22
HETATM   22  S   UNL     1     -10.645   7.528  69.380  1.00  0.00    -0.198 S  
HETATM   23  O   UNL     1      -9.471   7.670  70.210  1.00  0.00    -0.161 OA 
HETATM   24  N   UNL     1     -11.810   8.471  70.131  1.00  0.00    -0.406 N  
HETATM   25  H1  UNL     1     -11.971   7.994  71.019  1.00  0.00     0.000 HD 
HETATM   26  O   UNL     1     -11.239   6.238  69.117  1.00  0.00    -0.376 OA 
HETATM   27  H2  UNL     1     -12.254   9.321  69.783  1.00  0.00     0.000 HD 
ENDBRANCH  17  22
ENDBRANCH  12  15
ENDBRANCH  10  11
TORSDOF 3
ENDMDL
MODEL       46
REMARK 921   NORMALIZED FREE ENERGY PREDICTED BY IDOCK:   -5.56 KCAL/MOL
REMARK 922        TOTAL FREE ENERGY PREDICTED BY IDOCK:   -7.20 KCAL/MOL
REMARK 923 INTER-LIGAND FREE ENERGY PREDICTED BY IDOCK:   -6.67 KCAL/MOL
REMARK 924 INTRA-LIGAND FREE ENERGY PREDICTED BY IDOCK:   -0.52 KCAL/MOL
REMARK 927      BINDING AFFINITY PREDICTED BY RF-SCORE:    0.00 PKD
ROOT
HETATM    1  C   UNL     1      -9.369   7.482  66.504  1.00  0.00    -0.231 C  
HETATM    2  C   UNL     1     -10.683   7.581  67.277  1.00  0.00    -0.295 A  
HETATM    3  C   UNL     1     -10.920   6.322  68.157  1.00  0.00    -0.412 A  
HETATM    4  C   UNL     1     -10.901   6.879  69.547  1.00  0.00    -0.287 A  
HETATM    5  C   UNL     1     -11.063   6.193  70.741  1.00  0.00    -0.375 A  
HETATM    6  C   UNL     1     -11.031   6.925  71.928  1.00  0.00    -0.266 A  
HETATM    7  C   UNL     1     -10.820   8.312  71.902  1.00  0.00    -0.350 A  
HETATM    8  C   UNL     1     -10.667   8.990  70.685  1.00  0.00    -0.292 A  
HETATM    9  C   UNL     1     -10.734   8.267  69.505  1.00  0.00    -0.174 A  
HETATM   10  N   UNL     1     -10.737   8.740  68.188  1.00  0.00    -0.133 NA 
ENDROOT
BRANCH  10  11
HETATM   11  N   UNL     1     -10.162   9.960  67.886  1.00  0.00    -0.181 N  
HETATM   12  C   UNL     1     -10.977  11.086  67.915  1.00  0.00    -0.264 C  
HETATM   13  H   UNL     1      -9.172  10.032  67.651  1.00  0.00     0.000 HD 
HETATM   14  O   UNL     1     -12.142  11.115  68.300  1.00  0.00    -0.620 OA 
BRANCH  12  15
HETATM   15  C   UNL     1     -10.379  12.316  67.325  1.00  0.00    -0.228 A  
HETATM   16  C   UNL     1      -9.253  12.877  67.944  1.00  0.00    -0.208 A  
HETATM   17  C   UNL     1      -8.745  14.109  67.499  1.00  0.00    -0.204 A  
HETATM   18  C   UNL     1      -9.345  14.767  66.422  1.00  0.00    -0.291 A  
HETATM   19  C   UNL     1     -10.940  12.943  66.209  1.00  0.00    -0.305 A  
HETATM   20 CL   UNL     1      -8.859  16.317  65.839  1.00  0.00    -0.289 Cl 
HETATM   21  C   UNL     1     -10.426  14.167  65.766  1.00  0.00    -0.320 A  
BRANCH  17  22
HETATM   22  S   UNL     1      -7.386  14.819  68.371  1.00  0.00    -0.126 S  
HETATM   23  O   UNL     1      -7.838  16.006  69.061  1.00  0.00    -0.196 OA 
HETATM   24  N   UNL     1      -7.079  13.712  69.593  1.00  0.00    -0.326 N  
HETATM   25  H1  UNL     1      -6.292  14.122  70.097  1.00  0.00     0.000 HD 
HETATM   26  O   UNL     1      -6.233  14.836  67.504  1.00  0.00    -0.300 OA 
HETATM   27  H2  UNL     1      -7.562  12.835  69.785  1.00  0.00     0.000 HD 
ENDBRANCH  17  22
ENDBRANCH  12  15
ENDBRANCH  10  11
TORSDOF 3
ENDMDL
MODEL       47
REMARK 921   NORMALIZED FREE ENERGY PREDICTED BY IDOCK:   -5.56 KCAL/MOL
REMARK 922        TOTAL FREE ENERGY PREDICTED BY IDOCK:   -7.20 KCAL/MOL
REMARK 923 INTER-LIGAND FREE ENERGY PREDICTED BY IDOCK:   -7.69 KCAL/MOL
REMARK 924 INTRA-LIGAND FREE ENERGY PREDICTED BY IDOCK:    0.50 KCAL/MOL
REMARK 927      BINDING AFFINITY PREDICTED BY RF-SCORE:    0.00 PKD
ROOT
HETATM    1  C   UNL     1     -11.179  15.217  67.256  1.00  0.00    -0.306 C  
HETATM    2  C   UNL     1     -10.859  15.235  68.750  1.00  0.00    -0.254 A  
HETATM    3  C   UNL     1     -11.906  16.065  69.544  1.00  0.00    -0.243 A  
HETATM    4  C   UNL     1     -12.540  15.040  70.432  1.00  0.00    -0.399 A  
HETATM    5  C   UNL     1     -13.552  15.228  71.361  1.00  0.00    -0.598 A  
HETATM    6  C   UNL     1     -13.978  14.124  72.100  1.00  0.00    -0.626 A  
HETATM    7  C   UNL     1     -13.405  12.861  71.885  1.00  0.00    -0.530 A  
HETATM    8  C   UNL     1     -12.377  12.692  70.948  1.00  0.00    -0.352 A  
HETATM    9  C   UNL     1     -11.931  13.796  70.239  1.00  0.00    -0.326 A  
HETATM   10  N   UNL     1     -10.847  13.892  69.358  1.00  0.00    -0.136 NA 
ENDROOT
BRANCH  10  11
HETATM   11  N   UNL     1     -10.391  12.769  68.693  1.00  0.00    -0.346 N  
HETATM   12  C   UNL     1     -11.250  12.157  67.789  1.00  0.00    -0.275 C  
HETATM   13  H   UNL     1      -9.454  12.402  68.861  1.00  0.00     0.000 HD 
HETATM   14  O   UNL     1     -12.342  12.591  67.435  1.00  0.00    -0.338 OA 
BRANCH  12  15
HETATM   15  C   UNL     1     -10.816  10.815  67.311  1.00  0.00    -0.344 A  
HETATM   16  C   UNL     1     -10.934   9.723  68.183  1.00  0.00    -0.228 A  
HETATM   17  C   UNL     1     -10.410   8.471  67.820  1.00  0.00    -0.237 A  
HETATM   18  C   UNL     1      -9.793   8.303  66.577  1.00  0.00    -0.253 A  
HETATM   19  C   UNL     1     -10.256  10.630  66.044  1.00  0.00    -0.309 A  
HETATM   20 CL   UNL     1      -9.048   6.837  66.053  1.00  0.00    -0.142 Cl 
HETATM   21  C   UNL     1      -9.743   9.380  65.684  1.00  0.00    -0.336 A  
BRANCH  17  22
HETATM   22  S   UNL     1     -10.497   7.155  68.990  1.00  0.00    -0.209 S  
HETATM   23  O   UNL     1      -9.206   6.998  69.620  1.00  0.00    -0.147 OA 
HETATM   24  N   UNL     1     -11.486   7.765  70.199  1.00  0.00    -0.473 N  
HETATM   25  H1  UNL     1     -11.537   7.003  70.876  1.00  0.00     0.000 HD 
HETATM   26  O   UNL     1     -11.189   6.040  68.388  1.00  0.00    -0.287 OA 
HETATM   27  H2  UNL     1     -11.932   8.681  70.246  1.00  0.00     0.000 HD 
ENDBRANCH  17  22
ENDBRANCH  12  15
ENDBRANCH  10  11
TORSDOF 3
ENDMDL
MODEL       48
REMARK 921   NORMALIZED FREE ENERGY PREDICTED BY IDOCK:   -5.54 KCAL/MOL
REMARK 922        TOTAL FREE ENERGY PREDICTED BY IDOCK:   -7.18 KCAL/MOL
REMARK 923 INTER-LIGAND FREE ENERGY PREDICTED BY IDOCK:   -6.76 KCAL/MOL
REMARK 924 INTRA-LIGAND FREE ENERGY PREDICTED BY IDOCK:   -0.42 KCAL/MOL
REMARK 927      BINDING AFFINITY PREDICTED BY RF-SCORE:    0.00 PKD
ROOT
HETATM    1  C   UNL     1     -11.485  14.368  64.500  1.00  0.00    -0.352 C  
HETATM    2  C   UNL     1     -11.520  13.315  65.607  1.00  0.00    -0.318 A  
HETATM    3  C   UNL     1     -11.753  11.892  65.028  1.00  0.00    -0.253 A  
HETATM    4  C   UNL     1     -10.487  11.176  65.385  1.00  0.00    -0.321 A  
HETATM    5  C   UNL     1     -10.146   9.861  65.109  1.00  0.00    -0.177 A  
HETATM    6  C   UNL     1      -8.911   9.394  65.559  1.00  0.00    -0.248 A  
HETATM    7  C   UNL     1      -8.039  10.247  66.253  1.00  0.00    -0.129 A  
HETATM    8  C   UNL     1      -8.405  11.571  66.531  1.00  0.00    -0.147 A  
HETATM    9  C   UNL     1      -9.646  12.023  66.113  1.00  0.00    -0.239 A  
HETATM   10  N   UNL     1     -10.268  13.247  66.384  1.00  0.00    -0.285 NA 
ENDROOT
BRANCH  10  11
HETATM   11  N   UNL     1      -9.508  14.362  66.684  1.00  0.00    -0.272 N  
HETATM   12  C   UNL     1      -9.568  14.859  67.980  1.00  0.00    -0.207 C  
HETATM   13  H   UNL     1      -8.921  14.805  65.976  1.00  0.00     0.000 HD 
HETATM   14  O   UNL     1     -10.147  14.327  68.923  1.00  0.00    -0.226 OA 
BRANCH  12  15
HETATM   15  C   UNL     1      -8.953  16.201  68.174  1.00  0.00    -0.185 A  
HETATM   16  C   UNL     1      -9.502  17.295  67.492  1.00  0.00    -0.245 A  
HETATM   17  C   UNL     1      -8.867  18.548  67.542  1.00  0.00    -0.265 A  
HETATM   18  C   UNL     1      -7.700  18.713  68.293  1.00  0.00    -0.298 A  
HETATM   19  C   UNL     1      -7.822  16.382  68.975  1.00  0.00    -0.231 A  
HETATM   20 CL   UNL     1      -6.794  20.180  68.367  1.00  0.00    -0.333 Cl 
HETATM   21  C   UNL     1      -7.197  17.633  69.027  1.00  0.00    -0.214 A  
BRANCH  17  22
HETATM   22  S   UNL     1      -9.545  19.868  66.589  1.00  0.00    -0.439 S  
HETATM   23  O   UNL     1      -9.778  21.002  67.454  1.00  0.00    -0.416 OA 
HETATM   24  N   UNL     1      -8.270  20.341  65.606  1.00  0.00    -0.460 N  
HETATM   25  H1  UNL     1      -8.662  21.105  65.055  1.00  0.00     0.000 HD 
HETATM   26  O   UNL     1     -10.579  19.342  65.730  1.00  0.00    -0.496 OA 
HETATM   27  H2  UNL     1      -7.327  19.956  65.568  1.00  0.00     0.000 HD 
ENDBRANCH  17  22
ENDBRANCH  12  15
ENDBRANCH  10  11
TORSDOF 3
ENDMDL
MODEL       49
REMARK 921   NORMALIZED FREE ENERGY PREDICTED BY IDOCK:   -5.54 KCAL/MOL
REMARK 922        TOTAL FREE ENERGY PREDICTED BY IDOCK:   -7.18 KCAL/MOL
REMARK 923 INTER-LIGAND FREE ENERGY PREDICTED BY IDOCK:   -6.88 KCAL/MOL
REMARK 924 INTRA-LIGAND FREE ENERGY PREDICTED BY IDOCK:   -0.29 KCAL/MOL
REMARK 927      BINDING AFFINITY PREDICTED BY RF-SCORE:    0.00 PKD
ROOT
HETATM    1  C   UNL     1     -10.427  13.953  64.705  1.00  0.00    -0.419 C  
HETATM    2  C   UNL     1     -10.720  12.465  64.890  1.00  0.00    -0.294 A  
HETATM    3  C   UNL     1     -10.092  11.617  63.749  1.00  0.00    -0.416 A  
HETATM    4  C   UNL     1      -9.094  10.768  64.475  1.00  0.00    -0.220 A  
HETATM    5  C   UNL     1      -8.239   9.817  63.942  1.00  0.00    -0.159 A  
HETATM    6  C   UNL     1      -7.402   9.123  64.816  1.00  0.00    -0.098 A  
HETATM    7  C   UNL     1      -7.420   9.405  66.191  1.00  0.00    -0.096 A  
HETATM    8  C   UNL     1      -8.298  10.365  66.712  1.00  0.00    -0.126 A  
HETATM    9  C   UNL     1      -9.153  11.028  65.848  1.00  0.00    -0.197 A  
HETATM   10  N   UNL     1     -10.188  11.920  66.153  1.00  0.00    -0.220 NA 
ENDROOT
BRANCH  10  11
HETATM   11  N   UNL     1     -10.157  12.643  67.330  1.00  0.00    -0.213 N  
HETATM   12  C   UNL     1     -11.305  12.657  68.114  1.00  0.00    -0.290 C  
HETATM   13  H   UNL     1      -9.319  13.151  67.615  1.00  0.00     0.000 HD 
HETATM   14  O   UNL     1     -12.313  11.986  67.915  1.00  0.00    -0.338 OA 
BRANCH  12  15
HETATM   15  C   UNL     1     -11.308  13.658  69.216  1.00  0.00    -0.323 A  
HETATM   16  C   UNL     1     -12.176  13.459  70.299  1.00  0.00    -0.405 A  
HETATM   17  C   UNL     1     -12.307  14.448  71.288  1.00  0.00    -0.359 A  
HETATM   18  C   UNL     1     -11.552  15.622  71.211  1.00  0.00    -0.428 A  
HETATM   19  C   UNL     1     -10.508  14.802  69.173  1.00  0.00    -0.243 A  
HETATM   20 CL   UNL     1     -11.683  16.936  72.322  1.00  0.00    -0.060 Cl 
HETATM   21  C   UNL     1     -10.635  15.781  70.164  1.00  0.00    -0.334 A  
BRANCH  17  22
HETATM   22  S   UNL     1     -13.483  14.194  72.578  1.00  0.00    -0.548 S  
HETATM   23  O   UNL     1     -12.799  14.219  73.851  1.00  0.00    -0.285 OA 
HETATM   24  N   UNL     1     -14.398  15.599  72.562  1.00  0.00    -0.439 N  
HETATM   25  H1  UNL     1     -15.078  15.452  73.307  1.00  0.00     0.000 HD 
HETATM   26  O   UNL     1     -14.357  13.107  72.205  1.00  0.00    -0.372 OA 
HETATM   27  H2  UNL     1     -14.298  16.409  71.950  1.00  0.00     0.000 HD 
ENDBRANCH  17  22
ENDBRANCH  12  15
ENDBRANCH  10  11
TORSDOF 3
ENDMDL
MODEL       50
REMARK 921   NORMALIZED FREE ENERGY PREDICTED BY IDOCK:   -5.52 KCAL/MOL
REMARK 922        TOTAL FREE ENERGY PREDICTED BY IDOCK:   -7.15 KCAL/MOL
REMARK 923 INTER-LIGAND FREE ENERGY PREDICTED BY IDOCK:   -6.49 KCAL/MOL
REMARK 924 INTRA-LIGAND FREE ENERGY PREDICTED BY IDOCK:   -0.66 KCAL/MOL
REMARK 927      BINDING AFFINITY PREDICTED BY RF-SCORE:    0.00 PKD
ROOT
HETATM    1  C   UNL     1      -9.717  14.071  68.467  1.00  0.00    -0.215 C  
HETATM    2  C   UNL     1     -11.147  13.898  67.956  1.00  0.00    -0.259 A  
HETATM    3  C   UNL     1     -11.478  14.925  66.839  1.00  0.00    -0.318 A  
HETATM    4  C   UNL     1     -11.719  14.053  65.645  1.00  0.00    -0.356 A  
HETATM    5  C   UNL     1     -12.053  14.446  64.358  1.00  0.00    -0.491 A  
HETATM    6  C   UNL     1     -12.253  13.452  63.400  1.00  0.00    -0.419 A  
HETATM    7  C   UNL     1     -12.096  12.099  63.736  1.00  0.00    -0.620 A  
HETATM    8  C   UNL     1     -11.766  11.721  65.044  1.00  0.00    -0.174 A  
HETATM    9  C   UNL     1     -11.602  12.707  66.004  1.00  0.00    -0.393 A  
HETATM   10  N   UNL     1     -11.400  12.564  67.381  1.00  0.00    -0.293 NA 
ENDROOT
BRANCH  10  11
HETATM   11  N   UNL     1     -10.832  11.408  67.883  1.00  0.00    -0.210 N  
HETATM   12  C   UNL     1     -11.506  10.742  68.901  1.00  0.00    -0.293 C  
HETATM   13  H   UNL     1      -9.947  11.055  67.519  1.00  0.00     0.000 HD 
HETATM   14  O   UNL     1     -12.626  11.022  69.318  1.00  0.00    -0.361 OA 
BRANCH  12  15
HETATM   15  C   UNL     1     -10.727   9.671  69.582  1.00  0.00    -0.260 A  
HETATM   16  C   UNL     1     -10.073   8.714  68.794  1.00  0.00    -0.210 A  
HETATM   17  C   UNL     1      -9.444   7.613  69.400  1.00  0.00    -0.152 A  
HETATM   18  C   UNL     1      -9.446   7.482  70.791  1.00  0.00    -0.163 A  
HETATM   19  C   UNL     1     -10.675   9.573  70.975  1.00  0.00    -0.411 A  
HETATM   20 CL   UNL     1      -8.775   6.138  71.641  1.00  0.00    -0.134 Cl 
HETATM   21  C   UNL     1     -10.041   8.479  71.574  1.00  0.00    -0.315 A  
BRANCH  17  22
HETATM   22  S   UNL     1      -8.718   6.386  68.361  1.00  0.00    -0.112 S  
HETATM   23  O   UNL     1      -9.486   5.166  68.464  1.00  0.00    -0.120 OA 
HETATM   24  N   UNL     1      -9.026   6.949  66.811  1.00  0.00    -0.127 N  
HETATM   25  H1  UNL     1      -8.605   6.240  66.210  1.00  0.00     0.000 HD 
HETATM   26  O   UNL     1      -7.287   6.402  68.549  1.00  0.00    -0.082 OA 
HETATM   27  H2  UNL     1      -9.516   7.799  66.535  1.00  0.00     0.000 HD 
ENDBRANCH  17  22
ENDBRANCH  12  15
ENDBRANCH  10  11
TORSDOF 3
ENDMDL
MODEL       51
REMARK 921   NORMALIZED FREE ENERGY PREDICTED BY IDOCK:   -5.50 KCAL/MOL
REMARK 922        TOTAL FREE ENERGY PREDICTED BY IDOCK:   -7.13 KCAL/MOL
REMARK 923 INTER-LIGAND FREE ENERGY PREDICTED BY IDOCK:   -6.75 KCAL/MOL
REMARK 924 INTRA-LIGAND FREE ENERGY PREDICTED BY IDOCK:   -0.37 KCAL/MOL
REMARK 927      BINDING AFFINITY PREDICTED BY RF-SCORE:    0.00 PKD
ROOT
HETATM    1  C   UNL     1     -12.092  13.919  68.208  1.00  0.00    -0.322 C  
HETATM    2  C   UNL     1     -11.017  12.923  68.642  1.00  0.00    -0.261 A  
HETATM    3  C   UNL     1     -11.552  11.464  68.615  1.00  0.00    -0.384 A  
HETATM    4  C   UNL     1     -10.700  10.817  67.567  1.00  0.00    -0.312 A  
HETATM    5  C   UNL     1     -10.745   9.503  67.126  1.00  0.00    -0.252 A  
HETATM    6  C   UNL     1      -9.834   9.108  66.147  1.00  0.00    -0.363 A  
HETATM    7  C   UNL     1      -8.916  10.028  65.617  1.00  0.00    -0.203 A  
HETATM    8  C   UNL     1      -8.880  11.350  66.082  1.00  0.00    -0.186 A  
HETATM    9  C   UNL     1      -9.762  11.732  67.079  1.00  0.00    -0.185 A  
HETATM   10  N   UNL     1      -9.823  12.943  67.778  1.00  0.00    -0.215 NA 
ENDROOT
BRANCH  10  11
HETATM   11  N   UNL     1      -9.327  14.100  67.207  1.00  0.00    -0.216 N  
HETATM   12  C   UNL     1      -8.279  14.746  67.852  1.00  0.00    -0.150 C  
HETATM   13  H   UNL     1      -9.718  14.469  66.339  1.00  0.00     0.000 HD 
HETATM   14  O   UNL     1      -7.669  14.317  68.827  1.00  0.00    -0.134 OA 
BRANCH  12  15
HETATM   15  C   UNL     1      -7.970  16.113  67.349  1.00  0.00    -0.185 A  
HETATM   16  C   UNL     1      -9.002  17.062  67.312  1.00  0.00    -0.224 A  
HETATM   17  C   UNL     1      -8.784  18.316  66.718  1.00  0.00    -0.272 A  
HETATM   18  C   UNL     1      -7.531  18.633  66.187  1.00  0.00    -0.255 A  
HETATM   19  C   UNL     1      -6.701  16.453  66.875  1.00  0.00    -0.205 A  
HETATM   20 CL   UNL     1      -7.168  20.108  65.367  1.00  0.00    -0.311 Cl 
HETATM   21  C   UNL     1      -6.487  17.706  66.291  1.00  0.00    -0.288 A  
BRANCH  17  22
HETATM   22  S   UNL     1     -10.141  19.439  66.610  1.00  0.00    -0.448 S  
HETATM   23  O   UNL     1     -11.120  19.092  67.614  1.00  0.00    -0.362 OA 
HETATM   24  N   UNL     1      -9.493  20.893  67.135  1.00  0.00    -0.682 N  
HETATM   25  H1  UNL     1     -10.277  21.543  67.072  1.00  0.00     0.000 HD 
HETATM   26  O   UNL     1     -10.501  19.603  65.222  1.00  0.00    -0.339 OA 
HETATM   27  H2  UNL     1      -8.540  21.084  67.443  1.00  0.00     0.000 HD 
ENDBRANCH  17  22
ENDBRANCH  12  15
ENDBRANCH  10  11
TORSDOF 3
ENDMDL
MODEL       52
REMARK 921   NORMALIZED FREE ENERGY PREDICTED BY IDOCK:   -5.50 KCAL/MOL
REMARK 922        TOTAL FREE ENERGY PREDICTED BY IDOCK:   -7.13 KCAL/MOL
REMARK 923 INTER-LIGAND FREE ENERGY PREDICTED BY IDOCK:   -6.99 KCAL/MOL
REMARK 924 INTRA-LIGAND FREE ENERGY PREDICTED BY IDOCK:   -0.14 KCAL/MOL
REMARK 927      BINDING AFFINITY PREDICTED BY RF-SCORE:    0.00 PKD
ROOT
HETATM    1  C   UNL     1      -7.296   9.594  69.908  1.00  0.00    -0.120 C  
HETATM    2  C   UNL     1      -7.903   8.727  68.806  1.00  0.00    -0.101 A  
HETATM    3  C   UNL     1      -7.055   7.449  68.557  1.00  0.00    -0.084 A  
HETATM    4  C   UNL     1      -7.994   6.346  68.938  1.00  0.00    -0.110 A  
HETATM    5  C   UNL     1      -7.757   4.981  68.913  1.00  0.00    -0.077 A  
HETATM    6  C   UNL     1      -8.793   4.128  69.294  1.00  0.00    -0.142 A  
HETATM    7  C   UNL     1     -10.027   4.651  69.709  1.00  0.00    -0.295 A  
HETATM    8  C   UNL     1     -10.251   6.034  69.720  1.00  0.00    -0.265 A  
HETATM    9  C   UNL     1      -9.233   6.879  69.308  1.00  0.00    -0.139 A  
HETATM   10  N   UNL     1      -9.269   8.265  69.116  1.00  0.00    -0.151 NA 
ENDROOT
BRANCH  10  11
HETATM   11  N   UNL     1     -10.187   9.037  69.801  1.00  0.00    -0.198 N  
HETATM   12  C   UNL     1     -10.946   9.944  69.072  1.00  0.00    -0.190 C  
HETATM   13  H   UNL     1     -10.304   8.945  70.811  1.00  0.00     0.000 HD 
HETATM   14  O   UNL     1     -10.961  10.042  67.848  1.00  0.00    -0.274 OA 
BRANCH  12  15
HETATM   15  C   UNL     1     -11.713  10.928  69.884  1.00  0.00    -0.418 A  
HETATM   16  C   UNL     1     -11.595  12.290  69.575  1.00  0.00    -0.366 A  
HETATM   17  C   UNL     1     -12.192  13.256  70.402  1.00  0.00    -0.332 A  
HETATM   18  C   UNL     1     -12.930  12.860  71.522  1.00  0.00    -0.294 A  
HETATM   19  C   UNL     1     -12.502  10.531  70.967  1.00  0.00    -0.501 A  
HETATM   20 CL   UNL     1     -13.643  13.954  72.650  1.00  0.00    -0.647 Cl 
HETATM   21  C   UNL     1     -13.102  11.496  71.784  1.00  0.00    -0.503 A  
BRANCH  17  22
HETATM   22  S   UNL     1     -11.933  14.959  70.025  1.00  0.00    -0.352 S  
HETATM   23  O   UNL     1     -11.795  15.109  68.594  1.00  0.00    -0.339 OA 
HETATM   24  N   UNL     1     -13.408  15.672  70.384  1.00  0.00    -0.763 N  
HETATM   25  H1  UNL     1     -13.258  16.658  70.166  1.00  0.00     0.000 HD 
HETATM   26  O   UNL     1     -10.959  15.498  70.943  1.00  0.00    -0.329 OA 
HETATM   27  H2  UNL     1     -14.254  15.227  70.738  1.00  0.00     0.000 HD 
ENDBRANCH  17  22
ENDBRANCH  12  15
ENDBRANCH  10  11
TORSDOF 3
ENDMDL
MODEL       53
REMARK 921   NORMALIZED FREE ENERGY PREDICTED BY IDOCK:   -5.50 KCAL/MOL
REMARK 922        TOTAL FREE ENERGY PREDICTED BY IDOCK:   -7.12 KCAL/MOL
REMARK 923 INTER-LIGAND FREE ENERGY PREDICTED BY IDOCK:   -7.75 KCAL/MOL
REMARK 924 INTRA-LIGAND FREE ENERGY PREDICTED BY IDOCK:    0.63 KCAL/MOL
REMARK 927      BINDING AFFINITY PREDICTED BY RF-SCORE:    0.00 PKD
ROOT
HETATM    1  C   UNL     1      -9.906  15.860  68.868  1.00  0.00    -0.226 C  
HETATM    2  C   UNL     1     -11.098  16.002  67.923  1.00  0.00    -0.307 A  
HETATM    3  C   UNL     1     -10.637  16.275  66.464  1.00  0.00    -0.256 A  
HETATM    4  C   UNL     1     -11.125  15.065  65.729  1.00  0.00    -0.346 A  
HETATM    5  C   UNL     1     -10.986  14.776  64.380  1.00  0.00    -0.067 A  
HETATM    6  C   UNL     1     -11.544  13.590  63.902  1.00  0.00    -0.350 A  
HETATM    7  C   UNL     1     -12.205  12.713  64.776  1.00  0.00    -0.528 A  
HETATM    8  C   UNL     1     -12.343  13.027  66.135  1.00  0.00    -0.335 A  
HETATM    9  C   UNL     1     -11.819  14.221  66.602  1.00  0.00    -0.421 A  
HETATM   10  N   UNL     1     -11.945  14.796  67.872  1.00  0.00    -0.295 NA 
ENDROOT
BRANCH  10  11
HETATM   11  N   UNL     1     -12.186  13.998  68.974  1.00  0.00    -0.494 N  
HETATM   12  C   UNL     1     -11.330  12.926  69.200  1.00  0.00    -0.273 C  
HETATM   13  H   UNL     1     -12.967  14.189  69.603  1.00  0.00     0.000 HD 
HETATM   14  O   UNL     1     -10.302  12.690  68.572  1.00  0.00    -0.234 OA 
BRANCH  12  15
HETATM   15  C   UNL     1     -11.788  11.953  70.229  1.00  0.00    -0.368 A  
HETATM   16  C   UNL     1     -11.293  10.643  70.180  1.00  0.00    -0.402 A  
HETATM   17  C   UNL     1     -11.806   9.663  71.047  1.00  0.00    -0.347 A  
HETATM   18  C   UNL     1     -12.792   9.998  71.979  1.00  0.00    -0.389 A  
HETATM   19  C   UNL     1     -12.728  12.301  71.203  1.00  0.00    -0.340 A  
HETATM   20 CL   UNL     1     -13.548   8.866  73.040  1.00  0.00    -0.105 Cl 
HETATM   21  C   UNL     1     -13.230  11.324  72.069  1.00  0.00    -0.437 A  
BRANCH  17  22
HETATM   22  S   UNL     1     -11.219   8.008  70.881  1.00  0.00    -0.266 S  
HETATM   23  O   UNL     1     -10.874   7.497  72.188  1.00  0.00    -0.221 OA 
HETATM   24  N   UNL     1     -12.588   7.146  70.437  1.00  0.00    -0.534 N  
HETATM   25  H1  UNL     1     -12.249   6.188  70.341  1.00  0.00     0.000 HD 
HETATM   26  O   UNL     1     -10.295   7.948  69.773  1.00  0.00    -0.208 OA 
HETATM   27  H2  UNL     1     -13.535   7.496  70.297  1.00  0.00     0.000 HD 
ENDBRANCH  17  22
ENDBRANCH  12  15
ENDBRANCH  10  11
TORSDOF 3
ENDMDL
MODEL       54
REMARK 921   NORMALIZED FREE ENERGY PREDICTED BY IDOCK:   -5.46 KCAL/MOL
REMARK 922        TOTAL FREE ENERGY PREDICTED BY IDOCK:   -7.08 KCAL/MOL
REMARK 923 INTER-LIGAND FREE ENERGY PREDICTED BY IDOCK:   -6.81 KCAL/MOL
REMARK 924 INTRA-LIGAND FREE ENERGY PREDICTED BY IDOCK:   -0.27 KCAL/MOL
REMARK 927      BINDING AFFINITY PREDICTED BY RF-SCORE:    0.00 PKD
ROOT
HETATM    1  C   UNL     1      -7.758  13.617  67.918  1.00  0.00    -0.157 C  
HETATM    2  C   UNL     1      -9.137  14.265  68.037  1.00  0.00    -0.191 A  
HETATM    3  C   UNL     1      -9.239  15.546  67.164  1.00  0.00    -0.228 A  
HETATM    4  C   UNL     1     -10.297  15.186  66.167  1.00  0.00    -0.313 A  
HETATM    5  C   UNL     1     -10.794  15.966  65.135  1.00  0.00    -0.438 A  
HETATM    6  C   UNL     1     -11.803  15.431  64.334  1.00  0.00    -0.260 A  
HETATM    7  C   UNL     1     -12.278  14.130  64.564  1.00  0.00    -0.468 A  
HETATM    8  C   UNL     1     -11.768  13.360  65.618  1.00  0.00    -0.374 A  
HETATM    9  C   UNL     1     -10.791  13.906  66.434  1.00  0.00    -0.291 A  
HETATM   10  N   UNL     1     -10.234  13.380  67.606  1.00  0.00    -0.226 NA 
ENDROOT
BRANCH  10  11
HETATM   11  N   UNL     1     -10.228  12.014  67.820  1.00  0.00    -0.198 N  
HETATM   12  C   UNL     1     -11.301  11.460  68.507  1.00  0.00    -0.271 C  
HETATM   13  H   UNL     1      -9.460  11.432  67.484  1.00  0.00     0.000 HD 
HETATM   14  O   UNL     1     -12.320  12.057  68.842  1.00  0.00    -0.164 OA 
BRANCH  12  15
HETATM   15  C   UNL     1     -11.114  10.048  68.943  1.00  0.00    -0.219 A  
HETATM   16  C   UNL     1     -11.600   9.665  70.200  1.00  0.00    -0.193 A  
HETATM   17  C   UNL     1     -11.323   8.382  70.702  1.00  0.00    -0.244 A  
HETATM   18  C   UNL     1     -10.584   7.475  69.938  1.00  0.00    -0.237 A  
HETATM   19  C   UNL     1     -10.429   9.120  68.154  1.00  0.00    -0.260 A  
HETATM   20 CL   UNL     1     -10.117   5.904  70.480  1.00  0.00    -0.241 Cl 
HETATM   21  C   UNL     1     -10.162   7.842  68.655  1.00  0.00    -0.217 A  
BRANCH  17  22
HETATM   22  S   UNL     1     -11.875   7.982  72.329  1.00  0.00    -0.374 S  
HETATM   23  O   UNL     1     -12.836   8.972  72.758  1.00  0.00    -0.334 OA 
HETATM   24  N   UNL     1     -12.777   6.586  72.108  1.00  0.00    -0.546 N  
HETATM   25  H1  UNL     1     -13.096   6.354  73.049  1.00  0.00     0.000 HD 
HETATM   26  O   UNL     1     -10.731   7.633  73.138  1.00  0.00    -0.365 OA 
HETATM   27  H2  UNL     1     -12.962   6.086  71.239  1.00  0.00     0.000 HD 
ENDBRANCH  17  22
ENDBRANCH  12  15
ENDBRANCH  10  11
TORSDOF 3
ENDMDL
MODEL       55
REMARK 921   NORMALIZED FREE ENERGY PREDICTED BY IDOCK:   -5.44 KCAL/MOL
REMARK 922        TOTAL FREE ENERGY PREDICTED BY IDOCK:   -7.06 KCAL/MOL
REMARK 923 INTER-LIGAND FREE ENERGY PREDICTED BY IDOCK:   -6.75 KCAL/MOL
REMARK 924 INTRA-LIGAND FREE ENERGY PREDICTED BY IDOCK:   -0.31 KCAL/MOL
REMARK 927      BINDING AFFINITY PREDICTED BY RF-SCORE:    0.00 PKD
ROOT
HETATM    1  C   UNL     1      -6.557  16.126  68.600  1.00  0.00    -0.126 C  
HETATM    2  C   UNL     1      -7.676  17.065  69.046  1.00  0.00    -0.180 A  
HETATM    3  C   UNL     1      -7.349  18.544  68.697  1.00  0.00    -0.313 A  
HETATM    4  C   UNL     1      -8.425  18.902  67.719  1.00  0.00    -0.310 A  
HETATM    5  C   UNL     1      -8.619  20.113  67.074  1.00  0.00    -0.408 A  
HETATM    6  C   UNL     1      -9.710  20.230  66.212  1.00  0.00    -0.455 A  
HETATM    7  C   UNL     1     -10.567  19.140  65.998  1.00  0.00    -0.524 A  
HETATM    8  C   UNL     1     -10.360  17.926  66.667  1.00  0.00    -0.362 A  
HETATM    9  C   UNL     1      -9.296  17.821  67.548  1.00  0.00    -0.245 A  
HETATM   10  N   UNL     1      -8.973  16.767  68.410  1.00  0.00    -0.225 NA 
ENDROOT
BRANCH  10  11
HETATM   11  N   UNL     1      -9.391  15.481  68.122  1.00  0.00    -0.196 N  
HETATM   12  C   UNL     1     -10.525  15.006  68.771  1.00  0.00    -0.238 C  
HETATM   13  H   UNL     1      -8.884  14.900  67.454  1.00  0.00     0.000 HD 
HETATM   14  O   UNL     1     -11.263  15.668  69.494  1.00  0.00    -0.266 OA 
BRANCH  12  15
HETATM   15  C   UNL     1     -10.769  13.544  68.632  1.00  0.00    -0.271 A  
HETATM   16  C   UNL     1     -11.444  12.877  69.664  1.00  0.00    -0.251 A  
HETATM   17  C   UNL     1     -11.572  11.478  69.633  1.00  0.00    -0.333 A  
HETATM   18  C   UNL     1     -11.050  10.750  68.560  1.00  0.00    -0.262 A  
HETATM   19  C   UNL     1     -10.304  12.822  67.530  1.00  0.00    -0.219 A  
HETATM   20 CL   UNL     1     -11.080   9.027  68.451  1.00  0.00     0.055 Cl 
HETATM   21  C   UNL     1     -10.440  11.430  67.500  1.00  0.00    -0.233 A  
BRANCH  17  22
HETATM   22  S   UNL     1     -12.344  10.677  71.001  1.00  0.00    -0.422 S  
HETATM   23  O   UNL     1     -13.133  11.644  71.730  1.00  0.00    -0.465 OA 
HETATM   24  N   UNL     1     -13.474   9.667  70.282  1.00  0.00    -0.149 N  
HETATM   25  H1  UNL     1     -13.920   9.203  71.074  1.00  0.00     0.000 HD 
HETATM   26  O   UNL     1     -11.373   9.837  71.660  1.00  0.00    -0.349 OA 
HETATM   27  H2  UNL     1     -13.667   9.544  69.288  1.00  0.00     0.000 HD 
ENDBRANCH  17  22
ENDBRANCH  12  15
ENDBRANCH  10  11
TORSDOF 3
ENDMDL
MODEL       56
REMARK 921   NORMALIZED FREE ENERGY PREDICTED BY IDOCK:   -5.43 KCAL/MOL
REMARK 922        TOTAL FREE ENERGY PREDICTED BY IDOCK:   -7.04 KCAL/MOL
REMARK 923 INTER-LIGAND FREE ENERGY PREDICTED BY IDOCK:   -7.66 KCAL/MOL
REMARK 924 INTRA-LIGAND FREE ENERGY PREDICTED BY IDOCK:    0.61 KCAL/MOL
REMARK 927      BINDING AFFINITY PREDICTED BY RF-SCORE:    0.00 PKD
ROOT
HETATM    1  C   UNL     1      -8.506   6.501  67.535  1.00  0.00    -0.120 C  
HETATM    2  C   UNL     1      -9.725   5.697  67.985  1.00  0.00    -0.126 A  
HETATM    3  C   UNL     1      -9.359   4.701  69.121  1.00  0.00    -0.206 A  
HETATM    4  C   UNL     1     -10.169   5.202  70.276  1.00  0.00    -0.342 A  
HETATM    5  C   UNL     1     -10.228   4.684  71.561  1.00  0.00    -0.224 A  
HETATM    6  C   UNL     1     -11.076   5.303  72.480  1.00  0.00    -0.289 A  
HETATM    7  C   UNL     1     -11.825   6.430  72.108  1.00  0.00    -0.361 A  
HETATM    8  C   UNL     1     -11.758   6.934  70.802  1.00  0.00    -0.417 A  
HETATM    9  C   UNL     1     -10.943   6.297  69.880  1.00  0.00    -0.370 A  
HETATM   10  N   UNL     1     -10.816   6.539  68.508  1.00  0.00    -0.274 NA 
ENDROOT
BRANCH  10  11
HETATM   11  N   UNL     1     -11.118   7.786  67.992  1.00  0.00    -0.414 N  
HETATM   12  C   UNL     1     -10.440   8.884  68.509  1.00  0.00    -0.182 C  
HETATM   13  H   UNL     1     -11.815   7.897  67.255  1.00  0.00     0.000 HD 
HETATM   14  O   UNL     1      -9.508   8.837  69.306  1.00  0.00    -0.158 OA 
BRANCH  12  15
HETATM   15  C   UNL     1     -10.990  10.211  68.118  1.00  0.00    -0.313 A  
HETATM   16  C   UNL     1     -11.014  10.551  66.758  1.00  0.00    -0.150 A  
HETATM   17  C   UNL     1     -11.397  11.844  66.362  1.00  0.00    -0.339 A  
HETATM   18  C   UNL     1     -11.781  12.786  67.320  1.00  0.00    -0.378 A  
HETATM   19  C   UNL     1     -11.434  11.133  69.069  1.00  0.00    -0.364 A  
HETATM   20 CL   UNL     1     -12.196  14.422  66.960  1.00  0.00    -0.377 Cl 
HETATM   21  C   UNL     1     -11.821  12.416  68.669  1.00  0.00    -0.348 A  
BRANCH  17  22
HETATM   22  S   UNL     1     -11.319  12.252  64.647  1.00  0.00    -0.335 S  
HETATM   23  O   UNL     1     -12.559  12.881  64.255  1.00  0.00    -0.604 OA 
HETATM   24  N   UNL     1     -10.182  13.484  64.587  1.00  0.00    -0.592 N  
HETATM   25  H1  UNL     1     -10.137  13.720  63.595  1.00  0.00     0.000 HD 
HETATM   26  O   UNL     1     -10.774  11.128  63.924  1.00  0.00    -0.376 OA 
HETATM   27  H2  UNL     1      -9.660  13.899  65.358  1.00  0.00     0.000 HD 
ENDBRANCH  17  22
ENDBRANCH  12  15
ENDBRANCH  10  11
TORSDOF 3
ENDMDL
MODEL       57
REMARK 921   NORMALIZED FREE ENERGY PREDICTED BY IDOCK:   -5.42 KCAL/MOL
REMARK 922        TOTAL FREE ENERGY PREDICTED BY IDOCK:   -7.03 KCAL/MOL
REMARK 923 INTER-LIGAND FREE ENERGY PREDICTED BY IDOCK:   -7.40 KCAL/MOL
REMARK 924 INTRA-LIGAND FREE ENERGY PREDICTED BY IDOCK:    0.37 KCAL/MOL
REMARK 927      BINDING AFFINITY PREDICTED BY RF-SCORE:    0.00 PKD
ROOT
HETATM    1  C   UNL     1     -12.925  10.465  71.670  1.00  0.00    -0.581 C  
HETATM    2  C   UNL     1     -11.673   9.593  71.740  1.00  0.00    -0.285 A  
HETATM    3  C   UNL     1     -12.036   8.082  71.779  1.00  0.00    -0.342 A  
HETATM    4  C   UNL     1     -11.442   7.564  70.506  1.00  0.00    -0.259 A  
HETATM    5  C   UNL     1     -11.468   6.265  70.022  1.00  0.00    -0.460 A  
HETATM    6  C   UNL     1     -10.826   6.002  68.812  1.00  0.00    -0.391 A  
HETATM    7  C   UNL     1     -10.194   7.036  68.104  1.00  0.00    -0.211 A  
HETATM    8  C   UNL     1     -10.171   8.341  68.613  1.00  0.00    -0.223 A  
HETATM    9  C   UNL     1     -10.779   8.594  69.832  1.00  0.00    -0.225 A  
HETATM   10  N   UNL     1     -10.773   9.773  70.586  1.00  0.00    -0.311 NA 
ENDROOT
BRANCH  10  11
HETATM   11  N   UNL     1     -10.580  10.993  69.966  1.00  0.00    -0.413 N  
HETATM   12  C   UNL     1     -11.467  11.358  68.960  1.00  0.00    -0.300 C  
HETATM   13  H   UNL     1      -9.812  11.607  70.238  1.00  0.00     0.000 HD 
HETATM   14  O   UNL     1     -12.484  10.744  68.648  1.00  0.00    -0.348 OA 
BRANCH  12  15
HETATM   15  C   UNL     1     -11.059  12.539  68.151  1.00  0.00    -0.282 A  
HETATM   16  C   UNL     1      -9.831  13.153  68.435  1.00  0.00    -0.206 A  
HETATM   17  C   UNL     1      -9.475  14.348  67.788  1.00  0.00    -0.211 A  
HETATM   18  C   UNL     1     -10.331  14.915  66.840  1.00  0.00    -0.264 A  
HETATM   19  C   UNL     1     -11.886  13.072  67.159  1.00  0.00    -0.431 A  
HETATM   20 CL   UNL     1     -10.036  16.416  66.040  1.00  0.00    -0.352 Cl 
HETATM   21  C   UNL     1     -11.524  14.259  66.512  1.00  0.00    -0.368 A  
BRANCH  17  22
HETATM   22  S   UNL     1      -7.963  15.132  68.249  1.00  0.00    -0.136 S  
HETATM   23  O   UNL     1      -8.261  16.407  68.862  1.00  0.00    -0.218 OA 
HETATM   24  N   UNL     1      -7.393  14.181  69.507  1.00  0.00    -0.347 N  
HETATM   25  H1  UNL     1      -6.518  14.635  69.774  1.00  0.00     0.000 HD 
HETATM   26  O   UNL     1      -7.024  15.014  67.160  1.00  0.00    -0.234 OA 
HETATM   27  H2  UNL     1      -7.819  13.347  69.910  1.00  0.00     0.000 HD 
ENDBRANCH  17  22
ENDBRANCH  12  15
ENDBRANCH  10  11
TORSDOF 3
ENDMDL
MODEL       58
REMARK 921   NORMALIZED FREE ENERGY PREDICTED BY IDOCK:   -5.40 KCAL/MOL
REMARK 922        TOTAL FREE ENERGY PREDICTED BY IDOCK:   -7.01 KCAL/MOL
REMARK 923 INTER-LIGAND FREE ENERGY PREDICTED BY IDOCK:   -6.58 KCAL/MOL
REMARK 924 INTRA-LIGAND FREE ENERGY PREDICTED BY IDOCK:   -0.42 KCAL/MOL
REMARK 927      BINDING AFFINITY PREDICTED BY RF-SCORE:    0.00 PKD
ROOT
HETATM    1  C   UNL     1      -6.464  16.288  68.089  1.00  0.00    -0.133 C  
HETATM    2  C   UNL     1      -7.716  16.951  68.660  1.00  0.00    -0.235 A  
HETATM    3  C   UNL     1      -7.570  18.498  68.701  1.00  0.00    -0.330 A  
HETATM    4  C   UNL     1      -8.639  18.958  67.759  1.00  0.00    -0.318 A  
HETATM    5  C   UNL     1      -8.961  20.260  67.408  1.00  0.00    -0.457 A  
HETATM    6  C   UNL     1     -10.019  20.459  66.520  1.00  0.00    -0.448 A  
HETATM    7  C   UNL     1     -10.715  19.362  65.988  1.00  0.00    -0.512 A  
HETATM    8  C   UNL     1     -10.380  18.054  66.360  1.00  0.00    -0.382 A  
HETATM    9  C   UNL     1      -9.352  17.860  67.269  1.00  0.00    -0.258 A  
HETATM   10  N   UNL     1      -8.933  16.670  67.876  1.00  0.00    -0.214 NA 
ENDROOT
BRANCH  10  11
HETATM   11  N   UNL     1      -9.165  15.456  67.258  1.00  0.00    -0.203 N  
HETATM   12  C   UNL     1     -10.015  14.556  67.892  1.00  0.00    -0.226 C  
HETATM   13  H   UNL     1      -8.728  15.227  66.365  1.00  0.00     0.000 HD 
HETATM   14  O   UNL     1     -10.676  14.788  68.900  1.00  0.00    -0.236 OA 
BRANCH  12  15
HETATM   15  C   UNL     1     -10.015  13.179  67.328  1.00  0.00    -0.230 A  
HETATM   16  C   UNL     1      -9.908  12.094  68.210  1.00  0.00    -0.212 A  
HETATM   17  C   UNL     1      -9.766  10.789  67.708  1.00  0.00    -0.162 A  
HETATM   18  C   UNL     1      -9.759  10.565  66.328  1.00  0.00    -0.205 A  
HETATM   19  C   UNL     1     -10.070  12.948  65.951  1.00  0.00    -0.295 A  
HETATM   20 CL   UNL     1      -9.516   9.021  65.597  1.00  0.00    -0.301 Cl 
HETATM   21  C   UNL     1      -9.937  11.646  65.456  1.00  0.00    -0.277 A  
BRANCH  17  22
HETATM   22  S   UNL     1      -9.538   9.470  68.856  1.00  0.00    -0.161 S  
HETATM   23  O   UNL     1      -9.618   9.996  70.200  1.00  0.00    -0.225 OA 
HETATM   24  N   UNL     1     -10.927   8.547  68.679  1.00  0.00    -0.435 N  
HETATM   25  H1  UNL     1     -10.795   7.784  69.343  1.00  0.00     0.000 HD 
HETATM   26  O   UNL     1      -8.425   8.660  68.422  1.00  0.00    -0.128 OA 
HETATM   27  H2  UNL     1     -11.717   8.710  68.055  1.00  0.00     0.000 HD 
ENDBRANCH  17  22
ENDBRANCH  12  15
ENDBRANCH  10  11
TORSDOF 3
ENDMDL
MODEL       59
REMARK 921   NORMALIZED FREE ENERGY PREDICTED BY IDOCK:   -5.38 KCAL/MOL
REMARK 922        TOTAL FREE ENERGY PREDICTED BY IDOCK:   -6.98 KCAL/MOL
REMARK 923 INTER-LIGAND FREE ENERGY PREDICTED BY IDOCK:   -6.98 KCAL/MOL
REMARK 924 INTRA-LIGAND FREE ENERGY PREDICTED BY IDOCK:   -0.00 KCAL/MOL
REMARK 927      BINDING AFFINITY PREDICTED BY RF-SCORE:    0.00 PKD
ROOT
HETATM    1  C   UNL     1     -13.125   9.978  71.249  1.00  0.00    -0.493 C  
HETATM    2  C   UNL     1     -11.727   9.477  71.606  1.00  0.00    -0.390 A  
HETATM    3  C   UNL     1     -11.773   8.450  72.772  1.00  0.00    -0.245 A  
HETATM    4  C   UNL     1     -11.268   7.194  72.129  1.00  0.00    -0.290 A  
HETATM    5  C   UNL     1     -11.101   5.948  72.713  1.00  0.00    -0.321 A  
HETATM    6  C   UNL     1     -10.591   4.917  71.924  1.00  0.00    -0.186 A  
HETATM    7  C   UNL     1     -10.280   5.142  70.574  1.00  0.00    -0.330 A  
HETATM    8  C   UNL     1     -10.448   6.411  70.004  1.00  0.00    -0.267 A  
HETATM    9  C   UNL     1     -10.922   7.444  70.798  1.00  0.00    -0.255 A  
HETATM   10  N   UNL     1     -11.047   8.802  70.485  1.00  0.00    -0.245 NA 
ENDROOT
BRANCH  10  11
HETATM   11  N   UNL     1     -11.188   9.202  69.170  1.00  0.00    -0.438 N  
HETATM   12  C   UNL     1     -10.115   9.849  68.569  1.00  0.00    -0.168 C  
HETATM   13  H   UNL     1     -12.053   9.028  68.656  1.00  0.00     0.000 HD 
HETATM   14  O   UNL     1      -9.001   9.995  69.064  1.00  0.00    -0.144 OA 
BRANCH  12  15
HETATM   15  C   UNL     1     -10.414  10.491  67.259  1.00  0.00    -0.300 A  
HETATM   16  C   UNL     1      -9.606  10.174  66.158  1.00  0.00    -0.256 A  
HETATM   17  C   UNL     1      -9.770  10.861  64.943  1.00  0.00    -0.266 A  
HETATM   18  C   UNL     1     -10.757  11.844  64.821  1.00  0.00    -0.307 A  
HETATM   19  C   UNL     1     -11.440  11.429  67.117  1.00  0.00    -0.268 A  
HETATM   20 CL   UNL     1     -11.000  12.804  63.407  1.00  0.00    -0.337 Cl 
HETATM   21  C   UNL     1     -11.605  12.105  65.904  1.00  0.00    -0.425 A  
BRANCH  17  22
HETATM   22  S   UNL     1      -8.667  10.494  63.617  1.00  0.00    -0.164 S  
HETATM   23  O   UNL     1      -7.363  10.186  64.160  1.00  0.00    -0.135 OA 
HETATM   24  N   UNL     1      -9.234   9.032  63.024  1.00  0.00    -0.431 N  
HETATM   25  H1  UNL     1      -8.596   8.819  62.257  1.00  0.00     0.000 HD 
HETATM   26  O   UNL     1      -8.843  11.479  62.576  1.00  0.00    -0.319 OA 
HETATM   27  H2  UNL     1     -10.029   8.484  63.353  1.00  0.00     0.000 HD 
ENDBRANCH  17  22
ENDBRANCH  12  15
ENDBRANCH  10  11
TORSDOF 3
ENDMDL
MODEL       60
REMARK 921   NORMALIZED FREE ENERGY PREDICTED BY IDOCK:   -5.37 KCAL/MOL
REMARK 922        TOTAL FREE ENERGY PREDICTED BY IDOCK:   -6.98 KCAL/MOL
REMARK 923 INTER-LIGAND FREE ENERGY PREDICTED BY IDOCK:   -7.50 KCAL/MOL
REMARK 924 INTRA-LIGAND FREE ENERGY PREDICTED BY IDOCK:    0.52 KCAL/MOL
REMARK 927      BINDING AFFINITY PREDICTED BY RF-SCORE:    0.00 PKD
ROOT
HETATM    1  C   UNL     1      -5.675  17.109  68.349  1.00  0.00    -0.140 C  
HETATM    2  C   UNL     1      -6.772  17.810  69.149  1.00  0.00    -0.239 A  
HETATM    3  C   UNL     1      -6.766  19.343  68.895  1.00  0.00    -0.348 A  
HETATM    4  C   UNL     1      -8.096  19.578  68.247  1.00  0.00    -0.369 A  
HETATM    5  C   UNL     1      -8.625  20.780  67.803  1.00  0.00    -0.033 A  
HETATM    6  C   UNL     1      -9.904  20.768  67.245  1.00  0.00    -0.433 A  
HETATM    7  C   UNL     1     -10.615  19.564  67.125  1.00  0.00    -0.605 A  
HETATM    8  C   UNL     1     -10.067  18.361  67.588  1.00  0.00    -0.378 A  
HETATM    9  C   UNL     1      -8.811  18.379  68.173  1.00  0.00    -0.302 A  
HETATM   10  N   UNL     1      -8.128  17.339  68.813  1.00  0.00    -0.263 NA 
ENDROOT
BRANCH  10  11
HETATM   11  N   UNL     1      -8.410  16.024  68.495  1.00  0.00    -0.181 N  
HETATM   12  C   UNL     1      -8.491  15.683  67.150  1.00  0.00    -0.207 C  
HETATM   13  H   UNL     1      -8.554  15.325  69.225  1.00  0.00     0.000 HD 
HETATM   14  O   UNL     1      -8.217  16.423  66.209  1.00  0.00    -0.308 OA 
BRANCH  12  15
HETATM   15  C   UNL     1      -9.058  14.336  66.870  1.00  0.00    -0.268 A  
HETATM   16  C   UNL     1      -9.972  14.200  65.815  1.00  0.00    -0.331 A  
HETATM   17  C   UNL     1     -10.631  12.976  65.607  1.00  0.00    -0.282 A  
HETATM   18  C   UNL     1     -10.358  11.883  66.435  1.00  0.00    -0.219 A  
HETATM   19  C   UNL     1      -8.739  13.226  67.656  1.00  0.00    -0.195 A  
HETATM   20 CL   UNL     1     -11.159  10.358  66.324  1.00  0.00     0.088 Cl 
HETATM   21  C   UNL     1      -9.392  12.008  67.441  1.00  0.00    -0.178 A  
BRANCH  17  22
HETATM   22  S   UNL     1     -11.842  12.884  64.328  1.00  0.00    -0.428 S  
HETATM   23  O   UNL     1     -13.149  12.739  64.927  1.00  0.00    -0.833 OA 
HETATM   24  N   UNL     1     -11.845  14.428  63.674  1.00  0.00    -0.671 N  
HETATM   25  H1  UNL     1     -12.545  14.374  62.934  1.00  0.00     0.000 HD 
HETATM   26  O   UNL     1     -11.371  11.982  63.304  1.00  0.00    -0.381 OA 
HETATM   27  H2  UNL     1     -11.280  15.230  63.950  1.00  0.00     0.000 HD 
ENDBRANCH  17  22
ENDBRANCH  12  15
ENDBRANCH  10  11
TORSDOF 3
ENDMDL
MODEL       61
REMARK 921   NORMALIZED FREE ENERGY PREDICTED BY IDOCK:   -5.37 KCAL/MOL
REMARK 922        TOTAL FREE ENERGY PREDICTED BY IDOCK:   -6.97 KCAL/MOL
REMARK 923 INTER-LIGAND FREE ENERGY PREDICTED BY IDOCK:   -7.01 KCAL/MOL
REMARK 924 INTRA-LIGAND FREE ENERGY PREDICTED BY IDOCK:    0.04 KCAL/MOL
REMARK 927      BINDING AFFINITY PREDICTED BY RF-SCORE:    0.00 PKD
ROOT
HETATM    1  C   UNL     1     -11.845   7.068  70.584  1.00  0.00    -0.377 C  
HETATM    2  C   UNL     1     -10.439   6.768  70.068  1.00  0.00    -0.210 A  
HETATM    3  C   UNL     1     -10.123   5.248  70.133  1.00  0.00    -0.333 A  
HETATM    4  C   UNL     1      -9.943   4.884  68.691  1.00  0.00    -0.195 A  
HETATM    5  C   UNL     1      -9.645   3.639  68.160  1.00  0.00    -0.166 A  
HETATM    6  C   UNL     1      -9.501   3.534  66.776  1.00  0.00    -0.190 A  
HETATM    7  C   UNL     1      -9.676   4.658  65.956  1.00  0.00    -0.208 A  
HETATM    8  C   UNL     1      -9.969   5.911  66.512  1.00  0.00    -0.196 A  
HETATM    9  C   UNL     1     -10.078   6.021  67.889  1.00  0.00    -0.155 A  
HETATM   10  N   UNL     1     -10.235   7.175  68.665  1.00  0.00    -0.173 NA 
ENDROOT
BRANCH  10  11
HETATM   11  N   UNL     1     -10.811   8.306  68.119  1.00  0.00    -0.453 N  
HETATM   12  C   UNL     1     -10.014   9.436  67.973  1.00  0.00    -0.176 C  
HETATM   13  H   UNL     1     -11.791   8.312  67.832  1.00  0.00     0.000 HD 
HETATM   14  O   UNL     1      -8.805   9.487  68.177  1.00  0.00    -0.124 OA 
BRANCH  12  15
HETATM   15  C   UNL     1     -10.745  10.689  67.639  1.00  0.00    -0.315 A  
HETATM   16  C   UNL     1     -10.868  11.054  66.291  1.00  0.00    -0.234 A  
HETATM   17  C   UNL     1     -11.429  12.294  65.945  1.00  0.00    -0.376 A  
HETATM   18  C   UNL     1     -11.890  13.158  66.942  1.00  0.00    -0.386 A  
HETATM   19  C   UNL     1     -11.263  11.525  68.631  1.00  0.00    -0.307 A  
HETATM   20 CL   UNL     1     -12.526  14.735  66.643  1.00  0.00     0.074 Cl 
HETATM   21  C   UNL     1     -11.828  12.756  68.282  1.00  0.00    -0.357 A  
BRANCH  17  22
HETATM   22  S   UNL     1     -11.473  12.748  64.241  1.00  0.00    -0.404 S  
HETATM   23  O   UNL     1     -12.818  12.572  63.741  1.00  0.00    -0.721 OA 
HETATM   24  N   UNL     1     -11.246  14.409  64.268  1.00  0.00    -0.611 N  
HETATM   25  H1  UNL     1     -11.272  14.671  63.282  1.00  0.00     0.000 HD 
HETATM   26  O   UNL     1     -10.333  12.168  63.573  1.00  0.00    -0.420 OA 
HETATM   27  H2  UNL     1     -11.113  15.014  65.078  1.00  0.00     0.000 HD 
ENDBRANCH  17  22
ENDBRANCH  12  15
ENDBRANCH  10  11
TORSDOF 3
ENDMDL
MODEL       62
REMARK 921   NORMALIZED FREE ENERGY PREDICTED BY IDOCK:   -5.35 KCAL/MOL
REMARK 922        TOTAL FREE ENERGY PREDICTED BY IDOCK:   -6.95 KCAL/MOL
REMARK 923 INTER-LIGAND FREE ENERGY PREDICTED BY IDOCK:   -7.31 KCAL/MOL
REMARK 924 INTRA-LIGAND FREE ENERGY PREDICTED BY IDOCK:    0.36 KCAL/MOL
REMARK 927      BINDING AFFINITY PREDICTED BY RF-SCORE:    0.00 PKD
ROOT
HETATM    1  C   UNL     1     -10.675  19.540  66.614  1.00  0.00    -0.552 C  
HETATM    2  C   UNL     1      -9.158  19.633  66.447  1.00  0.00    -0.379 A  
HETATM    3  C   UNL     1      -8.517  20.500  67.566  1.00  0.00    -0.316 A  
HETATM    4  C   UNL     1      -7.648  19.519  68.291  1.00  0.00    -0.346 A  
HETATM    5  C   UNL     1      -6.838  19.751  69.391  1.00  0.00    -0.364 A  
HETATM    6  C   UNL     1      -6.092  18.685  69.894  1.00  0.00    -0.217 A  
HETATM    7  C   UNL     1      -6.184  17.414  69.306  1.00  0.00    -0.238 A  
HETATM    8  C   UNL     1      -7.003  17.200  68.189  1.00  0.00    -0.178 A  
HETATM    9  C   UNL     1      -7.717  18.268  67.669  1.00  0.00    -0.228 A  
HETATM   10  N   UNL     1      -8.486  18.322  66.502  1.00  0.00    -0.269 NA 
ENDROOT
BRANCH  10  11
HETATM   11  N   UNL     1      -9.045  17.168  65.984  1.00  0.00    -0.167 N  
HETATM   12  C   UNL     1      -9.860  16.411  66.817  1.00  0.00    -0.256 C  
HETATM   13  H   UNL     1      -8.864  16.882  65.021  1.00  0.00     0.000 HD 
HETATM   14  O   UNL     1     -10.228  16.735  67.942  1.00  0.00    -0.277 OA 
BRANCH  12  15
HETATM   15  C   UNL     1     -10.209  15.058  66.304  1.00  0.00    -0.306 A  
HETATM   16  C   UNL     1     -10.408  14.021  67.227  1.00  0.00    -0.264 A  
HETATM   17  C   UNL     1     -10.602  12.705  66.777  1.00  0.00    -0.237 A  
HETATM   18  C   UNL     1     -10.625  12.427  65.408  1.00  0.00    -0.284 A  
HETATM   19  C   UNL     1     -10.293  14.790  64.935  1.00  0.00    -0.365 A  
HETATM   20 CL   UNL     1     -10.779  10.843  64.741  1.00  0.00    -0.320 Cl 
HETATM   21  C   UNL     1     -10.495  13.478  64.492  1.00  0.00    -0.426 A  
BRANCH  17  22
HETATM   22  S   UNL     1     -10.752  11.422  67.979  1.00  0.00    -0.215 S  
HETATM   23  O   UNL     1      -9.565  10.600  67.941  1.00  0.00    -0.158 OA 
HETATM   24  N   UNL     1     -10.655  12.238  69.441  1.00  0.00    -0.425 N  
HETATM   25  H1  UNL     1     -10.743  11.496  70.137  1.00  0.00     0.000 HD 
HETATM   26  O   UNL     1     -12.075  10.852  67.891  1.00  0.00    -0.527 OA 
HETATM   27  H2  UNL     1     -10.538  13.239  69.599  1.00  0.00     0.000 HD 
ENDBRANCH  17  22
ENDBRANCH  12  15
ENDBRANCH  10  11
TORSDOF 3
ENDMDL
MODEL       63
REMARK 921   NORMALIZED FREE ENERGY PREDICTED BY IDOCK:   -5.35 KCAL/MOL
REMARK 922        TOTAL FREE ENERGY PREDICTED BY IDOCK:   -6.94 KCAL/MOL
REMARK 923 INTER-LIGAND FREE ENERGY PREDICTED BY IDOCK:   -7.28 KCAL/MOL
REMARK 924 INTRA-LIGAND FREE ENERGY PREDICTED BY IDOCK:    0.34 KCAL/MOL
REMARK 927      BINDING AFFINITY PREDICTED BY RF-SCORE:    0.00 PKD
ROOT
HETATM    1  C   UNL     1     -11.229  16.444  68.248  1.00  0.00    -0.300 C  
HETATM    2  C   UNL     1     -10.738  15.710  69.495  1.00  0.00    -0.271 A  
HETATM    3  C   UNL     1     -11.660  15.985  70.715  1.00  0.00    -0.431 A  
HETATM    4  C   UNL     1     -12.218  14.629  71.023  1.00  0.00    -0.399 A  
HETATM    5  C   UNL     1     -13.109  14.285  72.027  1.00  0.00    -0.456 A  
HETATM    6  C   UNL     1     -13.480  12.945  72.144  1.00  0.00    -0.619 A  
HETATM    7  C   UNL     1     -12.973  11.987  71.252  1.00  0.00    -0.315 A  
HETATM    8  C   UNL     1     -12.066  12.354  70.249  1.00  0.00    -0.377 A  
HETATM    9  C   UNL     1     -11.673  13.679  70.155  1.00  0.00    -0.218 A  
HETATM   10  N   UNL     1     -10.696  14.245  69.329  1.00  0.00    -0.211 NA 
ENDROOT
BRANCH  10  11
HETATM   11  N   UNL     1     -10.354  13.633  68.137  1.00  0.00    -0.239 N  
HETATM   12  C   UNL     1     -11.363  13.410  67.208  1.00  0.00    -0.319 C  
HETATM   13  H   UNL     1      -9.391  13.354  67.946  1.00  0.00     0.000 HD 
HETATM   14  O   UNL     1     -12.518  13.815  67.299  1.00  0.00    -0.243 OA 
BRANCH  12  15
HETATM   15  C   UNL     1     -10.996  12.516  66.076  1.00  0.00    -0.318 A  
HETATM   16  C   UNL     1     -10.011  11.540  66.285  1.00  0.00    -0.252 A  
HETATM   17  C   UNL     1      -9.541  10.771  65.207  1.00  0.00    -0.229 A  
HETATM   18  C   UNL     1     -10.074  10.957  63.928  1.00  0.00    -0.361 A  
HETATM   19  C   UNL     1     -11.572  12.657  64.811  1.00  0.00    -0.377 A  
HETATM   20 CL   UNL     1      -9.525  10.127  62.517  1.00  0.00    -0.312 Cl 
HETATM   21  C   UNL     1     -11.107  11.884  63.742  1.00  0.00    -0.510 A  
BRANCH  17  22
HETATM   22  S   UNL     1      -8.233   9.625  65.502  1.00  0.00    -0.132 S  
HETATM   23  O   UNL     1      -7.024  10.122  64.887  1.00  0.00    -0.132 OA 
HETATM   24  N   UNL     1      -7.955   9.759  67.150  1.00  0.00    -0.102 N  
HETATM   25  H1  UNL     1      -7.199   9.096  67.321  1.00  0.00     0.000 HD 
HETATM   26  O   UNL     1      -8.719   8.289  65.254  1.00  0.00    -0.160 OA 
HETATM   27  H2  UNL     1      -8.430  10.360  67.823  1.00  0.00     0.000 HD 
ENDBRANCH  17  22
ENDBRANCH  12  15
ENDBRANCH  10  11
TORSDOF 3
ENDMDL
MODEL       64
REMARK 921   NORMALIZED FREE ENERGY PREDICTED BY IDOCK:   -5.30 KCAL/MOL
REMARK 922        TOTAL FREE ENERGY PREDICTED BY IDOCK:   -6.89 KCAL/MOL
REMARK 923 INTER-LIGAND FREE ENERGY PREDICTED BY IDOCK:   -6.79 KCAL/MOL
REMARK 924 INTRA-LIGAND FREE ENERGY PREDICTED BY IDOCK:   -0.10 KCAL/MOL
REMARK 927      BINDING AFFINITY PREDICTED BY RF-SCORE:    0.00 PKD
ROOT
HETATM    1  C   UNL     1      -9.337   8.325  66.129  1.00  0.00    -0.254 C  
HETATM    2  C   UNL     1     -10.564   8.204  67.031  1.00  0.00    -0.275 A  
HETATM    3  C   UNL     1     -10.515   6.906  67.884  1.00  0.00    -0.262 A  
HETATM    4  C   UNL     1     -10.438   7.432  69.285  1.00  0.00    -0.222 A  
HETATM    5  C   UNL     1     -10.370   6.705  70.463  1.00  0.00    -0.231 A  
HETATM    6  C   UNL     1     -10.327   7.409  71.667  1.00  0.00    -0.215 A  
HETATM    7  C   UNL     1     -10.333   8.812  71.670  1.00  0.00    -0.391 A  
HETATM    8  C   UNL     1     -10.411   9.529  70.469  1.00  0.00    -0.350 A  
HETATM    9  C   UNL     1     -10.488   8.829  69.276  1.00  0.00    -0.219 A  
HETATM   10  N   UNL     1     -10.699   9.322  67.983  1.00  0.00    -0.211 NA 
ENDROOT
BRANCH  10  11
HETATM   11  N   UNL     1     -10.350  10.622  67.670  1.00  0.00    -0.197 N  
HETATM   12  C   UNL     1     -11.310  11.612  67.844  1.00  0.00    -0.299 C  
HETATM   13  H   UNL     1      -9.417  10.849  67.324  1.00  0.00     0.000 HD 
HETATM   14  O   UNL     1     -12.411  11.455  68.364  1.00  0.00    -0.505 OA 
BRANCH  12  15
HETATM   15  C   UNL     1     -10.976  12.932  67.243  1.00  0.00    -0.289 A  
HETATM   16  C   UNL     1     -10.721  14.013  68.099  1.00  0.00    -0.254 A  
HETATM   17  C   UNL     1     -10.538  15.302  67.571  1.00  0.00    -0.273 A  
HETATM   18  C   UNL     1     -10.583  15.507  66.189  1.00  0.00    -0.315 A  
HETATM   19  C   UNL     1     -10.958  13.127  65.859  1.00  0.00    -0.288 A  
HETATM   20 CL   UNL     1     -10.448  17.053  65.432  1.00  0.00    -0.219 Cl 
HETATM   21  C   UNL     1     -10.768  14.411  65.338  1.00  0.00    -0.359 A  
BRANCH  17  22
HETATM   22  S   UNL     1     -10.316  16.644  68.694  1.00  0.00    -0.327 S  
HETATM   23  O   UNL     1     -10.622  16.193  70.033  1.00  0.00    -0.300 OA 
HETATM   24  N   UNL     1      -8.656  16.885  68.699  1.00  0.00    -0.260 N  
HETATM   25  H1  UNL     1      -8.528  17.661  69.348  1.00  0.00     0.000 HD 
HETATM   26  O   UNL     1     -10.922  17.828  68.134  1.00  0.00    -0.271 OA 
HETATM   27  H2  UNL     1      -7.944  16.377  68.175  1.00  0.00     0.000 HD 
ENDBRANCH  17  22
ENDBRANCH  12  15
ENDBRANCH  10  11
TORSDOF 3
ENDMDL
MODEL       65
REMARK 921   NORMALIZED FREE ENERGY PREDICTED BY IDOCK:   -5.26 KCAL/MOL
REMARK 922        TOTAL FREE ENERGY PREDICTED BY IDOCK:   -6.85 KCAL/MOL
REMARK 923 INTER-LIGAND FREE ENERGY PREDICTED BY IDOCK:   -7.55 KCAL/MOL
REMARK 924 INTRA-LIGAND FREE ENERGY PREDICTED BY IDOCK:    0.70 KCAL/MOL
REMARK 927      BINDING AFFINITY PREDICTED BY RF-SCORE:    0.00 PKD
ROOT
HETATM    1  C   UNL     1     -10.014  12.098  67.609  1.00  0.00    -0.199 C  
HETATM    2  C   UNL     1     -11.503  12.223  67.929  1.00  0.00    -0.330 A  
HETATM    3  C   UNL     1     -11.911  11.286  69.100  1.00  0.00    -0.405 A  
HETATM    4  C   UNL     1     -12.345  12.250  70.161  1.00  0.00    -0.212 A  
HETATM    5  C   UNL     1     -12.813  11.961  71.433  1.00  0.00    -0.411 A  
HETATM    6  C   UNL     1     -13.184  13.026  72.254  1.00  0.00    -0.539 A  
HETATM    7  C   UNL     1     -13.063  14.348  71.801  1.00  0.00    -0.428 A  
HETATM    8  C   UNL     1     -12.596  14.621  70.508  1.00  0.00    -0.409 A  
HETATM    9  C   UNL     1     -12.261  13.561  69.681  1.00  0.00    -0.247 A  
HETATM   10  N   UNL     1     -11.899  13.585  68.329  1.00  0.00    -0.356 NA 
ENDROOT
BRANCH  10  11
HETATM   11  N   UNL     1     -11.339  14.723  67.780  1.00  0.00    -0.317 N  
HETATM   12  C   UNL     1     -10.157  15.199  68.336  1.00  0.00    -0.225 C  
HETATM   13  H   UNL     1     -11.779  15.199  66.992  1.00  0.00     0.000 HD 
HETATM   14  O   UNL     1      -9.496  14.631  69.201  1.00  0.00    -0.166 OA 
BRANCH  12  15
HETATM   15  C   UNL     1      -9.750  16.560  67.891  1.00  0.00    -0.236 A  
HETATM   16  C   UNL     1      -8.532  16.706  67.212  1.00  0.00    -0.214 A  
HETATM   17  C   UNL     1      -8.050  17.988  66.898  1.00  0.00    -0.236 A  
HETATM   18  C   UNL     1      -8.794  19.120  67.239  1.00  0.00    -0.289 A  
HETATM   19  C   UNL     1     -10.523  17.689  68.176  1.00  0.00    -0.386 A  
HETATM   20 CL   UNL     1      -8.269  20.743  66.975  1.00  0.00    -0.264 Cl 
HETATM   21  C   UNL     1     -10.042  18.963  67.855  1.00  0.00    -0.431 A  
BRANCH  17  22
HETATM   22  S   UNL     1      -6.468  18.123  66.129  1.00  0.00    -0.262 S  
HETATM   23  O   UNL     1      -6.612  18.829  64.876  1.00  0.00    -0.516 OA 
HETATM   24  N   UNL     1      -5.635  19.188  67.122  1.00  0.00    -0.167 N  
HETATM   25  H1  UNL     1      -4.720  19.265  66.677  1.00  0.00     0.000 HD 
HETATM   26  O   UNL     1      -5.799  16.846  66.210  1.00  0.00    -0.308 OA 
HETATM   27  H2  UNL     1      -5.965  19.648  67.970  1.00  0.00     0.000 HD 
ENDBRANCH  17  22
ENDBRANCH  12  15
ENDBRANCH  10  11
TORSDOF 3
ENDMDL
MODEL       66
REMARK 921   NORMALIZED FREE ENERGY PREDICTED BY IDOCK:   -5.26 KCAL/MOL
REMARK 922        TOTAL FREE ENERGY PREDICTED BY IDOCK:   -6.84 KCAL/MOL
REMARK 923 INTER-LIGAND FREE ENERGY PREDICTED BY IDOCK:   -6.28 KCAL/MOL
REMARK 924 INTRA-LIGAND FREE ENERGY PREDICTED BY IDOCK:   -0.56 KCAL/MOL
REMARK 927      BINDING AFFINITY PREDICTED BY RF-SCORE:    0.00 PKD
ROOT
HETATM    1  C   UNL     1     -12.279  13.624  64.914  1.00  0.00    -0.447 C  
HETATM    2  C   UNL     1     -10.912  14.292  65.051  1.00  0.00    -0.387 A  
HETATM    3  C   UNL     1     -10.974  15.796  64.666  1.00  0.00    -0.333 A  
HETATM    4  C   UNL     1     -10.630  16.484  65.952  1.00  0.00    -0.279 A  
HETATM    5  C   UNL     1     -10.539  17.846  66.190  1.00  0.00    -0.243 A  
HETATM    6  C   UNL     1     -10.179  18.266  67.471  1.00  0.00    -0.384 A  
HETATM    7  C   UNL     1      -9.939  17.326  68.485  1.00  0.00    -0.320 A  
HETATM    8  C   UNL     1     -10.028  15.953  68.223  1.00  0.00    -0.222 A  
HETATM    9  C   UNL     1     -10.352  15.536  66.942  1.00  0.00    -0.290 A  
HETATM   10  N   UNL     1     -10.373  14.237  66.423  1.00  0.00    -0.280 NA 
ENDROOT
BRANCH  10  11
HETATM   11  N   UNL     1     -10.564  13.156  67.263  1.00  0.00    -0.246 N  
HETATM   12  C   UNL     1      -9.497  12.286  67.455  1.00  0.00    -0.181 C  
HETATM   13  H   UNL     1     -11.459  13.002  67.728  1.00  0.00     0.000 HD 
HETATM   14  O   UNL     1      -8.355  12.453  67.036  1.00  0.00    -0.179 OA 
BRANCH  12  15
HETATM   15  C   UNL     1      -9.836  11.009  68.141  1.00  0.00    -0.185 A  
HETATM   16  C   UNL     1      -9.607   9.803  67.465  1.00  0.00    -0.178 A  
HETATM   17  C   UNL     1     -10.039   8.588  68.023  1.00  0.00    -0.200 A  
HETATM   18  C   UNL     1     -10.675   8.576  69.268  1.00  0.00    -0.133 A  
HETATM   19  C   UNL     1     -10.414  10.989  69.413  1.00  0.00    -0.177 A  
HETATM   20 CL   UNL     1     -11.316   7.158  70.016  1.00  0.00    -0.270 Cl 
HETATM   21  C   UNL     1     -10.837   9.777  69.969  1.00  0.00    -0.319 A  
BRANCH  17  22
HETATM   22  S   UNL     1      -9.814   7.109  67.089  1.00  0.00    -0.198 S  
HETATM   23  O   UNL     1     -11.097   6.470  66.902  1.00  0.00    -0.399 OA 
HETATM   24  N   UNL     1      -9.394   7.665  65.564  1.00  0.00    -0.322 N  
HETATM   25  H1  UNL     1      -9.263   6.810  65.023  1.00  0.00     0.000 HD 
HETATM   26  O   UNL     1      -8.677   6.393  67.615  1.00  0.00    -0.115 OA 
HETATM   27  H2  UNL     1      -9.292   8.630  65.250  1.00  0.00     0.000 HD 
ENDBRANCH  17  22
ENDBRANCH  12  15
ENDBRANCH  10  11
TORSDOF 3
ENDMDL
MODEL       67
REMARK 921   NORMALIZED FREE ENERGY PREDICTED BY IDOCK:   -5.25 KCAL/MOL
REMARK 922        TOTAL FREE ENERGY PREDICTED BY IDOCK:   -6.83 KCAL/MOL
REMARK 923 INTER-LIGAND FREE ENERGY PREDICTED BY IDOCK:   -6.46 KCAL/MOL
REMARK 924 INTRA-LIGAND FREE ENERGY PREDICTED BY IDOCK:   -0.37 KCAL/MOL
REMARK 927      BINDING AFFINITY PREDICTED BY RF-SCORE:    0.00 PKD
ROOT
HETATM    1  C   UNL     1     -10.764  12.604  68.525  1.00  0.00    -0.271 C  
HETATM    2  C   UNL     1     -11.495  11.843  67.420  1.00  0.00    -0.323 A  
HETATM    3  C   UNL     1     -11.686  12.725  66.155  1.00  0.00    -0.458 A  
HETATM    4  C   UNL     1     -10.881  12.000  65.120  1.00  0.00    -0.347 A  
HETATM    5  C   UNL     1     -10.695  12.348  63.791  1.00  0.00    -0.492 A  
HETATM    6  C   UNL     1      -9.916  11.507  62.996  1.00  0.00    -0.352 A  
HETATM    7  C   UNL     1      -9.326  10.357  63.543  1.00  0.00    -0.333 A  
HETATM    8  C   UNL     1      -9.533  10.018  64.887  1.00  0.00    -0.355 A  
HETATM    9  C   UNL     1     -10.336  10.835  65.667  1.00  0.00    -0.230 A  
HETATM   10  N   UNL     1     -10.781  10.632  66.978  1.00  0.00    -0.266 NA 
ENDROOT
BRANCH  10  11
HETATM   11  N   UNL     1     -10.059   9.827  67.840  1.00  0.00    -0.164 N  
HETATM   12  C   UNL     1     -10.308   8.460  67.814  1.00  0.00    -0.235 C  
HETATM   13  H   UNL     1      -9.366  10.224  68.475  1.00  0.00     0.000 HD 
HETATM   14  O   UNL     1     -11.030   7.881  67.008  1.00  0.00    -0.219 OA 
BRANCH  12  15
HETATM   15  C   UNL     1      -9.710   7.685  68.935  1.00  0.00    -0.156 A  
HETATM   16  C   UNL     1     -10.527   7.337  70.020  1.00  0.00    -0.234 A  
HETATM   17  C   UNL     1      -9.968   6.728  71.156  1.00  0.00    -0.181 A  
HETATM   18  C   UNL     1      -8.601   6.442  71.198  1.00  0.00    -0.128 A  
HETATM   19  C   UNL     1      -8.355   7.342  68.952  1.00  0.00    -0.126 A  
HETATM   20 CL   UNL     1      -7.792   5.767  72.565  1.00  0.00    -0.102 Cl 
HETATM   21  C   UNL     1      -7.805   6.728  70.082  1.00  0.00    -0.107 A  
BRANCH  17  22
HETATM   22  S   UNL     1     -11.021   6.398  72.533  1.00  0.00    -0.263 S  
HETATM   23  O   UNL     1     -10.664   7.279  73.621  1.00  0.00    -0.378 OA 
HETATM   24  N   UNL     1     -12.522   6.943  72.022  1.00  0.00    -0.497 N  
HETATM   25  H1  UNL     1     -13.131   6.752  72.818  1.00  0.00     0.000 HD 
HETATM   26  O   UNL     1     -11.119   4.969  72.713  1.00  0.00    -0.247 OA 
HETATM   27  H2  UNL     1     -12.769   7.365  71.127  1.00  0.00     0.000 HD 
ENDBRANCH  17  22
ENDBRANCH  12  15
ENDBRANCH  10  11
TORSDOF 3
ENDMDL
MODEL       68
REMARK 921   NORMALIZED FREE ENERGY PREDICTED BY IDOCK:   -5.25 KCAL/MOL
REMARK 922        TOTAL FREE ENERGY PREDICTED BY IDOCK:   -6.83 KCAL/MOL
REMARK 923 INTER-LIGAND FREE ENERGY PREDICTED BY IDOCK:   -6.41 KCAL/MOL
REMARK 924 INTRA-LIGAND FREE ENERGY PREDICTED BY IDOCK:   -0.42 KCAL/MOL
REMARK 927      BINDING AFFINITY PREDICTED BY RF-SCORE:    0.00 PKD
ROOT
HETATM    1  C   UNL     1     -10.423  12.259  63.801  1.00  0.00    -0.476 C  
HETATM    2  C   UNL     1     -10.485  11.630  65.192  1.00  0.00    -0.279 A  
HETATM    3  C   UNL     1     -10.144  10.115  65.146  1.00  0.00    -0.329 A  
HETATM    4  C   UNL     1      -8.889  10.031  65.958  1.00  0.00    -0.164 A  
HETATM    5  C   UNL     1      -8.138   8.903  66.249  1.00  0.00    -0.110 A  
HETATM    6  C   UNL     1      -7.007   9.057  67.051  1.00  0.00    -0.078 A  
HETATM    7  C   UNL     1      -6.639  10.325  67.525  1.00  0.00    -0.067 A  
HETATM    8  C   UNL     1      -7.415  11.453  67.227  1.00  0.00    -0.134 A  
HETATM    9  C   UNL     1      -8.558  11.294  66.460  1.00  0.00    -0.170 A  
HETATM   10  N   UNL     1      -9.542  12.239  66.147  1.00  0.00    -0.245 NA 
ENDROOT
BRANCH  10  11
HETATM   11  N   UNL     1      -9.234  13.587  66.146  1.00  0.00    -0.479 N  
HETATM   12  C   UNL     1      -9.701  14.361  67.202  1.00  0.00    -0.248 C  
HETATM   13  H   UNL     1      -8.682  14.000  65.394  1.00  0.00     0.000 HD 
HETATM   14  O   UNL     1     -10.266  13.933  68.204  1.00  0.00    -0.235 OA 
BRANCH  12  15
HETATM   15  C   UNL     1      -9.577  15.832  67.014  1.00  0.00    -0.236 A  
HETATM   16  C   UNL     1      -8.359  16.347  66.548  1.00  0.00    -0.337 A  
HETATM   17  C   UNL     1      -8.158  17.736  66.488  1.00  0.00    -0.272 A  
HETATM   18  C   UNL     1      -9.181  18.610  66.868  1.00  0.00    -0.304 A  
HETATM   19  C   UNL     1     -10.620  16.705  67.334  1.00  0.00    -0.295 A  
HETATM   20 CL   UNL     1      -9.024  20.328  66.910  1.00  0.00    -0.432 Cl 
HETATM   21  C   UNL     1     -10.418  18.088  67.266  1.00  0.00    -0.390 A  
BRANCH  17  22
HETATM   22  S   UNL     1      -6.576  18.334  65.986  1.00  0.00    -0.280 S  
HETATM   23  O   UNL     1      -6.751  19.299  64.925  1.00  0.00    -0.451 OA 
HETATM   24  N   UNL     1      -6.060  19.239  67.300  1.00  0.00    -0.186 N  
HETATM   25  H1  UNL     1      -5.145  19.584  67.010  1.00  0.00     0.000 HD 
HETATM   26  O   UNL     1      -5.674  17.214  65.854  1.00  0.00    -0.217 OA 
HETATM   27  H2  UNL     1      -6.546  19.405  68.181  1.00  0.00     0.000 HD 
ENDBRANCH  17  22
ENDBRANCH  12  15
ENDBRANCH  10  11
TORSDOF 3
ENDMDL
MODEL       69
REMARK 921   NORMALIZED FREE ENERGY PREDICTED BY IDOCK:   -5.22 KCAL/MOL
REMARK 922        TOTAL FREE ENERGY PREDICTED BY IDOCK:   -6.80 KCAL/MOL
REMARK 923 INTER-LIGAND FREE ENERGY PREDICTED BY IDOCK:   -6.79 KCAL/MOL
REMARK 924 INTRA-LIGAND FREE ENERGY PREDICTED BY IDOCK:   -0.01 KCAL/MOL
REMARK 927      BINDING AFFINITY PREDICTED BY RF-SCORE:    0.00 PKD
ROOT
HETATM    1  C   UNL     1     -11.633  12.485  66.753  1.00  0.00    -0.446 C  
HETATM    2  C   UNL     1     -11.005  12.649  68.136  1.00  0.00    -0.236 A  
HETATM    3  C   UNL     1     -11.602  13.872  68.888  1.00  0.00    -0.353 A  
HETATM    4  C   UNL     1     -12.275  13.241  70.067  1.00  0.00    -0.345 A  
HETATM    5  C   UNL     1     -12.978  13.871  71.083  1.00  0.00    -0.388 A  
HETATM    6  C   UNL     1     -13.508  13.080  72.103  1.00  0.00    -0.638 A  
HETATM    7  C   UNL     1     -13.345  11.687  72.079  1.00  0.00    -0.405 A  
HETATM    8  C   UNL     1     -12.624  11.069  71.048  1.00  0.00    -0.512 A  
HETATM    9  C   UNL     1     -12.069  11.858  70.054  1.00  0.00    -0.291 A  
HETATM   10  N   UNL     1     -11.214  11.481  69.012  1.00  0.00    -0.240 NA 
ENDROOT
BRANCH  10  11
HETATM   11  N   UNL     1     -11.222  10.181  68.543  1.00  0.00    -0.448 N  
HETATM   12  C   UNL     1     -10.240   9.316  69.011  1.00  0.00    -0.206 C  
HETATM   13  H   UNL     1     -11.926   9.867  67.874  1.00  0.00     0.000 HD 
HETATM   14  O   UNL     1      -9.431   9.568  69.899  1.00  0.00    -0.190 OA 
BRANCH  12  15
HETATM   15  C   UNL     1     -10.130   8.025  68.278  1.00  0.00    -0.227 A  
HETATM   16  C   UNL     1      -9.209   7.928  67.226  1.00  0.00    -0.167 A  
HETATM   17  C   UNL     1      -9.173   6.775  66.424  1.00  0.00    -0.153 A  
HETATM   18  C   UNL     1     -10.038   5.709  66.689  1.00  0.00    -0.198 A  
HETATM   19  C   UNL     1     -10.951   6.935  68.580  1.00  0.00    -0.203 A  
HETATM   20 CL   UNL     1     -10.138   4.278  65.729  1.00  0.00    -0.237 Cl 
HETATM   21  C   UNL     1     -10.907   5.786  67.784  1.00  0.00    -0.259 A  
BRANCH  17  22
HETATM   22  S   UNL     1      -8.062   6.741  65.054  1.00  0.00    -0.101 S  
HETATM   23  O   UNL     1      -8.458   5.683  64.153  1.00  0.00    -0.111 OA 
HETATM   24  N   UNL     1      -8.412   8.156  64.226  1.00  0.00    -0.387 N  
HETATM   25  H1  UNL     1      -7.769   8.136  63.434  1.00  0.00     0.000 HD 
HETATM   26  O   UNL     1      -6.710   6.853  65.547  1.00  0.00    -0.049 OA 
HETATM   27  H2  UNL     1      -9.104   8.868  64.459  1.00  0.00     0.000 HD 
ENDBRANCH  17  22
ENDBRANCH  12  15
ENDBRANCH  10  11
TORSDOF 3
ENDMDL
MODEL       70
REMARK 921   NORMALIZED FREE ENERGY PREDICTED BY IDOCK:   -5.22 KCAL/MOL
REMARK 922        TOTAL FREE ENERGY PREDICTED BY IDOCK:   -6.80 KCAL/MOL
REMARK 923 INTER-LIGAND FREE ENERGY PREDICTED BY IDOCK:   -6.42 KCAL/MOL
REMARK 924 INTRA-LIGAND FREE ENERGY PREDICTED BY IDOCK:   -0.37 KCAL/MOL
REMARK 927      BINDING AFFINITY PREDICTED BY RF-SCORE:    0.00 PKD
ROOT
HETATM    1  C   UNL     1     -11.391  11.972  67.019  1.00  0.00    -0.396 C  
HETATM    2  C   UNL     1     -10.828  12.234  68.415  1.00  0.00    -0.230 A  
HETATM    3  C   UNL     1     -11.389  13.555  69.013  1.00  0.00    -0.336 A  
HETATM    4  C   UNL     1     -12.160  13.079  70.205  1.00  0.00    -0.388 A  
HETATM    5  C   UNL     1     -12.875  13.841  71.115  1.00  0.00    -0.409 A  
HETATM    6  C   UNL     1     -13.505  13.183  72.172  1.00  0.00    -0.653 A  
HETATM    7  C   UNL     1     -13.425  11.787  72.288  1.00  0.00    -0.143 A  
HETATM    8  C   UNL     1     -12.689  11.034  71.363  1.00  0.00    -0.534 A  
HETATM    9  C   UNL     1     -12.036  11.692  70.333  1.00  0.00    -0.358 A  
HETATM   10  N   UNL     1     -11.152  11.170  69.382  1.00  0.00    -0.244 NA 
ENDROOT
BRANCH  10  11
HETATM   11  N   UNL     1     -11.213   9.833  69.037  1.00  0.00    -0.436 N  
HETATM   12  C   UNL     1     -10.288   8.970  69.614  1.00  0.00    -0.212 C  
HETATM   13  H   UNL     1     -11.915   9.490  68.380  1.00  0.00     0.000 HD 
HETATM   14  O   UNL     1      -9.491   9.267  70.498  1.00  0.00    -0.224 OA 
BRANCH  12  15
HETATM   15  C   UNL     1     -10.225   7.612  69.008  1.00  0.00    -0.211 A  
HETATM   16  C   UNL     1      -9.797   6.542  69.807  1.00  0.00    -0.182 A  
HETATM   17  C   UNL     1      -9.593   5.274  69.236  1.00  0.00    -0.155 A  
HETATM   18  C   UNL     1      -9.842   5.069  67.876  1.00  0.00    -0.151 A  
HETATM   19  C   UNL     1     -10.534   7.391  67.663  1.00  0.00    -0.310 A  
HETATM   20 CL   UNL     1      -9.556   3.580  67.051  1.00  0.00    -0.209 Cl 
HETATM   21  C   UNL     1     -10.336   6.125  67.101  1.00  0.00    -0.286 A  
BRANCH  17  22
HETATM   22  S   UNL     1      -8.962   3.985  70.262  1.00  0.00    -0.107 S  
HETATM   23  O   UNL     1      -9.691   2.767  69.990  1.00  0.00    -0.083 OA 
HETATM   24  N   UNL     1      -7.428   3.706  69.646  1.00  0.00    -0.051 N  
HETATM   25  H1  UNL     1      -7.063   2.960  70.240  1.00  0.00     0.000 HD 
HETATM   26  O   UNL     1      -8.803   4.492  71.604  1.00  0.00    -0.116 OA 
HETATM   27  H2  UNL     1      -6.968   4.171  68.864  1.00  0.00     0.000 HD 
ENDBRANCH  17  22
ENDBRANCH  12  15
ENDBRANCH  10  11
TORSDOF 3
ENDMDL
MODEL       71
REMARK 921   NORMALIZED FREE ENERGY PREDICTED BY IDOCK:   -5.20 KCAL/MOL
REMARK 922        TOTAL FREE ENERGY PREDICTED BY IDOCK:   -6.78 KCAL/MOL
REMARK 923 INTER-LIGAND FREE ENERGY PREDICTED BY IDOCK:   -6.55 KCAL/MOL
REMARK 924 INTRA-LIGAND FREE ENERGY PREDICTED BY IDOCK:   -0.23 KCAL/MOL
REMARK 927      BINDING AFFINITY PREDICTED BY RF-SCORE:    0.00 PKD
ROOT
HETATM    1  C   UNL     1      -8.016  11.365  69.111  1.00  0.00     0.049 C  
HETATM    2  C   UNL     1      -9.270  10.614  68.662  1.00  0.00    -0.181 A  
HETATM    3  C   UNL     1      -9.333   9.192  69.286  1.00  0.00    -0.157 A  
HETATM    4  C   UNL     1     -10.560   9.258  70.141  1.00  0.00    -0.266 A  
HETATM    5  C   UNL     1     -11.097   8.257  70.936  1.00  0.00    -0.289 A  
HETATM    6  C   UNL     1     -12.271   8.535  71.637  1.00  0.00    -0.371 A  
HETATM    7  C   UNL     1     -12.869   9.801  71.548  1.00  0.00    -0.502 A  
HETATM    8  C   UNL     1     -12.316  10.797  70.732  1.00  0.00    -0.480 A  
HETATM    9  C   UNL     1     -11.170  10.509  70.009  1.00  0.00    -0.315 A  
HETATM   10  N   UNL     1     -10.522  11.292  69.047  1.00  0.00    -0.212 NA 
ENDROOT
BRANCH  10  11
HETATM   11  N   UNL     1     -10.658  12.667  69.063  1.00  0.00    -0.424 N  
HETATM   12  C   UNL     1     -10.727  13.328  67.842  1.00  0.00    -0.239 C  
HETATM   13  H   UNL     1     -10.708  13.181  69.943  1.00  0.00     0.000 HD 
HETATM   14  O   UNL     1     -10.795  12.788  66.742  1.00  0.00    -0.257 OA 
BRANCH  12  15
HETATM   15  C   UNL     1     -10.600  14.809  67.914  1.00  0.00    -0.248 A  
HETATM   16  C   UNL     1      -9.524  15.423  67.258  1.00  0.00    -0.215 A  
HETATM   17  C   UNL     1      -9.294  16.800  67.417  1.00  0.00    -0.233 A  
HETATM   18  C   UNL     1     -10.153  17.568  68.208  1.00  0.00    -0.346 A  
HETATM   19  C   UNL     1     -11.495  15.588  68.653  1.00  0.00    -0.367 A  
HETATM   20 CL   UNL     1      -9.929  19.247  68.537  1.00  0.00    -0.481 Cl 
HETATM   21  C   UNL     1     -11.266  16.960  68.803  1.00  0.00    -0.058 A  
BRANCH  17  22
HETATM   22  S   UNL     1      -7.872  17.506  66.649  1.00  0.00    -0.274 S  
HETATM   23  O   UNL     1      -8.289  18.591  65.791  1.00  0.00    -0.471 OA 
HETATM   24  N   UNL     1      -7.069  18.254  67.917  1.00  0.00    -0.219 N  
HETATM   25  H1  UNL     1      -6.246  18.662  67.473  1.00  0.00     0.000 HD 
HETATM   26  O   UNL     1      -7.023  16.441  66.170  1.00  0.00     0.011 OA 
HETATM   27  H2  UNL     1      -7.338  18.291  68.900  1.00  0.00     0.000 HD 
ENDBRANCH  17  22
ENDBRANCH  12  15
ENDBRANCH  10  11
TORSDOF 3
ENDMDL
MODEL       72
REMARK 921   NORMALIZED FREE ENERGY PREDICTED BY IDOCK:   -5.19 KCAL/MOL
REMARK 922        TOTAL FREE ENERGY PREDICTED BY IDOCK:   -6.76 KCAL/MOL
REMARK 923 INTER-LIGAND FREE ENERGY PREDICTED BY IDOCK:   -6.11 KCAL/MOL
REMARK 924 INTRA-LIGAND FREE ENERGY PREDICTED BY IDOCK:   -0.65 KCAL/MOL
REMARK 927      BINDING AFFINITY PREDICTED BY RF-SCORE:    0.00 PKD
ROOT
HETATM    1  C   UNL     1     -11.959   8.916  71.888  1.00  0.00    -0.441 C  
HETATM    2  C   UNL     1     -10.602   8.220  71.985  1.00  0.00    -0.296 A  
HETATM    3  C   UNL     1     -10.669   6.974  72.911  1.00  0.00    -0.320 A  
HETATM    4  C   UNL     1     -10.365   5.846  71.974  1.00  0.00    -0.250 A  
HETATM    5  C   UNL     1     -10.293   4.493  72.266  1.00  0.00    -0.243 A  
HETATM    6  C   UNL     1      -9.971   3.614  71.232  1.00  0.00    -0.144 A  
HETATM    7  C   UNL     1      -9.748   4.097  69.933  1.00  0.00    -0.280 A  
HETATM    8  C   UNL     1      -9.817   5.469  69.659  1.00  0.00    -0.258 A  
HETATM    9  C   UNL     1     -10.103   6.344  70.694  1.00  0.00    -0.187 A  
HETATM   10  N   UNL     1     -10.098   7.744  70.684  1.00  0.00    -0.191 NA 
ENDROOT
BRANCH  10  11
HETATM   11  N   UNL     1     -10.300   8.431  69.502  1.00  0.00    -0.216 N  
HETATM   12  C   UNL     1      -9.239   9.167  68.988  1.00  0.00    -0.143 C  
HETATM   13  H   UNL     1     -11.200   8.399  69.021  1.00  0.00     0.000 HD 
HETATM   14  O   UNL     1      -8.093   9.169  69.428  1.00  0.00    -0.095 OA 
BRANCH  12  15
HETATM   15  C   UNL     1      -9.588  10.093  67.876  1.00  0.00    -0.166 A  
HETATM   16  C   UNL     1      -9.799  11.447  68.173  1.00  0.00    -0.195 A  
HETATM   17  C   UNL     1     -10.263  12.323  67.177  1.00  0.00    -0.211 A  
HETATM   18  C   UNL     1     -10.491  11.853  65.880  1.00  0.00    -0.258 A  
HETATM   19  C   UNL     1      -9.756   9.638  66.565  1.00  0.00    -0.272 A  
HETATM   20 CL   UNL     1     -11.131  12.814  64.598  1.00  0.00    -0.330 Cl 
HETATM   21  C   UNL     1     -10.211  10.515  65.575  1.00  0.00    -0.325 A  
BRANCH  17  22
HETATM   22  S   UNL     1     -10.604  13.994  67.624  1.00  0.00    -0.250 S  
HETATM   23  O   UNL     1     -12.034  14.200  67.621  1.00  0.00    -0.377 OA 
HETATM   24  N   UNL     1     -10.169  14.067  69.242  1.00  0.00    -0.433 N  
HETATM   25  H1  UNL     1     -10.366  15.035  69.500  1.00  0.00     0.000 HD 
HETATM   26  O   UNL     1      -9.709  14.864  66.897  1.00  0.00    -0.228 OA 
HETATM   27  H2  UNL     1      -9.796  13.322  69.828  1.00  0.00     0.000 HD 
ENDBRANCH  17  22
ENDBRANCH  12  15
ENDBRANCH  10  11
TORSDOF 3
ENDMDL
MODEL       73
REMARK 921   NORMALIZED FREE ENERGY PREDICTED BY IDOCK:   -5.17 KCAL/MOL
REMARK 922        TOTAL FREE ENERGY PREDICTED BY IDOCK:   -6.74 KCAL/MOL
REMARK 923 INTER-LIGAND FREE ENERGY PREDICTED BY IDOCK:   -6.14 KCAL/MOL
REMARK 924 INTRA-LIGAND FREE ENERGY PREDICTED BY IDOCK:   -0.61 KCAL/MOL
REMARK 927      BINDING AFFINITY PREDICTED BY RF-SCORE:    0.00 PKD
ROOT
HETATM    1  C   UNL     1     -11.862  13.998  69.625  1.00  0.00    -0.386 C  
HETATM    2  C   UNL     1     -11.354  14.022  68.184  1.00  0.00    -0.292 A  
HETATM    3  C   UNL     1     -11.403  15.457  67.589  1.00  0.00    -0.292 A  
HETATM    4  C   UNL     1      -9.958  15.761  67.335  1.00  0.00    -0.237 A  
HETATM    5  C   UNL     1      -9.414  16.920  66.806  1.00  0.00    -0.269 A  
HETATM    6  C   UNL     1      -8.030  16.977  66.636  1.00  0.00    -0.302 A  
HETATM    7  C   UNL     1      -7.222  15.894  67.014  1.00  0.00    -0.232 A  
HETATM    8  C   UNL     1      -7.792  14.727  67.540  1.00  0.00    -0.208 A  
HETATM    9  C   UNL     1      -9.169  14.658  67.676  1.00  0.00    -0.193 A  
HETATM   10  N   UNL     1      -9.959  13.565  68.051  1.00  0.00    -0.241 NA 
ENDROOT
BRANCH  10  11
HETATM   11  N   UNL     1      -9.421  12.554  68.826  1.00  0.00    -0.411 N  
HETATM   12  C   UNL     1      -9.522  11.250  68.354  1.00  0.00    -0.192 C  
HETATM   13  H   UNL     1      -8.965  12.758  69.716  1.00  0.00     0.000 HD 
HETATM   14  O   UNL     1      -9.944  10.922  67.249  1.00  0.00    -0.179 OA 
BRANCH  12  15
HETATM   15  C   UNL     1      -9.176  10.190  69.340  1.00  0.00    -0.229 A  
HETATM   16  C   UNL     1     -10.209   9.399  69.864  1.00  0.00    -0.247 A  
HETATM   17  C   UNL     1      -9.941   8.484  70.896  1.00  0.00    -0.191 A  
HETATM   18  C   UNL     1      -8.640   8.339  71.385  1.00  0.00    -0.149 A  
HETATM   19  C   UNL     1      -7.866  10.000  69.787  1.00  0.00    -0.185 A  
HETATM   20 CL   UNL     1      -8.206   7.306  72.698  1.00  0.00    -0.118 Cl 
HETATM   21  C   UNL     1      -7.603   9.082  70.809  1.00  0.00    -0.131 A  
BRANCH  17  22
HETATM   22  S   UNL     1     -11.291   7.582  71.586  1.00  0.00    -0.260 S  
HETATM   23  O   UNL     1     -11.396   7.895  72.993  1.00  0.00    -0.408 OA 
HETATM   24  N   UNL     1     -12.640   8.296  70.892  1.00  0.00    -0.501 N  
HETATM   25  H1  UNL     1     -13.421   7.774  71.291  1.00  0.00     0.000 HD 
HETATM   26  O   UNL     1     -11.233   6.219  71.113  1.00  0.00    -0.284 OA 
HETATM   27  H2  UNL     1     -12.673   9.068  70.227  1.00  0.00     0.000 HD 
ENDBRANCH  17  22
ENDBRANCH  12  15
ENDBRANCH  10  11
TORSDOF 3
ENDMDL
MODEL       74
REMARK 921   NORMALIZED FREE ENERGY PREDICTED BY IDOCK:   -5.17 KCAL/MOL
REMARK 922        TOTAL FREE ENERGY PREDICTED BY IDOCK:   -6.74 KCAL/MOL
REMARK 923 INTER-LIGAND FREE ENERGY PREDICTED BY IDOCK:   -6.22 KCAL/MOL
REMARK 924 INTRA-LIGAND FREE ENERGY PREDICTED BY IDOCK:   -0.52 KCAL/MOL
REMARK 927      BINDING AFFINITY PREDICTED BY RF-SCORE:    0.00 PKD
ROOT
HETATM    1  C   UNL     1      -6.923   8.576  68.725  1.00  0.00    -0.063 C  
HETATM    2  C   UNL     1      -7.584   7.269  68.289  1.00  0.00    -0.118 A  
HETATM    3  C   UNL     1      -6.982   6.050  69.042  1.00  0.00    -0.068 A  
HETATM    4  C   UNL     1      -8.149   5.533  69.826  1.00  0.00    -0.101 A  
HETATM    5  C   UNL     1      -8.181   4.447  70.686  1.00  0.00    -0.074 A  
HETATM    6  C   UNL     1      -9.394   4.131  71.298  1.00  0.00    -0.218 A  
HETATM    7  C   UNL     1     -10.536   4.911  71.059  1.00  0.00    -0.164 A  
HETATM    8  C   UNL     1     -10.485   6.001  70.180  1.00  0.00    -0.309 A  
HETATM    9  C   UNL     1      -9.288   6.293  69.545  1.00  0.00    -0.142 A  
HETATM   10  N   UNL     1      -9.036   7.239  68.545  1.00  0.00    -0.131 NA 
ENDROOT
BRANCH  10  11
HETATM   11  N   UNL     1      -9.844   8.353  68.422  1.00  0.00    -0.171 N  
HETATM   12  C   UNL     1     -10.142   8.802  67.141  1.00  0.00    -0.252 C  
HETATM   13  H   UNL     1     -10.211   8.831  69.246  1.00  0.00     0.000 HD 
HETATM   14  O   UNL     1      -9.848   8.227  66.097  1.00  0.00    -0.196 OA 
BRANCH  12  15
HETATM   15  C   UNL     1     -10.782  10.144  67.072  1.00  0.00    -0.264 A  
HETATM   16  C   UNL     1     -10.886  10.773  65.823  1.00  0.00    -0.076 A  
HETATM   17  C   UNL     1     -11.357  12.094  65.737  1.00  0.00    -0.354 A  
HETATM   18  C   UNL     1     -11.748  12.776  66.892  1.00  0.00    -0.380 A  
HETATM   19  C   UNL     1     -11.232  10.804  68.218  1.00  0.00    -0.358 A  
HETATM   20 CL   UNL     1     -12.269  14.422  66.918  1.00  0.00    -0.396 Cl 
HETATM   21  C   UNL     1     -11.707  12.117  68.126  1.00  0.00    -0.402 A  
BRANCH  17  22
HETATM   22  S   UNL     1     -11.379  12.874  64.154  1.00  0.00    -0.422 S  
HETATM   23  O   UNL     1     -10.403  13.940  64.141  1.00  0.00    -0.204 OA 
HETATM   24  N   UNL     1     -10.745  11.707  63.130  1.00  0.00    -0.667 N  
HETATM   25  H1  UNL     1     -10.758  12.158  62.215  1.00  0.00     0.000 HD 
HETATM   26  O   UNL     1     -12.750  13.094  63.761  1.00  0.00    -0.688 OA 
HETATM   27  H2  UNL     1     -10.423  10.769  63.366  1.00  0.00     0.000 HD 
ENDBRANCH  17  22
ENDBRANCH  12  15
ENDBRANCH  10  11
TORSDOF 3
ENDMDL
MODEL       75
REMARK 921   NORMALIZED FREE ENERGY PREDICTED BY IDOCK:   -5.10 KCAL/MOL
REMARK 922        TOTAL FREE ENERGY PREDICTED BY IDOCK:   -6.66 KCAL/MOL
REMARK 923 INTER-LIGAND FREE ENERGY PREDICTED BY IDOCK:   -5.95 KCAL/MOL
REMARK 924 INTRA-LIGAND FREE ENERGY PREDICTED BY IDOCK:   -0.71 KCAL/MOL
REMARK 927      BINDING AFFINITY PREDICTED BY RF-SCORE:    0.00 PKD
ROOT
HETATM    1  C   UNL     1     -12.051  13.744  68.523  1.00  0.00    -0.327 C  
HETATM    2  C   UNL     1     -11.162  13.874  67.287  1.00  0.00    -0.312 A  
HETATM    3  C   UNL     1     -10.660  15.333  67.100  1.00  0.00    -0.302 A  
HETATM    4  C   UNL     1      -9.177  15.197  67.258  1.00  0.00    -0.208 A  
HETATM    5  C   UNL     1      -8.219  16.197  67.189  1.00  0.00    -0.225 A  
HETATM    6  C   UNL     1      -6.881  15.836  67.346  1.00  0.00    -0.235 A  
HETATM    7  C   UNL     1      -6.529  14.499  67.589  1.00  0.00    -0.153 A  
HETATM    8  C   UNL     1      -7.511  13.501  67.647  1.00  0.00    -0.187 A  
HETATM    9  C   UNL     1      -8.837  13.855  67.456  1.00  0.00    -0.196 A  
HETATM   10  N   UNL     1      -9.958  13.025  67.346  1.00  0.00    -0.225 NA 
ENDROOT
BRANCH  10  11
HETATM   11  N   UNL     1      -9.951  11.768  67.921  1.00  0.00    -0.177 N  
HETATM   12  C   UNL     1     -10.185  10.675  67.095  1.00  0.00    -0.216 C  
HETATM   13  H   UNL     1      -9.779  11.647  68.919  1.00  0.00     0.000 HD 
HETATM   14  O   UNL     1     -10.282  10.712  65.872  1.00  0.00    -0.248 OA 
BRANCH  12  15
HETATM   15  C   UNL     1     -10.434   9.388  67.802  1.00  0.00    -0.310 A  
HETATM   16  C   UNL     1     -10.966   9.428  69.099  1.00  0.00    -0.114 A  
HETATM   17  C   UNL     1     -11.086   8.246  69.848  1.00  0.00    -0.100 A  
HETATM   18  C   UNL     1     -10.700   7.022  69.293  1.00  0.00    -0.225 A  
HETATM   19  C   UNL     1     -10.108   8.158  67.226  1.00  0.00    -0.309 A  
HETATM   20 CL   UNL     1     -10.730   5.519  70.142  1.00  0.00    -0.374 Cl 
HETATM   21  C   UNL     1     -10.236   6.982  67.973  1.00  0.00    -0.217 A  
BRANCH  17  22
HETATM   22  S   UNL     1     -11.670   8.361  71.508  1.00  0.00    -0.308 S  
HETATM   23  O   UNL     1     -10.559   8.175  72.413  1.00  0.00    -0.273 OA 
HETATM   24  N   UNL     1     -12.082   9.979  71.670  1.00  0.00    -0.378 N  
HETATM   25  H1  UNL     1     -12.420  10.045  72.631  1.00  0.00     0.000 HD 
HETATM   26  O   UNL     1     -12.886   7.593  71.630  1.00  0.00    -0.330 OA 
HETATM   27  H2  UNL     1     -12.011  10.720  70.974  1.00  0.00     0.000 HD 
ENDBRANCH  17  22
ENDBRANCH  12  15
ENDBRANCH  10  11
TORSDOF 3
ENDMDL
MODEL       76
REMARK 921   NORMALIZED FREE ENERGY PREDICTED BY IDOCK:   -5.04 KCAL/MOL
REMARK 922        TOTAL FREE ENERGY PREDICTED BY IDOCK:   -6.58 KCAL/MOL
REMARK 923 INTER-LIGAND FREE ENERGY PREDICTED BY IDOCK:   -6.16 KCAL/MOL
REMARK 924 INTRA-LIGAND FREE ENERGY PREDICTED BY IDOCK:   -0.42 KCAL/MOL
REMARK 927      BINDING AFFINITY PREDICTED BY RF-SCORE:    0.00 PKD
ROOT
HETATM    1  C   UNL     1      -7.711   8.997  70.034  1.00  0.00    -0.082 C  
HETATM    2  C   UNL     1      -8.815   8.100  69.477  1.00  0.00    -0.143 A  
HETATM    3  C   UNL     1      -8.680   6.643  70.000  1.00  0.00    -0.141 A  
HETATM    4  C   UNL     1      -9.934   6.458  70.798  1.00  0.00    -0.212 A  
HETATM    5  C   UNL     1     -10.339   5.332  71.497  1.00  0.00    -0.287 A  
HETATM    6  C   UNL     1     -11.567   5.376  72.158  1.00  0.00    -0.026 A  
HETATM    7  C   UNL     1     -12.351   6.540  72.124  1.00  0.00    -0.244 A  
HETATM    8  C   UNL     1     -11.928   7.665  71.404  1.00  0.00    -0.336 A  
HETATM    9  C   UNL     1     -10.725   7.609  70.720  1.00  0.00    -0.226 A  
HETATM   10  N   UNL     1     -10.170   8.549  69.844  1.00  0.00    -0.199 NA 
ENDROOT
BRANCH  10  11
HETATM   11  N   UNL     1     -10.519   9.883  69.945  1.00  0.00    -0.250 N  
HETATM   12  C   UNL     1     -10.949  10.531  68.793  1.00  0.00    -0.251 C  
HETATM   13  H   UNL     1     -10.464  10.376  70.837  1.00  0.00     0.000 HD 
HETATM   14  O   UNL     1     -11.160   9.995  67.710  1.00  0.00    -0.286 OA 
BRANCH  12  15
HETATM   15  C   UNL     1     -11.049  12.013  68.899  1.00  0.00    -0.298 A  
HETATM   16  C   UNL     1     -11.790  12.560  69.956  1.00  0.00    -0.363 A  
HETATM   17  C   UNL     1     -12.021  13.945  70.011  1.00  0.00    -0.336 A  
HETATM   18  C   UNL     1     -11.491  14.784  69.027  1.00  0.00    -0.293 A  
HETATM   19  C   UNL     1     -10.467  12.859  67.951  1.00  0.00    -0.231 A  
HETATM   20 CL   UNL     1     -11.772  16.485  68.948  1.00  0.00    -0.080 Cl 
HETATM   21  C   UNL     1     -10.694  14.237  68.014  1.00  0.00    -0.242 A  
BRANCH  17  22
HETATM   22  S   UNL     1     -13.040  14.573  71.307  1.00  0.00    -0.366 S  
HETATM   23  O   UNL     1     -13.465  13.476  72.146  1.00  0.00    -0.449 OA 
HETATM   24  N   UNL     1     -11.972  15.447  72.260  1.00  0.00    -0.398 N  
HETATM   25  H1  UNL     1     -12.561  15.810  73.009  1.00  0.00     0.000 HD 
HETATM   26  O   UNL     1     -13.984  15.511  70.746  1.00  0.00    -0.421 OA 
HETATM   27  H2  UNL     1     -10.971  15.583  72.123  1.00  0.00     0.000 HD 
ENDBRANCH  17  22
ENDBRANCH  12  15
ENDBRANCH  10  11
TORSDOF 3
ENDMDL
MODEL       77
REMARK 921   NORMALIZED FREE ENERGY PREDICTED BY IDOCK:   -5.02 KCAL/MOL
REMARK 922        TOTAL FREE ENERGY PREDICTED BY IDOCK:   -6.56 KCAL/MOL
REMARK 923 INTER-LIGAND FREE ENERGY PREDICTED BY IDOCK:   -6.60 KCAL/MOL
REMARK 924 INTRA-LIGAND FREE ENERGY PREDICTED BY IDOCK:    0.04 KCAL/MOL
REMARK 927      BINDING AFFINITY PREDICTED BY RF-SCORE:    0.00 PKD
ROOT
HETATM    1  C   UNL     1      -9.658   7.300  67.120  1.00  0.00    -0.203 C  
HETATM    2  C   UNL     1     -10.902   7.349  68.006  1.00  0.00    -0.061 A  
HETATM    3  C   UNL     1     -10.946   6.146  68.989  1.00  0.00    -0.436 A  
HETATM    4  C   UNL     1     -10.854   6.809  70.329  1.00  0.00    -0.314 A  
HETATM    5  C   UNL     1     -10.847   6.205  71.577  1.00  0.00    -0.313 A  
HETATM    6  C   UNL     1     -10.776   7.027  72.703  1.00  0.00    -0.291 A  
HETATM    7  C   UNL     1     -10.692   8.420  72.562  1.00  0.00    -0.372 A  
HETATM    8  C   UNL     1     -10.709   9.012  71.291  1.00  0.00    -0.379 A  
HETATM    9  C   UNL     1     -10.815   8.198  70.176  1.00  0.00    -0.241 A  
HETATM   10  N   UNL     1     -10.977   8.566  68.835  1.00  0.00     0.044 NA 
ENDROOT
BRANCH  10  11
HETATM   11  N   UNL     1     -10.543   9.803  68.397  1.00  0.00    -0.218 N  
HETATM   12  C   UNL     1     -11.483  10.821  68.290  1.00  0.00    -0.280 C  
HETATM   13  H   UNL     1      -9.563   9.964  68.160  1.00  0.00     0.000 HD 
HETATM   14  O   UNL     1     -12.650  10.756  68.662  1.00  0.00    -0.176 OA 
BRANCH  12  15
HETATM   15  C   UNL     1     -11.021  12.037  67.564  1.00  0.00    -0.303 A  
HETATM   16  C   UNL     1     -10.930  13.244  68.271  1.00  0.00    -0.280 A  
HETATM   17  C   UNL     1     -10.632  14.437  67.591  1.00  0.00    -0.260 A  
HETATM   18  C   UNL     1     -10.398  14.420  66.213  1.00  0.00    -0.295 A  
HETATM   19  C   UNL     1     -10.727  12.010  66.199  1.00  0.00    -0.312 A  
HETATM   20 CL   UNL     1     -10.099  15.829  65.262  1.00  0.00    -0.324 Cl 
HETATM   21  C   UNL     1     -10.423  13.199  65.528  1.00  0.00    -0.297 A  
BRANCH  17  22
HETATM   22  S   UNL     1     -10.623  15.944  68.508  1.00  0.00    -0.277 S  
HETATM   23  O   UNL     1     -10.576  17.056  67.586  1.00  0.00    -0.339 OA 
HETATM   24  N   UNL     1     -12.161  16.011  69.173  1.00  0.00    -0.397 N  
HETATM   25  H1  UNL     1     -12.156  16.882  69.704  1.00  0.00     0.000 HD 
HETATM   26  O   UNL     1      -9.687  15.821  69.600  1.00  0.00    -0.271 OA 
HETATM   27  H2  UNL     1     -12.922  15.339  69.072  1.00  0.00     0.000 HD 
ENDBRANCH  17  22
ENDBRANCH  12  15
ENDBRANCH  10  11
TORSDOF 3
ENDMDL
MODEL       78
REMARK 921   NORMALIZED FREE ENERGY PREDICTED BY IDOCK:   -5.02 KCAL/MOL
REMARK 922        TOTAL FREE ENERGY PREDICTED BY IDOCK:   -6.56 KCAL/MOL
REMARK 923 INTER-LIGAND FREE ENERGY PREDICTED BY IDOCK:   -6.51 KCAL/MOL
REMARK 924 INTRA-LIGAND FREE ENERGY PREDICTED BY IDOCK:   -0.05 KCAL/MOL
REMARK 927      BINDING AFFINITY PREDICTED BY RF-SCORE:    0.00 PKD
ROOT
HETATM    1  C   UNL     1     -11.376   6.496  69.966  1.00  0.00    -0.472 C  
HETATM    2  C   UNL     1     -11.477   6.874  71.443  1.00  0.00    -0.282 A  
HETATM    3  C   UNL     1     -10.939   5.739  72.357  1.00  0.00    -0.308 A  
HETATM    4  C   UNL     1      -9.759   6.378  73.023  1.00  0.00    -0.162 A  
HETATM    5  C   UNL     1      -8.896   5.813  73.949  1.00  0.00    -0.126 A  
HETATM    6  C   UNL     1      -7.868   6.607  74.457  1.00  0.00    -0.127 A  
HETATM    7  C   UNL     1      -7.710   7.931  74.020  1.00  0.00    -0.223 A  
HETATM    8  C   UNL     1      -8.598   8.487  73.089  1.00  0.00    -0.096 A  
HETATM    9  C   UNL     1      -9.639   7.708  72.611  1.00  0.00    -0.181 A  
HETATM   10  N   UNL     1     -10.706   8.084  71.787  1.00  0.00    -0.230 NA 
ENDROOT
BRANCH  10  11
HETATM   11  N   UNL     1     -10.578   9.162  70.931  1.00  0.00    -0.248 N  
HETATM   12  C   UNL     1     -11.557  10.147  70.976  1.00  0.00    -0.376 C  
HETATM   13  H   UNL     1      -9.788   9.233  70.288  1.00  0.00     0.000 HD 
HETATM   14  O   UNL     1     -12.472  10.207  71.792  1.00  0.00    -0.394 OA 
BRANCH  12  15
HETATM   15  C   UNL     1     -11.517  11.133  69.861  1.00  0.00    -0.386 A  
HETATM   16  C   UNL     1     -11.474  12.498  70.175  1.00  0.00    -0.007 A  
HETATM   17  C   UNL     1     -11.573  13.460  69.155  1.00  0.00    -0.315 A  
HETATM   18  C   UNL     1     -11.687  13.058  67.821  1.00  0.00    -0.359 A  
HETATM   19  C   UNL     1     -11.568  10.732  68.523  1.00  0.00    -0.325 A  
HETATM   20 CL   UNL     1     -11.892  14.143  66.495  1.00  0.00    -0.417 Cl 
HETATM   21  C   UNL     1     -11.659  11.693  67.510  1.00  0.00    -0.345 A  
BRANCH  17  22
HETATM   22  S   UNL     1     -11.611  15.163  69.611  1.00  0.00    -0.335 S  
HETATM   23  O   UNL     1     -12.139  15.281  70.950  1.00  0.00    -0.289 OA 
HETATM   24  N   UNL     1      -9.990  15.569  69.758  1.00  0.00    -0.300 N  
HETATM   25  H1  UNL     1     -10.012  16.555  70.021  1.00  0.00     0.000 HD 
HETATM   26  O   UNL     1     -12.149  15.929  68.511  1.00  0.00    -0.208 OA 
HETATM   27  H2  UNL     1      -9.175  14.972  69.617  1.00  0.00     0.000 HD 
ENDBRANCH  17  22
ENDBRANCH  12  15
ENDBRANCH  10  11
TORSDOF 3
ENDMDL
MODEL       79
REMARK 921   NORMALIZED FREE ENERGY PREDICTED BY IDOCK:   -5.01 KCAL/MOL
REMARK 922        TOTAL FREE ENERGY PREDICTED BY IDOCK:   -6.55 KCAL/MOL
REMARK 923 INTER-LIGAND FREE ENERGY PREDICTED BY IDOCK:   -5.91 KCAL/MOL
REMARK 924 INTRA-LIGAND FREE ENERGY PREDICTED BY IDOCK:   -0.64 KCAL/MOL
REMARK 927      BINDING AFFINITY PREDICTED BY RF-SCORE:    0.00 PKD
ROOT
HETATM    1  C   UNL     1     -12.064  11.647  70.027  1.00  0.00    -0.395 C  
HETATM    2  C   UNL     1     -10.703  10.985  69.818  1.00  0.00    -0.078 A  
HETATM    3  C   UNL     1     -10.825   9.436  69.787  1.00  0.00    -0.250 A  
HETATM    4  C   UNL     1     -10.391   9.096  68.394  1.00  0.00    -0.242 A  
HETATM    5  C   UNL     1     -10.307   7.840  67.812  1.00  0.00    -0.284 A  
HETATM    6  C   UNL     1      -9.854   7.756  66.496  1.00  0.00    -0.255 A  
HETATM    7  C   UNL     1      -9.515   8.918  65.785  1.00  0.00    -0.272 A  
HETATM    8  C   UNL     1      -9.599  10.178  66.393  1.00  0.00    -0.242 A  
HETATM    9  C   UNL     1     -10.017  10.257  67.712  1.00  0.00    -0.173 A  
HETATM   10  N   UNL     1     -10.055  11.375  68.553  1.00  0.00    -0.201 NA 
ENDROOT
BRANCH  10  11
HETATM   11  N   UNL     1     -10.157  12.645  68.016  1.00  0.00    -0.223 N  
HETATM   12  C   UNL     1      -9.066  13.496  68.147  1.00  0.00    -0.199 C  
HETATM   13  H   UNL     1     -11.006  12.948  67.538  1.00  0.00     0.000 HD 
HETATM   14  O   UNL     1      -7.967  13.183  68.596  1.00  0.00    -0.119 OA 
BRANCH  12  15
HETATM   15  C   UNL     1      -9.326  14.919  67.798  1.00  0.00    -0.194 A  
HETATM   16  C   UNL     1      -8.253  15.708  67.358  1.00  0.00    -0.198 A  
HETATM   17  C   UNL     1      -8.431  17.086  67.151  1.00  0.00    -0.202 A  
HETATM   18  C   UNL     1      -9.683  17.671  67.357  1.00  0.00    -0.283 A  
HETATM   19  C   UNL     1     -10.592  15.493  67.942  1.00  0.00    -0.274 A  
HETATM   20 CL   UNL     1     -10.002  19.361  67.208  1.00  0.00    -0.438 Cl 
HETATM   21  C   UNL     1     -10.766  16.864  67.728  1.00  0.00    -0.315 A  
BRANCH  17  22
HETATM   22  S   UNL     1      -7.028  18.052  66.691  1.00  0.00    -0.229 S  
HETATM   23  O   UNL     1      -6.627  18.866  67.816  1.00  0.00    -0.206 OA 
HETATM   24  N   UNL     1      -5.803  16.918  66.531  1.00  0.00    -0.121 N  
HETATM   25  H1  UNL     1      -4.992  17.476  66.265  1.00  0.00     0.000 HD 
HETATM   26  O   UNL     1      -7.261  18.622  65.385  1.00  0.00    -0.520 OA 
HETATM   27  H2  UNL     1      -5.856  15.909  66.667  1.00  0.00     0.000 HD 
ENDBRANCH  17  22
ENDBRANCH  12  15
ENDBRANCH  10  11
TORSDOF 3
ENDMDL
MODEL       80
REMARK 921   NORMALIZED FREE ENERGY PREDICTED BY IDOCK:   -5.01 KCAL/MOL
REMARK 922        TOTAL FREE ENERGY PREDICTED BY IDOCK:   -6.55 KCAL/MOL
REMARK 923 INTER-LIGAND FREE ENERGY PREDICTED BY IDOCK:   -7.11 KCAL/MOL
REMARK 924 INTRA-LIGAND FREE ENERGY PREDICTED BY IDOCK:    0.56 KCAL/MOL
REMARK 927      BINDING AFFINITY PREDICTED BY RF-SCORE:    0.00 PKD
ROOT
HETATM    1  C   UNL     1     -12.604  13.056  65.432  1.00  0.00    -0.481 C  
HETATM    2  C   UNL     1     -11.126  13.411  65.274  1.00  0.00    -0.291 A  
HETATM    3  C   UNL     1     -10.943  14.881  64.807  1.00  0.00    -0.390 A  
HETATM    4  C   UNL     1     -10.223  15.510  65.960  1.00  0.00    -0.349 A  
HETATM    5  C   UNL     1      -9.803  16.825  66.086  1.00  0.00    -0.330 A  
HETATM    6  C   UNL     1      -9.125  17.189  67.250  1.00  0.00    -0.227 A  
HETATM    7  C   UNL     1      -8.899  16.246  68.265  1.00  0.00    -0.188 A  
HETATM    8  C   UNL     1      -9.324  14.919  68.116  1.00  0.00    -0.193 A  
HETATM    9  C   UNL     1      -9.966  14.551  66.945  1.00  0.00    -0.259 A  
HETATM   10  N   UNL     1     -10.359  13.274  66.526  1.00  0.00    -0.280 NA 
ENDROOT
BRANCH  10  11
HETATM   11  N   UNL     1     -10.610  12.284  67.458  1.00  0.00    -0.215 N  
HETATM   12  C   UNL     1     -11.544  12.549  68.452  1.00  0.00    -0.322 C  
HETATM   13  H   UNL     1     -10.124  11.387  67.417  1.00  0.00     0.000 HD 
HETATM   14  O   UNL     1     -12.259  13.545  68.512  1.00  0.00    -0.320 OA 
BRANCH  12  15
HETATM   15  C   UNL     1     -11.574  11.568  69.572  1.00  0.00    -0.400 A  
HETATM   16  C   UNL     1     -10.526  10.645  69.682  1.00  0.00    -0.219 A  
HETATM   17  C   UNL     1     -10.588   9.618  70.639  1.00  0.00    -0.319 A  
HETATM   18  C   UNL     1     -11.683   9.531  71.503  1.00  0.00    -0.402 A  
HETATM   19  C   UNL     1     -12.638  11.518  70.476  1.00  0.00    -0.286 A  
HETATM   20 CL   UNL     1     -11.905   8.273  72.665  1.00  0.00    -0.444 Cl 
HETATM   21  C   UNL     1     -12.692  10.499  71.433  1.00  0.00    -0.547 A  
BRANCH  17  22
HETATM   22  S   UNL     1      -9.290   8.425  70.674  1.00  0.00    -0.167 S  
HETATM   23  O   UNL     1      -8.232   8.852  69.786  1.00  0.00    -0.108 OA 
HETATM   24  N   UNL     1      -8.642   8.589  72.212  1.00  0.00    -0.188 N  
HETATM   25  H1  UNL     1      -7.892   7.898  72.233  1.00  0.00     0.000 HD 
HETATM   26  O   UNL     1      -9.867   7.104  70.588  1.00  0.00    -0.182 OA 
HETATM   27  H2  UNL     1      -8.931   9.228  72.953  1.00  0.00     0.000 HD 
ENDBRANCH  17  22
ENDBRANCH  12  15
ENDBRANCH  10  11
TORSDOF 3
ENDMDL
MODEL       81
REMARK 921   NORMALIZED FREE ENERGY PREDICTED BY IDOCK:   -4.98 KCAL/MOL
REMARK 922        TOTAL FREE ENERGY PREDICTED BY IDOCK:   -6.51 KCAL/MOL
REMARK 923 INTER-LIGAND FREE ENERGY PREDICTED BY IDOCK:   -6.00 KCAL/MOL
REMARK 924 INTRA-LIGAND FREE ENERGY PREDICTED BY IDOCK:   -0.51 KCAL/MOL
REMARK 927      BINDING AFFINITY PREDICTED BY RF-SCORE:    0.00 PKD
ROOT
HETATM    1  C   UNL     1      -8.850  12.622  68.010  1.00  0.00    -0.195 C  
HETATM    2  C   UNL     1     -10.357  12.533  67.774  1.00  0.00    -0.222 A  
HETATM    3  C   UNL     1     -10.943  13.902  67.331  1.00  0.00    -0.299 A  
HETATM    4  C   UNL     1     -11.444  13.618  65.948  1.00  0.00    -0.329 A  
HETATM    5  C   UNL     1     -12.066  14.494  65.073  1.00  0.00    -0.390 A  
HETATM    6  C   UNL     1     -12.472  14.004  63.832  1.00  0.00    -0.170 A  
HETATM    7  C   UNL     1     -12.232  12.666  63.483  1.00  0.00    -0.638 A  
HETATM    8  C   UNL     1     -11.608  11.793  64.385  1.00  0.00    -0.325 A  
HETATM    9  C   UNL     1     -11.237  12.273  65.631  1.00  0.00    -0.333 A  
HETATM   10  N   UNL     1     -10.724  11.565  66.724  1.00  0.00    -0.257 NA 
ENDROOT
BRANCH  10  11
HETATM   11  N   UNL     1     -10.047  10.376  66.526  1.00  0.00    -0.220 N  
HETATM   12  C   UNL     1     -10.297   9.331  67.408  1.00  0.00    -0.263 C  
HETATM   13  H   UNL     1      -9.385  10.269  65.757  1.00  0.00     0.000 HD 
HETATM   14  O   UNL     1     -11.158   9.327  68.283  1.00  0.00    -0.059 OA 
BRANCH  12  15
HETATM   15  C   UNL     1      -9.354   8.183  67.315  1.00  0.00    -0.174 A  
HETATM   16  C   UNL     1      -9.785   7.012  66.677  1.00  0.00    -0.226 A  
HETATM   17  C   UNL     1      -8.975   5.864  66.691  1.00  0.00    -0.125 A  
HETATM   18  C   UNL     1      -7.726   5.893  67.317  1.00  0.00    -0.101 A  
HETATM   19  C   UNL     1      -8.080   8.231  67.887  1.00  0.00    -0.127 A  
HETATM   20 CL   UNL     1      -6.681   4.528  67.464  1.00  0.00    -0.047 Cl 
HETATM   21  C   UNL     1      -7.274   7.088  67.891  1.00  0.00    -0.091 A  
BRANCH  17  22
HETATM   22  S   UNL     1      -9.603   4.387  65.957  1.00  0.00    -0.208 S  
HETATM   23  O   UNL     1      -9.674   3.354  66.965  1.00  0.00    -0.149 OA 
HETATM   24  N   UNL     1     -11.203   4.762  65.623  1.00  0.00    -0.927 N  
HETATM   25  H1  UNL     1     -11.566   3.908  65.198  1.00  0.00     0.000 HD 
HETATM   26  O   UNL     1      -8.937   4.173  64.695  1.00  0.00    -0.129 OA 
HETATM   27  H2  UNL     1     -11.696   5.636  65.800  1.00  0.00     0.000 HD 
ENDBRANCH  17  22
ENDBRANCH  12  15
ENDBRANCH  10  11
TORSDOF 3
ENDMDL
MODEL       82
REMARK 921   NORMALIZED FREE ENERGY PREDICTED BY IDOCK:   -4.94 KCAL/MOL
REMARK 922        TOTAL FREE ENERGY PREDICTED BY IDOCK:   -6.47 KCAL/MOL
REMARK 923 INTER-LIGAND FREE ENERGY PREDICTED BY IDOCK:   -6.07 KCAL/MOL
REMARK 924 INTRA-LIGAND FREE ENERGY PREDICTED BY IDOCK:   -0.40 KCAL/MOL
REMARK 927      BINDING AFFINITY PREDICTED BY RF-SCORE:    0.00 PKD
ROOT
HETATM    1  C   UNL     1     -11.125  11.907  63.925  1.00  0.00    -0.483 C  
HETATM    2  C   UNL     1     -10.302  12.678  64.956  1.00  0.00    -0.299 A  
HETATM    3  C   UNL     1     -11.035  13.969  65.416  1.00  0.00    -0.321 A  
HETATM    4  C   UNL     1     -11.276  13.714  66.872  1.00  0.00    -0.326 A  
HETATM    5  C   UNL     1     -11.904  14.543  67.788  1.00  0.00    -0.390 A  
HETATM    6  C   UNL     1     -11.999  14.108  69.110  1.00  0.00    -0.388 A  
HETATM    7  C   UNL     1     -11.489  12.856  69.484  1.00  0.00    -0.292 A  
HETATM    8  C   UNL     1     -10.849  12.035  68.545  1.00  0.00    -0.267 A  
HETATM    9  C   UNL     1     -10.725  12.483  67.240  1.00  0.00    -0.233 A  
HETATM   10  N   UNL     1     -10.024  11.901  66.178  1.00  0.00    -0.222 NA 
ENDROOT
BRANCH  10  11
HETATM   11  N   UNL     1      -9.786  10.540  66.166  1.00  0.00    -0.208 N  
HETATM   12  C   UNL     1      -8.497  10.108  65.876  1.00  0.00    -0.141 C  
HETATM   13  H   UNL     1     -10.533   9.873  66.363  1.00  0.00     0.000 HD 
HETATM   14  O   UNL     1      -7.515  10.831  65.745  1.00  0.00    -0.138 OA 
BRANCH  12  15
HETATM   15  C   UNL     1      -8.362   8.649  65.611  1.00  0.00    -0.151 A  
HETATM   16  C   UNL     1      -9.337   7.781  66.123  1.00  0.00    -0.162 A  
HETATM   17  C   UNL     1      -9.171   6.391  66.011  1.00  0.00    -0.059 A  
HETATM   18  C   UNL     1      -8.047   5.868  65.367  1.00  0.00    -0.130 A  
HETATM   19  C   UNL     1      -7.270   8.127  64.912  1.00  0.00    -0.081 A  
HETATM   20 CL   UNL     1      -7.698   4.182  65.237  1.00  0.00    -0.085 Cl 
HETATM   21  C   UNL     1      -7.113   6.742  64.797  1.00  0.00    -0.060 A  
BRANCH  17  22
HETATM   22  S   UNL     1     -10.377   5.341  66.756  1.00  0.00    -0.275 S  
HETATM   23  O   UNL     1     -11.351   6.157  67.444  1.00  0.00    -0.190 OA 
HETATM   24  N   UNL     1     -11.209   4.704  65.446  1.00  0.00    -0.984 N  
HETATM   25  H1  UNL     1     -11.907   4.097  65.876  1.00  0.00     0.000 HD 
HETATM   26  O   UNL     1      -9.703   4.246  67.411  1.00  0.00    -0.184 OA 
HETATM   27  H2  UNL     1     -11.054   4.882  64.454  1.00  0.00     0.000 HD 
ENDBRANCH  17  22
ENDBRANCH  12  15
ENDBRANCH  10  11
TORSDOF 3
ENDMDL
MODEL       83
REMARK 921   NORMALIZED FREE ENERGY PREDICTED BY IDOCK:   -4.94 KCAL/MOL
REMARK 922        TOTAL FREE ENERGY PREDICTED BY IDOCK:   -6.47 KCAL/MOL
REMARK 923 INTER-LIGAND FREE ENERGY PREDICTED BY IDOCK:   -6.09 KCAL/MOL
REMARK 924 INTRA-LIGAND FREE ENERGY PREDICTED BY IDOCK:   -0.38 KCAL/MOL
REMARK 927      BINDING AFFINITY PREDICTED BY RF-SCORE:    0.00 PKD
ROOT
HETATM    1  C   UNL     1      -9.438   8.971  65.527  1.00  0.00    -0.220 C  
HETATM    2  C   UNL     1      -9.177  10.465  65.714  1.00  0.00    -0.174 A  
HETATM    3  C   UNL     1      -9.414  11.251  64.394  1.00  0.00    -0.206 A  
HETATM    4  C   UNL     1     -10.561  12.148  64.743  1.00  0.00    -0.335 A  
HETATM    5  C   UNL     1     -11.194  13.075  63.929  1.00  0.00    -0.434 A  
HETATM    6  C   UNL     1     -12.237  13.823  64.474  1.00  0.00    -0.441 A  
HETATM    7  C   UNL     1     -12.638  13.620  65.804  1.00  0.00    -0.511 A  
HETATM    8  C   UNL     1     -11.981  12.685  66.613  1.00  0.00    -0.382 A  
HETATM    9  C   UNL     1     -10.922  11.966  66.081  1.00  0.00    -0.308 A  
HETATM   10  N   UNL     1     -10.048  11.085  66.728  1.00  0.00    -0.213 NA 
ENDROOT
BRANCH  10  11
HETATM   11  N   UNL     1     -10.448  10.430  67.878  1.00  0.00    -0.194 N  
HETATM   12  C   UNL     1      -9.562  10.399  68.949  1.00  0.00    -0.192 C  
HETATM   13  H   UNL     1     -11.364   9.984  67.939  1.00  0.00     0.000 HD 
HETATM   14  O   UNL     1      -8.496  11.004  69.011  1.00  0.00    -0.147 OA 
BRANCH  12  15
HETATM   15  C   UNL     1      -9.927   9.462  70.047  1.00  0.00    -0.253 A  
HETATM   16  C   UNL     1      -9.310   8.204  70.087  1.00  0.00    -0.159 A  
HETATM   17  C   UNL     1      -9.727   7.244  71.024  1.00  0.00    -0.169 A  
HETATM   18  C   UNL     1     -10.740   7.549  71.937  1.00  0.00    -0.217 A  
HETATM   19  C   UNL     1     -10.896   9.787  71.000  1.00  0.00    -0.378 A  
HETATM   20 CL   UNL     1     -11.387   6.428  73.079  1.00  0.00    -0.166 Cl 
HETATM   21  C   UNL     1     -11.303   8.831  71.936  1.00  0.00    -0.431 A  
BRANCH  17  22
HETATM   22  S   UNL     1      -8.986   5.644  70.970  1.00  0.00    -0.142 S  
HETATM   23  O   UNL     1      -8.673   5.224  72.317  1.00  0.00    -0.128 OA 
HETATM   24  N   UNL     1     -10.244   4.641  70.497  1.00  0.00    -0.195 N  
HETATM   25  H1  UNL     1      -9.815   3.716  70.466  1.00  0.00     0.000 HD 
HETATM   26  O   UNL     1      -7.998   5.622  69.918  1.00  0.00    -0.091 OA 
HETATM   27  H2  UNL     1     -11.209   4.896  70.289  1.00  0.00     0.000 HD 
ENDBRANCH  17  22
ENDBRANCH  12  15
ENDBRANCH  10  11
TORSDOF 3
ENDMDL
MODEL       84
REMARK 921   NORMALIZED FREE ENERGY PREDICTED BY IDOCK:   -4.91 KCAL/MOL
REMARK 922        TOTAL FREE ENERGY PREDICTED BY IDOCK:   -6.44 KCAL/MOL
REMARK 923 INTER-LIGAND FREE ENERGY PREDICTED BY IDOCK:   -5.94 KCAL/MOL
REMARK 924 INTRA-LIGAND FREE ENERGY PREDICTED BY IDOCK:   -0.50 KCAL/MOL
REMARK 927      BINDING AFFINITY PREDICTED BY RF-SCORE:    0.00 PKD
ROOT
HETATM    1  C   UNL     1     -12.736  15.580  70.273  1.00  0.00    -0.310 C  
HETATM    2  C   UNL     1     -11.753  14.529  70.787  1.00  0.00    -0.266 A  
HETATM    3  C   UNL     1     -12.487  13.228  71.214  1.00  0.00    -0.351 A  
HETATM    4  C   UNL     1     -11.947  12.212  70.255  1.00  0.00    -0.389 A  
HETATM    5  C   UNL     1     -12.262  10.864  70.177  1.00  0.00    -0.423 A  
HETATM    6  C   UNL     1     -11.615  10.093  69.211  1.00  0.00    -0.120 A  
HETATM    7  C   UNL     1     -10.691  10.682  68.334  1.00  0.00    -0.260 A  
HETATM    8  C   UNL     1     -10.379  12.045  68.433  1.00  0.00    -0.220 A  
HETATM    9  C   UNL     1     -10.996  12.802  69.417  1.00  0.00     0.020 A  
HETATM   10  N   UNL     1     -10.751  14.130  69.782  1.00  0.00     0.034 NA 
ENDROOT
BRANCH  10  11
HETATM   11  N   UNL     1     -10.210  15.014  68.866  1.00  0.00    -0.229 N  
HETATM   12  C   UNL     1      -8.870  15.354  69.005  1.00  0.00    -0.231 C  
HETATM   13  H   UNL     1     -10.777  15.404  68.112  1.00  0.00     0.000 HD 
HETATM   14  O   UNL     1      -8.084  14.848  69.801  1.00  0.00    -0.084 OA 
BRANCH  12  15
HETATM   15  C   UNL     1      -8.417  16.501  68.171  1.00  0.00    -0.191 A  
HETATM   16  C   UNL     1      -9.309  17.558  67.943  1.00  0.00    -0.265 A  
HETATM   17  C   UNL     1      -8.968  18.589  67.052  1.00  0.00    -0.274 A  
HETATM   18  C   UNL     1      -7.727  18.578  66.409  1.00  0.00    -0.264 A  
HETATM   19  C   UNL     1      -7.152  16.524  67.576  1.00  0.00    -0.169 A  
HETATM   20 CL   UNL     1      -7.230  19.746  65.240  1.00  0.00    -0.208 Cl 
HETATM   21  C   UNL     1      -6.814  17.556  66.696  1.00  0.00    -0.256 A  
BRANCH  17  22
HETATM   22  S   UNL     1     -10.163  19.845  66.727  1.00  0.00    -0.487 S  
HETATM   23  O   UNL     1     -11.260  19.704  67.657  1.00  0.00    -0.209 OA 
HETATM   24  N   UNL     1      -9.390  21.257  67.195  1.00  0.00    -0.491 N  
HETATM   25  H1  UNL     1     -10.081  21.983  67.006  1.00  0.00     0.000 HD 
HETATM   26  O   UNL     1     -10.381  19.924  65.302  1.00  0.00    -0.294 OA 
HETATM   27  H2  UNL     1      -8.451  21.365  67.577  1.00  0.00     0.000 HD 
ENDBRANCH  17  22
ENDBRANCH  12  15
ENDBRANCH  10  11
TORSDOF 3
ENDMDL
MODEL       85
REMARK 921   NORMALIZED FREE ENERGY PREDICTED BY IDOCK:   -4.87 KCAL/MOL
REMARK 922        TOTAL FREE ENERGY PREDICTED BY IDOCK:   -6.38 KCAL/MOL
REMARK 923 INTER-LIGAND FREE ENERGY PREDICTED BY IDOCK:   -6.06 KCAL/MOL
REMARK 924 INTRA-LIGAND FREE ENERGY PREDICTED BY IDOCK:   -0.32 KCAL/MOL
REMARK 927      BINDING AFFINITY PREDICTED BY RF-SCORE:    0.00 PKD
ROOT
HETATM    1  C   UNL     1     -12.193  13.943  66.444  1.00  0.00    -0.487 C  
HETATM    2  C   UNL     1     -10.937  14.199  65.612  1.00  0.00    -0.308 A  
HETATM    3  C   UNL     1     -10.707  15.719  65.386  1.00  0.00    -0.420 A  
HETATM    4  C   UNL     1      -9.410  15.968  66.091  1.00  0.00    -0.377 A  
HETATM    5  C   UNL     1      -8.724  17.167  66.213  1.00  0.00    -0.268 A  
HETATM    6  C   UNL     1      -7.511  17.162  66.902  1.00  0.00    -0.239 A  
HETATM    7  C   UNL     1      -7.020  15.975  67.469  1.00  0.00    -0.205 A  
HETATM    8  C   UNL     1      -7.724  14.772  67.328  1.00  0.00    -0.214 A  
HETATM    9  C   UNL     1      -8.911  14.771  66.614  1.00  0.00    -0.255 A  
HETATM   10  N   UNL     1      -9.708  13.682  66.241  1.00  0.00    -0.294 NA 
ENDROOT
BRANCH  10  11
HETATM   11  N   UNL     1      -9.673  12.512  66.975  1.00  0.00    -0.208 N  
HETATM   12  C   UNL     1      -9.503  11.317  66.286  1.00  0.00    -0.204 C  
HETATM   13  H   UNL     1      -9.769  12.524  67.991  1.00  0.00     0.000 HD 
HETATM   14  O   UNL     1      -9.261  11.213  65.087  1.00  0.00    -0.216 OA 
BRANCH  12  15
HETATM   15  C   UNL     1      -9.744  10.084  67.085  1.00  0.00    -0.217 A  
HETATM   16  C   UNL     1      -9.221  10.015  68.384  1.00  0.00    -0.131 A  
HETATM   17  C   UNL     1      -9.309   8.819  69.116  1.00  0.00    -0.149 A  
HETATM   18  C   UNL     1      -9.941   7.702  68.562  1.00  0.00    -0.180 A  
HETATM   19  C   UNL     1     -10.430   8.987  66.556  1.00  0.00    -0.192 A  
HETATM   20 CL   UNL     1     -10.041   6.162  69.333  1.00  0.00    -0.212 Cl 
HETATM   21  C   UNL     1     -10.521   7.801  67.291  1.00  0.00    -0.392 A  
BRANCH  17  22
HETATM   22  S   UNL     1      -8.552   8.754  70.708  1.00  0.00    -0.206 S  
HETATM   23  O   UNL     1      -7.780   9.958  70.912  1.00  0.00    -0.269 OA 
HETATM   24  N   UNL     1      -9.845   8.896  71.766  1.00  0.00    -0.319 N  
HETATM   25  H1  UNL     1      -9.407   8.858  72.687  1.00  0.00     0.000 HD 
HETATM   26  O   UNL     1      -7.980   7.442  70.900  1.00  0.00    -0.095 OA 
HETATM   27  H2  UNL     1     -10.835   8.996  71.543  1.00  0.00     0.000 HD 
ENDBRANCH  17  22
ENDBRANCH  12  15
ENDBRANCH  10  11
TORSDOF 3
ENDMDL
MODEL       86
REMARK 921   NORMALIZED FREE ENERGY PREDICTED BY IDOCK:   -4.86 KCAL/MOL
REMARK 922        TOTAL FREE ENERGY PREDICTED BY IDOCK:   -6.37 KCAL/MOL
REMARK 923 INTER-LIGAND FREE ENERGY PREDICTED BY IDOCK:   -5.81 KCAL/MOL
REMARK 924 INTRA-LIGAND FREE ENERGY PREDICTED BY IDOCK:   -0.55 KCAL/MOL
REMARK 927      BINDING AFFINITY PREDICTED BY RF-SCORE:    0.00 PKD
ROOT
HETATM    1  C   UNL     1     -11.701  12.915  64.157  1.00  0.00    -0.468 C  
HETATM    2  C   UNL     1     -10.495  13.618  64.779  1.00  0.00    -0.418 A  
HETATM    3  C   UNL     1     -10.794  15.117  65.057  1.00  0.00    -0.457 A  
HETATM    4  C   UNL     1     -10.697  15.204  66.549  1.00  0.00    -0.310 A  
HETATM    5  C   UNL     1     -10.875  16.322  67.349  1.00  0.00    -0.242 A  
HETATM    6  C   UNL     1     -10.714  16.176  68.727  1.00  0.00    -0.294 A  
HETATM    7  C   UNL     1     -10.400  14.924  69.276  1.00  0.00    -0.240 A  
HETATM    8  C   UNL     1     -10.215  13.807  68.451  1.00  0.00    -0.248 A  
HETATM    9  C   UNL     1     -10.341  13.961  67.079  1.00  0.00    -0.267 A  
HETATM   10  N   UNL     1     -10.080  13.031  66.066  1.00  0.00    -0.280 NA 
ENDROOT
BRANCH  10  11
HETATM   11  N   UNL     1     -10.147  11.676  66.332  1.00  0.00    -0.209 N  
HETATM   12  C   UNL     1      -8.962  11.014  66.631  1.00  0.00    -0.168 C  
HETATM   13  H   UNL     1     -11.038  11.178  66.310  1.00  0.00     0.000 HD 
HETATM   14  O   UNL     1      -7.869  11.547  66.798  1.00  0.00    -0.155 OA 
BRANCH  12  15
HETATM   15  C   UNL     1      -9.052   9.528  66.641  1.00  0.00    -0.179 A  
HETATM   16  C   UNL     1      -9.665   8.900  67.734  1.00  0.00    -0.196 A  
HETATM   17  C   UNL     1      -9.646   7.499  67.844  1.00  0.00    -0.143 A  
HETATM   18  C   UNL     1      -9.039   6.726  66.850  1.00  0.00    -0.137 A  
HETATM   19  C   UNL     1      -8.500   8.752  65.617  1.00  0.00    -0.174 A  
HETATM   20 CL   UNL     1      -8.888   5.008  66.915  1.00  0.00    -0.107 Cl 
HETATM   21  C   UNL     1      -8.491   7.357  65.728  1.00  0.00    -0.149 A  
BRANCH  17  22
HETATM   22  S   UNL     1     -10.347   6.763  69.285  1.00  0.00    -0.212 S  
HETATM   23  O   UNL     1      -9.281   6.355  70.172  1.00  0.00    -0.155 OA 
HETATM   24  N   UNL     1     -11.081   8.050  70.070  1.00  0.00    -0.393 N  
HETATM   25  H1  UNL     1     -11.487   7.624  70.903  1.00  0.00     0.000 HD 
HETATM   26  O   UNL     1     -11.392   5.851  68.883  1.00  0.00    -0.213 OA 
HETATM   27  H2  UNL     1     -11.115   9.028  69.782  1.00  0.00     0.000 HD 
ENDBRANCH  17  22
ENDBRANCH  12  15
ENDBRANCH  10  11
TORSDOF 3
ENDMDL
MODEL       87
REMARK 921   NORMALIZED FREE ENERGY PREDICTED BY IDOCK:   -4.84 KCAL/MOL
REMARK 922        TOTAL FREE ENERGY PREDICTED BY IDOCK:   -6.35 KCAL/MOL
REMARK 923 INTER-LIGAND FREE ENERGY PREDICTED BY IDOCK:   -5.88 KCAL/MOL
REMARK 924 INTRA-LIGAND FREE ENERGY PREDICTED BY IDOCK:   -0.47 KCAL/MOL
REMARK 927      BINDING AFFINITY PREDICTED BY RF-SCORE:    0.00 PKD
ROOT
HETATM    1  C   UNL     1      -6.473   8.196  68.510  1.00  0.00    -0.054 C  
HETATM    2  C   UNL     1      -6.612   7.511  67.151  1.00  0.00    -0.062 A  
HETATM    3  C   UNL     1      -5.988   6.088  67.167  1.00  0.00    -0.018 A  
HETATM    4  C   UNL     1      -7.171   5.203  66.920  1.00  0.00    -0.077 A  
HETATM    5  C   UNL     1      -7.195   3.820  66.834  1.00  0.00    -0.064 A  
HETATM    6  C   UNL     1      -8.417   3.200  66.574  1.00  0.00    -0.109 A  
HETATM    7  C   UNL     1      -9.585   3.964  66.426  1.00  0.00    -0.204 A  
HETATM    8  C   UNL     1      -9.539   5.363  66.508  1.00  0.00    -0.167 A  
HETATM    9  C   UNL     1      -8.319   5.979  66.732  1.00  0.00    -0.106 A  
HETATM   10  N   UNL     1      -8.013   7.345  66.725  1.00  0.00    -0.112 NA 
ENDROOT
BRANCH  10  11
HETATM   11  N   UNL     1      -8.997   8.278  66.994  1.00  0.00    -0.136 N  
HETATM   12  C   UNL     1      -9.332   9.177  65.988  1.00  0.00    -0.238 C  
HETATM   13  H   UNL     1      -9.463   8.306  67.902  1.00  0.00     0.000 HD 
HETATM   14  O   UNL     1      -8.916   9.145  64.834  1.00  0.00    -0.200 OA 
BRANCH  12  15
HETATM   15  C   UNL     1     -10.190  10.317  66.416  1.00  0.00    -0.290 A  
HETATM   16  C   UNL     1     -10.570  11.266  65.457  1.00  0.00    -0.306 A  
HETATM   17  C   UNL     1     -11.262  12.425  65.848  1.00  0.00    -0.336 A  
HETATM   18  C   UNL     1     -11.597  12.622  67.191  1.00  0.00    -0.368 A  
HETATM   19  C   UNL     1     -10.580  10.484  67.747  1.00  0.00    -0.285 A  
HETATM   20 CL   UNL     1     -12.376  14.037  67.799  1.00  0.00    -0.182 Cl 
HETATM   21  C   UNL     1     -11.275  11.636  68.131  1.00  0.00    -0.325 A  
BRANCH  17  22
HETATM   22  S   UNL     1     -11.632  13.635  64.619  1.00  0.00    -0.389 S  
HETATM   23  O   UNL     1     -10.538  14.576  64.540  1.00  0.00    -0.350 OA 
HETATM   24  N   UNL     1     -11.555  12.774  63.182  1.00  0.00    -0.817 N  
HETATM   25  H1  UNL     1     -11.770  13.474  62.471  1.00  0.00     0.000 HD 
HETATM   26  O   UNL     1     -12.998  14.069  64.789  1.00  0.00    -0.686 OA 
HETATM   27  H2  UNL     1     -11.345  11.785  63.050  1.00  0.00     0.000 HD 
ENDBRANCH  17  22
ENDBRANCH  12  15
ENDBRANCH  10  11
TORSDOF 3
ENDMDL
MODEL       88
REMARK 921   NORMALIZED FREE ENERGY PREDICTED BY IDOCK:   -4.83 KCAL/MOL
REMARK 922        TOTAL FREE ENERGY PREDICTED BY IDOCK:   -6.34 KCAL/MOL
REMARK 923 INTER-LIGAND FREE ENERGY PREDICTED BY IDOCK:   -6.36 KCAL/MOL
REMARK 924 INTRA-LIGAND FREE ENERGY PREDICTED BY IDOCK:    0.02 KCAL/MOL
REMARK 927      BINDING AFFINITY PREDICTED BY RF-SCORE:    0.00 PKD
ROOT
HETATM    1  C   UNL     1     -11.379   5.974  69.361  1.00  0.00    -0.282 C  
HETATM    2  C   UNL     1     -11.741   6.869  70.544  1.00  0.00    -0.350 A  
HETATM    3  C   UNL     1     -11.616   6.106  71.892  1.00  0.00    -0.352 A  
HETATM    4  C   UNL     1     -10.525   6.850  72.597  1.00  0.00    -0.243 A  
HETATM    5  C   UNL     1      -9.996   6.596  73.853  1.00  0.00    -0.317 A  
HETATM    6  C   UNL     1      -8.989   7.440  74.323  1.00  0.00    -0.242 A  
HETATM    7  C   UNL     1      -8.521   8.499  73.531  1.00  0.00    -0.045 A  
HETATM    8  C   UNL     1      -9.074   8.745  72.267  1.00  0.00    -0.163 A  
HETATM    9  C   UNL     1     -10.098   7.928  71.815  1.00  0.00    -0.185 A  
HETATM   10  N   UNL     1     -10.877   8.058  70.660  1.00  0.00    -0.230 NA 
ENDROOT
BRANCH  10  11
HETATM   11  N   UNL     1     -10.384   8.739  69.562  1.00  0.00    -0.209 N  
HETATM   12  C   UNL     1     -11.081   9.861  69.127  1.00  0.00    -0.159 C  
HETATM   13  H   UNL     1      -9.536   8.429  69.087  1.00  0.00     0.000 HD 
HETATM   14  O   UNL     1     -12.035  10.376  69.703  1.00  0.00    -0.222 OA 
BRANCH  12  15
HETATM   15  C   UNL     1     -10.667  10.388  67.798  1.00  0.00    -0.327 A  
HETATM   16  C   UNL     1     -10.614  11.777  67.615  1.00  0.00    -0.237 A  
HETATM   17  C   UNL     1     -10.362  12.311  66.340  1.00  0.00    -0.225 A  
HETATM   18  C   UNL     1     -10.137  11.459  65.255  1.00  0.00    -0.268 A  
HETATM   19  C   UNL     1     -10.380   9.538  66.727  1.00  0.00    -0.298 A  
HETATM   20 CL   UNL     1      -9.894  11.997  63.633  1.00  0.00    -0.344 Cl 
HETATM   21  C   UNL     1     -10.123  10.074  65.461  1.00  0.00    -0.325 A  
BRANCH  17  22
HETATM   22  S   UNL     1     -10.400  14.064  66.143  1.00  0.00    -0.305 S  
HETATM   23  O   UNL     1     -10.224  14.384  64.745  1.00  0.00    -0.404 OA 
HETATM   24  N   UNL     1     -11.996  14.463  66.470  1.00  0.00    -0.406 N  
HETATM   25  H1  UNL     1     -12.018  15.477  66.357  1.00  0.00     0.000 HD 
HETATM   26  O   UNL     1      -9.586  14.667  67.170  1.00  0.00    -0.222 OA 
HETATM   27  H2  UNL     1     -12.763  13.840  66.724  1.00  0.00     0.000 HD 
ENDBRANCH  17  22
ENDBRANCH  12  15
ENDBRANCH  10  11
TORSDOF 3
ENDMDL
MODEL       89
REMARK 921   NORMALIZED FREE ENERGY PREDICTED BY IDOCK:   -4.79 KCAL/MOL
REMARK 922        TOTAL FREE ENERGY PREDICTED BY IDOCK:   -6.29 KCAL/MOL
REMARK 923 INTER-LIGAND FREE ENERGY PREDICTED BY IDOCK:   -5.83 KCAL/MOL
REMARK 924 INTRA-LIGAND FREE ENERGY PREDICTED BY IDOCK:   -0.46 KCAL/MOL
REMARK 927      BINDING AFFINITY PREDICTED BY RF-SCORE:    0.00 PKD
ROOT
HETATM    1  C   UNL     1      -9.578  14.505  68.294  1.00  0.00    -0.212 C  
HETATM    2  C   UNL     1     -10.999  14.151  67.860  1.00  0.00    -0.251 A  
HETATM    3  C   UNL     1     -11.481  15.065  66.698  1.00  0.00    -0.251 A  
HETATM    4  C   UNL     1     -11.673  14.097  65.572  1.00  0.00    -0.344 A  
HETATM    5  C   UNL     1     -12.097  14.369  64.280  1.00  0.00    -0.461 A  
HETATM    6  C   UNL     1     -12.227  13.300  63.393  1.00  0.00    -0.476 A  
HETATM    7  C   UNL     1     -11.915  11.995  63.803  1.00  0.00    -0.588 A  
HETATM    8  C   UNL     1     -11.497  11.738  65.116  1.00  0.00    -0.248 A  
HETATM    9  C   UNL     1     -11.401  12.796  66.006  1.00  0.00    -0.321 A  
HETATM   10  N   UNL     1     -11.132  12.764  67.379  1.00  0.00    -0.263 NA 
ENDROOT
BRANCH  10  11
HETATM   11  N   UNL     1     -10.426  11.708  67.924  1.00  0.00    -0.187 N  
HETATM   12  C   UNL     1     -11.074  10.906  68.856  1.00  0.00    -0.252 C  
HETATM   13  H   UNL     1      -9.461  11.523  67.650  1.00  0.00     0.000 HD 
HETATM   14  O   UNL     1     -12.262  10.977  69.157  1.00  0.00    -0.434 OA 
BRANCH  12  15
HETATM   15  C   UNL     1     -10.194   9.965  69.602  1.00  0.00    -0.261 A  
HETATM   16  C   UNL     1      -8.847  10.308  69.784  1.00  0.00    -0.070 A  
HETATM   17  C   UNL     1      -7.957   9.386  70.361  1.00  0.00    -0.172 A  
HETATM   18  C   UNL     1      -8.417   8.135  70.780  1.00  0.00    -0.125 A  
HETATM   19  C   UNL     1     -10.666   8.738  70.079  1.00  0.00    -0.236 A  
HETATM   20 CL   UNL     1      -7.405   6.896  71.430  1.00  0.00    -0.080 Cl 
HETATM   21  C   UNL     1      -9.778   7.827  70.659  1.00  0.00    -0.177 A  
BRANCH  17  22
HETATM   22  S   UNL     1      -6.254   9.828  70.480  1.00  0.00    -0.096 S  
HETATM   23  O   UNL     1      -5.605   9.547  69.220  1.00  0.00    -0.035 OA 
HETATM   24  N   UNL     1      -6.286  11.502  70.575  1.00  0.00    -0.222 N  
HETATM   25  H1  UNL     1      -5.300  11.758  70.645  1.00  0.00     0.000 HD 
HETATM   26  O   UNL     1      -5.729   9.336  71.732  1.00  0.00    -0.069 OA 
HETATM   27  H2  UNL     1      -7.098  12.119  70.567  1.00  0.00     0.000 HD 
ENDBRANCH  17  22
ENDBRANCH  12  15
ENDBRANCH  10  11
TORSDOF 3
ENDMDL
MODEL       90
REMARK 921   NORMALIZED FREE ENERGY PREDICTED BY IDOCK:   -4.78 KCAL/MOL
REMARK 922        TOTAL FREE ENERGY PREDICTED BY IDOCK:   -6.28 KCAL/MOL
REMARK 923 INTER-LIGAND FREE ENERGY PREDICTED BY IDOCK:   -6.78 KCAL/MOL
REMARK 924 INTRA-LIGAND FREE ENERGY PREDICTED BY IDOCK:    0.51 KCAL/MOL
REMARK 927      BINDING AFFINITY PREDICTED BY RF-SCORE:    0.00 PKD
ROOT
HETATM    1  C   UNL     1      -8.964   5.360  68.188  1.00  0.00    -0.111 C  
HETATM    2  C   UNL     1     -10.314   5.312  68.904  1.00  0.00    -0.158 A  
HETATM    3  C   UNL     1     -10.162   4.810  70.367  1.00  0.00    -0.261 A  
HETATM    4  C   UNL     1     -10.596   5.995  71.173  1.00  0.00    -0.303 A  
HETATM    5  C   UNL     1     -10.659   6.109  72.553  1.00  0.00    -0.244 A  
HETATM    6  C   UNL     1     -11.118   7.310  73.092  1.00  0.00    -0.336 A  
HETATM    7  C   UNL     1     -11.483   8.373  72.252  1.00  0.00    -0.454 A  
HETATM    8  C   UNL     1     -11.420   8.237  70.859  1.00  0.00    -0.296 A  
HETATM    9  C   UNL     1     -10.997   7.031  70.323  1.00  0.00    -0.271 A  
HETATM   10  N   UNL     1     -10.976   6.627  68.983  1.00  0.00    -0.279 NA 
ENDROOT
BRANCH  10  11
HETATM   11  N   UNL     1     -10.902   7.569  67.975  1.00  0.00    -0.455 N  
HETATM   12  C   UNL     1      -9.879   8.508  68.037  1.00  0.00    -0.169 C  
HETATM   13  H   UNL     1     -11.576   7.575  67.209  1.00  0.00     0.000 HD 
HETATM   14  O   UNL     1      -8.958   8.507  68.849  1.00  0.00    -0.144 OA 
BRANCH  12  15
HETATM   15  C   UNL     1     -10.006   9.649  67.089  1.00  0.00    -0.249 A  
HETATM   16  C   UNL     1     -10.169  10.939  67.612  1.00  0.00    -0.214 A  
HETATM   17  C   UNL     1     -10.429  12.020  66.752  1.00  0.00    -0.214 A  
HETATM   18  C   UNL     1     -10.499  11.816  65.371  1.00  0.00    -0.272 A  
HETATM   19  C   UNL     1     -10.013   9.457  65.705  1.00  0.00    -0.278 A  
HETATM   20 CL   UNL     1     -10.887  13.049  64.227  1.00  0.00    -0.400 Cl 
HETATM   21  C   UNL     1     -10.265  10.537  64.853  1.00  0.00    -0.371 A  
BRANCH  17  22
HETATM   22  S   UNL     1     -10.723  13.606  67.465  1.00  0.00    -0.261 S  
HETATM   23  O   UNL     1     -12.142  13.771  67.680  1.00  0.00    -0.363 OA 
HETATM   24  N   UNL     1     -10.075  13.473  69.007  1.00  0.00    -0.427 N  
HETATM   25  H1  UNL     1     -10.245  14.390  69.419  1.00  0.00     0.000 HD 
HETATM   26  O   UNL     1      -9.942  14.590  66.754  1.00  0.00    -0.252 OA 
HETATM   27  H2  UNL     1      -9.619  12.665  69.431  1.00  0.00     0.000 HD 
ENDBRANCH  17  22
ENDBRANCH  12  15
ENDBRANCH  10  11
TORSDOF 3
ENDMDL
MODEL       91
REMARK 921   NORMALIZED FREE ENERGY PREDICTED BY IDOCK:   -4.77 KCAL/MOL
REMARK 922        TOTAL FREE ENERGY PREDICTED BY IDOCK:   -6.27 KCAL/MOL
REMARK 923 INTER-LIGAND FREE ENERGY PREDICTED BY IDOCK:   -6.06 KCAL/MOL
REMARK 924 INTRA-LIGAND FREE ENERGY PREDICTED BY IDOCK:   -0.21 KCAL/MOL
REMARK 927      BINDING AFFINITY PREDICTED BY RF-SCORE:    0.00 PKD
ROOT
HETATM    1  C   UNL     1     -10.227  12.764  63.842  1.00  0.00    -0.265 C  
HETATM    2  C   UNL     1     -10.565  11.339  64.277  1.00  0.00    -0.358 A  
HETATM    3  C   UNL     1      -9.868  10.288  63.369  1.00  0.00    -0.135 A  
HETATM    4  C   UNL     1      -8.949   9.585  64.319  1.00  0.00    -0.248 A  
HETATM    5  C   UNL     1      -8.075   8.544  64.043  1.00  0.00    -0.156 A  
HETATM    6  C   UNL     1      -7.323   8.022  65.096  1.00  0.00    -0.074 A  
HETATM    7  C   UNL     1      -7.441   8.558  66.388  1.00  0.00    -0.087 A  
HETATM    8  C   UNL     1      -8.336   9.604  66.648  1.00  0.00    -0.123 A  
HETATM    9  C   UNL     1      -9.108  10.098  65.609  1.00  0.00    -0.179 A  
HETATM   10  N   UNL     1     -10.144  11.038  65.658  1.00  0.00    -0.245 NA 
ENDROOT
BRANCH  10  11
HETATM   11  N   UNL     1     -10.189  11.970  66.678  1.00  0.00    -0.202 N  
HETATM   12  C   UNL     1     -11.142  11.796  67.675  1.00  0.00    -0.252 C  
HETATM   13  H   UNL     1      -9.544  12.760  66.699  1.00  0.00     0.000 HD 
HETATM   14  O   UNL     1     -11.876  10.820  67.798  1.00  0.00    -0.538 OA 
BRANCH  12  15
HETATM   15  C   UNL     1     -11.325  12.958  68.588  1.00  0.00    -0.327 A  
HETATM   16  C   UNL     1     -10.742  14.183  68.237  1.00  0.00    -0.256 A  
HETATM   17  C   UNL     1     -10.776  15.263  69.135  1.00  0.00    -0.251 A  
HETATM   18  C   UNL     1     -11.414  15.127  70.371  1.00  0.00    -0.286 A  
HETATM   19  C   UNL     1     -12.017  12.842  69.796  1.00  0.00    -0.365 A  
HETATM   20 CL   UNL     1     -11.454  16.355  71.584  1.00  0.00    -0.363 Cl 
HETATM   21  C   UNL     1     -12.055  13.922  70.685  1.00  0.00    -0.417 A  
BRANCH  17  22
HETATM   22  S   UNL     1      -9.945  16.753  68.687  1.00  0.00    -0.292 S  
HETATM   23  O   UNL     1      -8.524  16.498  68.619  1.00  0.00    -0.220 OA 
HETATM   24  N   UNL     1     -10.407  16.999  67.094  1.00  0.00    -0.307 N  
HETATM   25  H1  UNL     1      -9.926  17.861  66.835  1.00  0.00     0.000 HD 
HETATM   26  O   UNL     1     -10.485  17.841  69.466  1.00  0.00    -0.118 OA 
HETATM   27  H2  UNL     1     -11.023  16.424  66.520  1.00  0.00     0.000 HD 
ENDBRANCH  17  22
ENDBRANCH  12  15
ENDBRANCH  10  11
TORSDOF 3
ENDMDL
MODEL       92
REMARK 921   NORMALIZED FREE ENERGY PREDICTED BY IDOCK:   -4.73 KCAL/MOL
REMARK 922        TOTAL FREE ENERGY PREDICTED BY IDOCK:   -6.22 KCAL/MOL
REMARK 923 INTER-LIGAND FREE ENERGY PREDICTED BY IDOCK:   -5.78 KCAL/MOL
REMARK 924 INTRA-LIGAND FREE ENERGY PREDICTED BY IDOCK:   -0.44 KCAL/MOL
REMARK 927      BINDING AFFINITY PREDICTED BY RF-SCORE:    0.00 PKD
ROOT
HETATM    1  C   UNL     1     -11.437  16.006  69.432  1.00  0.00    -0.336 C  
HETATM    2  C   UNL     1     -10.900  16.649  68.154  1.00  0.00    -0.348 A  
HETATM    3  C   UNL     1     -10.487  18.128  68.394  1.00  0.00    -0.308 A  
HETATM    4  C   UNL     1      -9.011  18.108  68.140  1.00  0.00    -0.298 A  
HETATM    5  C   UNL     1      -8.121  19.168  68.213  1.00  0.00    -0.367 A  
HETATM    6  C   UNL     1      -6.782  18.922  67.910  1.00  0.00    -0.230 A  
HETATM    7  C   UNL     1      -6.357  17.630  67.564  1.00  0.00    -0.176 A  
HETATM    8  C   UNL     1      -7.274  16.572  67.487  1.00  0.00    -0.168 A  
HETATM    9  C   UNL     1      -8.610  16.825  67.754  1.00  0.00    -0.198 A  
HETATM   10  N   UNL     1      -9.707  15.968  67.618  1.00  0.00    -0.223 NA 
ENDROOT
BRANCH  10  11
HETATM   11  N   UNL     1      -9.531  14.598  67.681  1.00  0.00    -0.202 N  
HETATM   12  C   UNL     1      -9.827  13.852  66.547  1.00  0.00    -0.290 C  
HETATM   13  H   UNL     1      -9.194  14.150  68.534  1.00  0.00     0.000 HD 
HETATM   14  O   UNL     1     -10.121  14.311  65.447  1.00  0.00    -0.346 OA 
BRANCH  12  15
HETATM   15  C   UNL     1      -9.880  12.378  66.753  1.00  0.00    -0.228 A  
HETATM   16  C   UNL     1      -8.867  11.587  66.195  1.00  0.00    -0.167 A  
HETATM   17  C   UNL     1      -8.956  10.186  66.251  1.00  0.00    -0.148 A  
HETATM   18  C   UNL     1     -10.041   9.576  66.887  1.00  0.00    -0.230 A  
HETATM   19  C   UNL     1     -10.932  11.770  67.443  1.00  0.00    -0.314 A  
HETATM   20 CL   UNL     1     -10.296   7.871  66.951  1.00  0.00    -0.394 Cl 
HETATM   21  C   UNL     1     -11.013  10.375  67.503  1.00  0.00    -0.358 A  
BRANCH  17  22
HETATM   22  S   UNL     1      -7.705   9.234  65.450  1.00  0.00    -0.101 S  
HETATM   23  O   UNL     1      -6.654  10.119  65.002  1.00  0.00    -0.118 OA 
HETATM   24  N   UNL     1      -7.015   8.356  66.700  1.00  0.00    -0.071 N  
HETATM   25  H1  UNL     1      -6.292   7.805  66.237  1.00  0.00     0.000 HD 
HETATM   26  O   UNL     1      -8.336   8.291  64.557  1.00  0.00    -0.154 OA 
HETATM   27  H2  UNL     1      -7.260   8.368  67.690  1.00  0.00     0.000 HD 
ENDBRANCH  17  22
ENDBRANCH  12  15
ENDBRANCH  10  11
TORSDOF 3
ENDMDL
MODEL       93
REMARK 921   NORMALIZED FREE ENERGY PREDICTED BY IDOCK:   -4.72 KCAL/MOL
REMARK 922        TOTAL FREE ENERGY PREDICTED BY IDOCK:   -6.21 KCAL/MOL
REMARK 923 INTER-LIGAND FREE ENERGY PREDICTED BY IDOCK:   -5.77 KCAL/MOL
REMARK 924 INTRA-LIGAND FREE ENERGY PREDICTED BY IDOCK:   -0.45 KCAL/MOL
REMARK 927      BINDING AFFINITY PREDICTED BY RF-SCORE:    0.00 PKD
ROOT
HETATM    1  C   UNL     1     -11.286  13.150  67.970  1.00  0.00    -0.327 C  
HETATM    2  C   UNL     1     -11.738  12.134  66.921  1.00  0.00    -0.301 A  
HETATM    3  C   UNL     1     -11.754  12.758  65.498  1.00  0.00    -0.436 A  
HETATM    4  C   UNL     1     -10.717  11.958  64.772  1.00  0.00    -0.356 A  
HETATM    5  C   UNL     1     -10.311  12.089  63.453  1.00  0.00    -0.468 A  
HETATM    6  C   UNL     1      -9.335  11.213  62.977  1.00  0.00    -0.365 A  
HETATM    7  C   UNL     1      -8.774  10.246  63.824  1.00  0.00    -0.211 A  
HETATM    8  C   UNL     1      -9.203  10.124  65.152  1.00  0.00    -0.262 A  
HETATM    9  C   UNL     1     -10.197  10.971  65.615  1.00  0.00    -0.260 A  
HETATM   10  N   UNL     1     -10.863  10.950  66.845  1.00  0.00    -0.266 NA 
ENDROOT
BRANCH  10  11
HETATM   11  N   UNL     1     -10.257  10.389  67.954  1.00  0.00    -0.170 N  
HETATM   12  C   UNL     1     -10.444   9.031  68.179  1.00  0.00    -0.207 C  
HETATM   13  H   UNL     1      -9.691  10.955  68.587  1.00  0.00     0.000 HD 
HETATM   14  O   UNL     1     -11.005   8.251  67.415  1.00  0.00    -0.127 OA 
BRANCH  12  15
HETATM   15  C   UNL     1     -10.003   8.543  69.515  1.00  0.00    -0.193 A  
HETATM   16  C   UNL     1      -9.551   7.220  69.629  1.00  0.00    -0.155 A  
HETATM   17  C   UNL     1      -9.257   6.683  70.894  1.00  0.00    -0.157 A  
HETATM   18  C   UNL     1      -9.388   7.473  72.039  1.00  0.00    -0.133 A  
HETATM   19  C   UNL     1     -10.073   9.350  70.653  1.00  0.00    -0.356 A  
HETATM   20 CL   UNL     1      -9.130   6.902  73.647  1.00  0.00    -0.167 Cl 
HETATM   21  C   UNL     1      -9.772   8.814  71.909  1.00  0.00    -0.386 A  
BRANCH  17  22
HETATM   22  S   UNL     1      -8.785   4.986  70.994  1.00  0.00    -0.129 S  
HETATM   23  O   UNL     1      -9.885   4.223  71.538  1.00  0.00    -0.174 OA 
HETATM   24  N   UNL     1      -8.690   4.507  69.390  1.00  0.00    -0.084 N  
HETATM   25  H1  UNL     1      -8.417   3.526  69.448  1.00  0.00     0.000 HD 
HETATM   26  O   UNL     1      -7.455   4.904  71.548  1.00  0.00    -0.077 OA 
HETATM   27  H2  UNL     1      -8.864   5.065  68.554  1.00  0.00     0.000 HD 
ENDBRANCH  17  22
ENDBRANCH  12  15
ENDBRANCH  10  11
TORSDOF 3
ENDMDL
MODEL       94
REMARK 921   NORMALIZED FREE ENERGY PREDICTED BY IDOCK:   -4.71 KCAL/MOL
REMARK 922        TOTAL FREE ENERGY PREDICTED BY IDOCK:   -6.20 KCAL/MOL
REMARK 923 INTER-LIGAND FREE ENERGY PREDICTED BY IDOCK:   -5.79 KCAL/MOL
REMARK 924 INTRA-LIGAND FREE ENERGY PREDICTED BY IDOCK:   -0.41 KCAL/MOL
REMARK 927      BINDING AFFINITY PREDICTED BY RF-SCORE:    0.00 PKD
ROOT
HETATM    1  C   UNL     1     -11.974  13.866  70.805  1.00  0.00    -0.348 C  
HETATM    2  C   UNL     1     -12.093  14.080  69.297  1.00  0.00    -0.338 A  
HETATM    3  C   UNL     1     -12.103  15.592  68.938  1.00  0.00    -0.219 A  
HETATM    4  C   UNL     1     -10.853  15.750  68.129  1.00  0.00    -0.307 A  
HETATM    5  C   UNL     1     -10.358  16.906  67.546  1.00  0.00    -0.318 A  
HETATM    6  C   UNL     1      -9.176  16.816  66.811  1.00  0.00    -0.263 A  
HETATM    7  C   UNL     1      -8.506  15.589  66.690  1.00  0.00    -0.314 A  
HETATM    8  C   UNL     1      -9.027  14.429  67.279  1.00  0.00    -0.221 A  
HETATM    9  C   UNL     1     -10.219  14.513  67.980  1.00  0.00    -0.233 A  
HETATM   10  N   UNL     1     -10.983  13.480  68.535  1.00  0.00    -0.258 NA 
ENDROOT
BRANCH  10  11
HETATM   11  N   UNL     1     -10.382  12.288  68.894  1.00  0.00    -0.409 N  
HETATM   12  C   UNL     1     -10.947  11.108  68.422  1.00  0.00    -0.227 C  
HETATM   13  H   UNL     1      -9.551  12.274  69.486  1.00  0.00     0.000 HD 
HETATM   14  O   UNL     1     -11.867  11.031  67.614  1.00  0.00    -0.599 OA 
BRANCH  12  15
HETATM   15  C   UNL     1     -10.431   9.862  69.052  1.00  0.00    -0.227 A  
HETATM   16  C   UNL     1      -9.412   9.153  68.399  1.00  0.00    -0.150 A  
HETATM   17  C   UNL     1      -8.996   7.904  68.891  1.00  0.00    -0.141 A  
HETATM   18  C   UNL     1      -9.577   7.377  70.047  1.00  0.00    -0.168 A  
HETATM   19  C   UNL     1     -10.967   9.363  70.242  1.00  0.00    -0.305 A  
HETATM   20 CL   UNL     1      -9.203   5.823  70.700  1.00  0.00    -0.163 Cl 
HETATM   21  C   UNL     1     -10.544   8.123  70.732  1.00  0.00    -0.234 A  
BRANCH  17  22
HETATM   22  S   UNL     1      -7.780   7.009  67.980  1.00  0.00    -0.114 S  
HETATM   23  O   UNL     1      -7.205   7.879  66.979  1.00  0.00    -0.085 OA 
HETATM   24  N   UNL     1      -6.547   6.773  69.092  1.00  0.00    -0.046 N  
HETATM   25  H1  UNL     1      -5.844   6.254  68.566  1.00  0.00     0.000 HD 
HETATM   26  O   UNL     1      -8.311   5.709  67.643  1.00  0.00    -0.102 OA 
HETATM   27  H2  UNL     1      -6.510   7.075  70.066  1.00  0.00     0.000 HD 
ENDBRANCH  17  22
ENDBRANCH  12  15
ENDBRANCH  10  11
TORSDOF 3
ENDMDL
MODEL       95
REMARK 921   NORMALIZED FREE ENERGY PREDICTED BY IDOCK:   -4.71 KCAL/MOL
REMARK 922        TOTAL FREE ENERGY PREDICTED BY IDOCK:   -6.20 KCAL/MOL
REMARK 923 INTER-LIGAND FREE ENERGY PREDICTED BY IDOCK:   -5.87 KCAL/MOL
REMARK 924 INTRA-LIGAND FREE ENERGY PREDICTED BY IDOCK:   -0.33 KCAL/MOL
REMARK 927      BINDING AFFINITY PREDICTED BY RF-SCORE:    0.00 PKD
ROOT
HETATM    1  C   UNL     1      -6.528  11.856  67.362  1.00  0.00    -0.126 C  
HETATM    2  C   UNL     1      -7.915  11.636  66.759  1.00  0.00    -0.140 A  
HETATM    3  C   UNL     1      -8.511  10.268  67.191  1.00  0.00    -0.125 A  
HETATM    4  C   UNL     1      -9.716  10.665  67.986  1.00  0.00    -0.170 A  
HETATM    5  C   UNL     1     -10.629   9.836  68.618  1.00  0.00    -0.249 A  
HETATM    6  C   UNL     1     -11.699  10.428  69.290  1.00  0.00    -0.212 A  
HETATM    7  C   UNL     1     -11.824  11.825  69.335  1.00  0.00    -0.398 A  
HETATM    8  C   UNL     1     -10.895  12.647  68.682  1.00  0.00    -0.281 A  
HETATM    9  C   UNL     1      -9.853  12.057  67.986  1.00  0.00    -0.199 A  
HETATM   10  N   UNL     1      -8.894  12.662  67.165  1.00  0.00    -0.197 NA 
ENDROOT
BRANCH  10  11
HETATM   11  N   UNL     1      -8.559  13.990  67.351  1.00  0.00    -0.192 N  
HETATM   12  C   UNL     1      -9.148  14.931  66.515  1.00  0.00    -0.277 C  
HETATM   13  H   UNL     1      -7.901  14.270  68.079  1.00  0.00     0.000 HD 
HETATM   14  O   UNL     1     -10.034  14.704  65.697  1.00  0.00    -0.324 OA 
BRANCH  12  15
HETATM   15  C   UNL     1      -8.554  16.295  66.578  1.00  0.00    -0.332 A  
HETATM   16  C   UNL     1      -9.413  17.395  66.703  1.00  0.00    -0.285 A  
HETATM   17  C   UNL     1      -8.901  18.702  66.628  1.00  0.00    -0.302 A  
HETATM   18  C   UNL     1      -7.530  18.909  66.454  1.00  0.00    -0.254 A  
HETATM   19  C   UNL     1      -7.176  16.503  66.468  1.00  0.00    -0.187 A  
HETATM   20 CL   UNL     1      -6.798  20.461  66.271  1.00  0.00    -0.270 Cl 
HETATM   21  C   UNL     1      -6.670  17.805  66.400  1.00  0.00    -0.281 A  
BRANCH  17  22
HETATM   22  S   UNL     1     -10.035  20.051  66.695  1.00  0.00    -0.485 S  
HETATM   23  O   UNL     1     -10.598  20.259  65.380  1.00  0.00    -0.286 OA 
HETATM   24  N   UNL     1     -11.307  19.453  67.609  1.00  0.00     0.007 N  
HETATM   25  H1  UNL     1     -11.963  20.234  67.648  1.00  0.00     0.000 HD 
HETATM   26  O   UNL     1      -9.435  21.129  67.444  1.00  0.00    -0.303 OA 
HETATM   27  H2  UNL     1     -11.403  18.528  68.028  1.00  0.00     0.000 HD 
ENDBRANCH  17  22
ENDBRANCH  12  15
ENDBRANCH  10  11
TORSDOF 3
ENDMDL
MODEL       96
REMARK 921   NORMALIZED FREE ENERGY PREDICTED BY IDOCK:   -4.68 KCAL/MOL
REMARK 922        TOTAL FREE ENERGY PREDICTED BY IDOCK:   -6.16 KCAL/MOL
REMARK 923 INTER-LIGAND FREE ENERGY PREDICTED BY IDOCK:   -6.49 KCAL/MOL
REMARK 924 INTRA-LIGAND FREE ENERGY PREDICTED BY IDOCK:    0.34 KCAL/MOL
REMARK 927      BINDING AFFINITY PREDICTED BY RF-SCORE:    0.00 PKD
ROOT
HETATM    1  C   UNL     1     -11.266   5.253  72.940  1.00  0.00    -0.375 C  
HETATM    2  C   UNL     1      -9.914   5.133  72.238  1.00  0.00    -0.180 A  
HETATM    3  C   UNL     1      -9.751   3.748  71.553  1.00  0.00    -0.241 A  
HETATM    4  C   UNL     1      -9.656   4.103  70.101  1.00  0.00    -0.272 A  
HETATM    5  C   UNL     1      -9.503   3.245  69.024  1.00  0.00    -0.187 A  
HETATM    6  C   UNL     1      -9.415   3.802  67.748  1.00  0.00    -0.231 A  
HETATM    7  C   UNL     1      -9.502   5.192  67.572  1.00  0.00    -0.146 A  
HETATM    8  C   UNL     1      -9.649   6.044  68.675  1.00  0.00    -0.141 A  
HETATM    9  C   UNL     1      -9.701   5.492  69.944  1.00  0.00    -0.174 A  
HETATM   10  N   UNL     1      -9.716   6.144  71.183  1.00  0.00    -0.175 NA 
ENDROOT
BRANCH  10  11
HETATM   11  N   UNL     1     -10.192   7.438  71.281  1.00  0.00    -0.189 N  
HETATM   12  C   UNL     1     -11.504   7.679  70.889  1.00  0.00    -0.282 C  
HETATM   13  H   UNL     1      -9.600   8.192  71.630  1.00  0.00     0.000 HD 
HETATM   14  O   UNL     1     -12.323   6.821  70.572  1.00  0.00    -0.326 OA 
BRANCH  12  15
HETATM   15  C   UNL     1     -11.873   9.115  70.759  1.00  0.00    -0.280 A  
HETATM   16  C   UNL     1     -11.459   9.813  69.616  1.00  0.00    -0.103 A  
HETATM   17  C   UNL     1     -11.669  11.199  69.521  1.00  0.00    -0.335 A  
HETATM   18  C   UNL     1     -12.316  11.882  70.555  1.00  0.00    -0.284 A  
HETATM   19  C   UNL     1     -12.575   9.788  71.763  1.00  0.00    -0.506 A  
HETATM   20 CL   UNL     1     -12.561  13.590  70.585  1.00  0.00    -0.375 Cl 
HETATM   21  C   UNL     1     -12.788  11.166  71.662  1.00  0.00    -0.524 A  
BRANCH  17  22
HETATM   22  S   UNL     1     -11.044  12.046  68.106  1.00  0.00    -0.267 S  
HETATM   23  O   UNL     1      -9.922  12.865  68.505  1.00  0.00    -0.223 OA 
HETATM   24  N   UNL     1     -10.368  10.823  67.180  1.00  0.00    -0.213 N  
HETATM   25  H1  UNL     1     -10.007  11.313  66.361  1.00  0.00     0.000 HD 
HETATM   26  O   UNL     1     -12.154  12.590  67.359  1.00  0.00    -0.466 OA 
HETATM   27  H2  UNL     1     -10.328   9.825  67.385  1.00  0.00     0.000 HD 
ENDBRANCH  17  22
ENDBRANCH  12  15
ENDBRANCH  10  11
TORSDOF 3
ENDMDL
MODEL       97
REMARK 921   NORMALIZED FREE ENERGY PREDICTED BY IDOCK:   -4.67 KCAL/MOL
REMARK 922        TOTAL FREE ENERGY PREDICTED BY IDOCK:   -6.15 KCAL/MOL
REMARK 923 INTER-LIGAND FREE ENERGY PREDICTED BY IDOCK:   -5.74 KCAL/MOL
REMARK 924 INTRA-LIGAND FREE ENERGY PREDICTED BY IDOCK:   -0.41 KCAL/MOL
REMARK 927      BINDING AFFINITY PREDICTED BY RF-SCORE:    0.00 PKD
ROOT
HETATM    1  C   UNL     1      -7.940  13.347  68.326  1.00  0.00    -0.147 C  
HETATM    2  C   UNL     1      -9.421  13.711  68.227  1.00  0.00    -0.213 A  
HETATM    3  C   UNL     1      -9.634  15.248  68.302  1.00  0.00    -0.206 A  
HETATM    4  C   UNL     1     -10.212  15.570  66.959  1.00  0.00    -0.271 A  
HETATM    5  C   UNL     1     -10.596  16.810  66.473  1.00  0.00    -0.198 A  
HETATM    6  C   UNL     1     -11.136  16.874  65.188  1.00  0.00     0.019 A  
HETATM    7  C   UNL     1     -11.261  15.711  64.412  1.00  0.00    -0.249 A  
HETATM    8  C   UNL     1     -10.875  14.465  64.924  1.00  0.00    -0.430 A  
HETATM    9  C   UNL     1     -10.372  14.398  66.213  1.00  0.00    -0.295 A  
HETATM   10  N   UNL     1     -10.046  13.266  66.968  1.00  0.00    -0.239 NA 
ENDROOT
BRANCH  10  11
HETATM   11  N   UNL     1      -9.709  12.084  66.337  1.00  0.00    -0.219 N  
HETATM   12  C   UNL     1     -10.391  10.931  66.708  1.00  0.00    -0.241 C  
HETATM   13  H   UNL     1      -8.982  12.057  65.621  1.00  0.00     0.000 HD 
HETATM   14  O   UNL     1     -11.355  10.886  67.467  1.00  0.00    -0.394 OA 
BRANCH  12  15
HETATM   15  C   UNL     1      -9.809   9.658  66.202  1.00  0.00    -0.334 A  
HETATM   16  C   UNL     1     -10.221   8.453  66.788  1.00  0.00    -0.376 A  
HETATM   17  C   UNL     1      -9.595   7.246  66.433  1.00  0.00    -0.104 A  
HETATM   18  C   UNL     1      -8.577   7.240  65.475  1.00  0.00    -0.075 A  
HETATM   19  C   UNL     1      -8.836   9.642  65.199  1.00  0.00    -0.215 A  
HETATM   20 CL   UNL     1      -7.686   5.835  65.015  1.00  0.00    -0.091 Cl 
HETATM   21  C   UNL     1      -8.220   8.437  64.844  1.00  0.00    -0.155 A  
BRANCH  17  22
HETATM   22  S   UNL     1     -10.083   5.772  67.269  1.00  0.00    -0.200 S  
HETATM   23  O   UNL     1     -11.151   6.084  68.191  1.00  0.00    -0.306 OA 
HETATM   24  N   UNL     1     -10.815   4.860  66.067  1.00  0.00    -0.696 N  
HETATM   25  H1  UNL     1     -11.097   4.007  66.550  1.00  0.00     0.000 HD 
HETATM   26  O   UNL     1      -8.899   5.060  67.689  1.00  0.00    -0.104 OA 
HETATM   27  H2  UNL     1     -10.947   5.101  65.085  1.00  0.00     0.000 HD 
ENDBRANCH  17  22
ENDBRANCH  12  15
ENDBRANCH  10  11
TORSDOF 3
ENDMDL
MODEL       98
REMARK 921   NORMALIZED FREE ENERGY PREDICTED BY IDOCK:   -4.67 KCAL/MOL
REMARK 922        TOTAL FREE ENERGY PREDICTED BY IDOCK:   -6.15 KCAL/MOL
REMARK 923 INTER-LIGAND FREE ENERGY PREDICTED BY IDOCK:   -5.80 KCAL/MOL
REMARK 924 INTRA-LIGAND FREE ENERGY PREDICTED BY IDOCK:   -0.35 KCAL/MOL
REMARK 927      BINDING AFFINITY PREDICTED BY RF-SCORE:    0.00 PKD
ROOT
HETATM    1  C   UNL     1      -9.759   5.999  69.436  1.00  0.00    -0.176 C  
HETATM    2  C   UNL     1     -10.098   5.491  70.837  1.00  0.00    -0.213 A  
HETATM    3  C   UNL     1      -9.154   4.333  71.264  1.00  0.00    -0.181 A  
HETATM    4  C   UNL     1      -8.427   4.911  72.439  1.00  0.00    -0.120 A  
HETATM    5  C   UNL     1      -7.453   4.307  73.218  1.00  0.00    -0.077 A  
HETATM    6  C   UNL     1      -6.923   5.032  74.285  1.00  0.00    -0.077 A  
HETATM    7  C   UNL     1      -7.357   6.342  74.540  1.00  0.00    -0.099 A  
HETATM    8  C   UNL     1      -8.350   6.933  73.747  1.00  0.00    -0.147 A  
HETATM    9  C   UNL     1      -8.900   6.199  72.708  1.00  0.00    -0.123 A  
HETATM   10  N   UNL     1      -9.976   6.530  71.877  1.00  0.00    -0.178 NA 
ENDROOT
BRANCH  10  11
HETATM   11  N   UNL     1     -10.303   7.855  71.658  1.00  0.00    -0.200 N  
HETATM   12  C   UNL     1     -11.650   8.198  71.641  1.00  0.00    -0.279 C  
HETATM   13  H   UNL     1      -9.579   8.560  71.513  1.00  0.00     0.000 HD 
HETATM   14  O   UNL     1     -12.581   7.448  71.922  1.00  0.00    -0.312 OA 
BRANCH  12  15
HETATM   15  C   UNL     1     -11.951   9.566  71.138  1.00  0.00    -0.429 A  
HETATM   16  C   UNL     1     -11.313  10.005  69.969  1.00  0.00    -0.334 A  
HETATM   17  C   UNL     1     -11.465  11.334  69.540  1.00  0.00    -0.307 A  
HETATM   18  C   UNL     1     -12.274  12.216  70.262  1.00  0.00    -0.264 A  
HETATM   19  C   UNL     1     -12.809  10.430  71.823  1.00  0.00    -0.561 A  
HETATM   20 CL   UNL     1     -12.475  13.886  69.876  1.00  0.00    -0.343 Cl 
HETATM   21  C   UNL     1     -12.963  11.750  71.388  1.00  0.00    -0.408 A  
BRANCH  17  22
HETATM   22  S   UNL     1     -10.565  11.863  68.118  1.00  0.00    -0.218 S  
HETATM   23  O   UNL     1     -10.176  10.704  67.348  1.00  0.00    -0.187 OA 
HETATM   24  N   UNL     1     -11.726  12.626  67.177  1.00  0.00    -0.366 N  
HETATM   25  H1  UNL     1     -11.206  12.932  66.355  1.00  0.00     0.000 HD 
HETATM   26  O   UNL     1      -9.608  12.867  68.518  1.00  0.00    -0.198 OA 
HETATM   27  H2  UNL     1     -12.717  12.753  67.380  1.00  0.00     0.000 HD 
ENDBRANCH  17  22
ENDBRANCH  12  15
ENDBRANCH  10  11
TORSDOF 3
ENDMDL
MODEL       99
REMARK 921   NORMALIZED FREE ENERGY PREDICTED BY IDOCK:   -4.66 KCAL/MOL
REMARK 922        TOTAL FREE ENERGY PREDICTED BY IDOCK:   -6.14 KCAL/MOL
REMARK 923 INTER-LIGAND FREE ENERGY PREDICTED BY IDOCK:   -5.56 KCAL/MOL
REMARK 924 INTRA-LIGAND FREE ENERGY PREDICTED BY IDOCK:   -0.58 KCAL/MOL
REMARK 927      BINDING AFFINITY PREDICTED BY RF-SCORE:    0.00 PKD
ROOT
HETATM    1  C   UNL     1     -12.238  13.281  70.406  1.00  0.00    -0.404 C  
HETATM    2  C   UNL     1     -11.774  13.788  69.042  1.00  0.00    -0.331 A  
HETATM    3  C   UNL     1     -11.890  15.335  68.943  1.00  0.00    -0.344 A  
HETATM    4  C   UNL     1     -10.465  15.766  68.778  1.00  0.00    -0.228 A  
HETATM    5  C   UNL     1      -9.977  17.056  68.642  1.00  0.00    -0.294 A  
HETATM    6  C   UNL     1      -8.602  17.223  68.478  1.00  0.00    -0.270 A  
HETATM    7  C   UNL     1      -7.746  16.111  68.473  1.00  0.00    -0.170 A  
HETATM    8  C   UNL     1      -8.259  14.814  68.603  1.00  0.00    -0.159 A  
HETATM    9  C   UNL     1      -9.628  14.646  68.732  1.00  0.00    -0.210 A  
HETATM   10  N   UNL     1     -10.367  13.458  68.747  1.00  0.00    -0.198 NA 
ENDROOT
BRANCH  10  11
HETATM   11  N   UNL     1      -9.773  12.275  69.146  1.00  0.00    -0.272 N  
HETATM   12  C   UNL     1      -9.429  11.357  68.161  1.00  0.00    -0.181 C  
HETATM   13  H   UNL     1      -9.592  12.083  70.132  1.00  0.00     0.000 HD 
HETATM   14  O   UNL     1      -9.498  11.549  66.951  1.00  0.00    -0.177 OA 
BRANCH  12  15
HETATM   15  C   UNL     1      -9.049  10.006  68.658  1.00  0.00    -0.139 A  
HETATM   16  C   UNL     1      -9.782   8.897  68.213  1.00  0.00    -0.174 A  
HETATM   17  C   UNL     1      -9.542   7.627  68.764  1.00  0.00    -0.153 A  
HETATM   18  C   UNL     1      -8.554   7.460  69.738  1.00  0.00    -0.140 A  
HETATM   19  C   UNL     1      -8.019   9.827  69.585  1.00  0.00    -0.152 A  
HETATM   20 CL   UNL     1      -8.223   5.967  70.539  1.00  0.00    -0.111 Cl 
HETATM   21  C   UNL     1      -7.778   8.560  70.126  1.00  0.00    -0.086 A  
BRANCH  17  22
HETATM   22  S   UNL     1     -10.556   6.282  68.241  1.00  0.00    -0.288 S  
HETATM   23  O   UNL     1     -11.576   6.045  69.237  1.00  0.00    -0.240 OA 
HETATM   24  N   UNL     1     -11.389   6.903  66.924  1.00  0.00    -0.713 N  
HETATM   25  H1  UNL     1     -11.975   6.125  66.621  1.00  0.00     0.000 HD 
HETATM   26  O   UNL     1      -9.709   5.220  67.753  1.00  0.00    -0.128 OA 
HETATM   27  H2  UNL     1     -11.323   7.838  66.521  1.00  0.00     0.000 HD 
ENDBRANCH  17  22
ENDBRANCH  12  15
ENDBRANCH  10  11
TORSDOF 3
ENDMDL
MODEL      100
REMARK 921   NORMALIZED FREE ENERGY PREDICTED BY IDOCK:   -4.66 KCAL/MOL
REMARK 922        TOTAL FREE ENERGY PREDICTED BY IDOCK:   -6.14 KCAL/MOL
REMARK 923 INTER-LIGAND FREE ENERGY PREDICTED BY IDOCK:   -5.75 KCAL/MOL
REMARK 924 INTRA-LIGAND FREE ENERGY PREDICTED BY IDOCK:   -0.39 KCAL/MOL
REMARK 927      BINDING AFFINITY PREDICTED BY RF-SCORE:    0.00 PKD
ROOT
HETATM    1  C   UNL     1     -12.325  13.018  64.616  1.00  0.00    -0.480 C  
HETATM    2  C   UNL     1     -10.911  13.596  64.657  1.00  0.00    -0.396 A  
HETATM    3  C   UNL     1     -10.936  15.149  64.729  1.00  0.00    -0.394 A  
HETATM    4  C   UNL     1     -10.307  15.430  66.059  1.00  0.00    -0.339 A  
HETATM    5  C   UNL     1     -10.075  16.664  66.645  1.00  0.00    -0.305 A  
HETATM    6  C   UNL     1      -9.451  16.691  67.893  1.00  0.00    -0.225 A  
HETATM    7  C   UNL     1      -9.093  15.495  68.534  1.00  0.00    -0.196 A  
HETATM    8  C   UNL     1      -9.329  14.257  67.922  1.00  0.00    -0.198 A  
HETATM    9  C   UNL     1      -9.917  14.233  66.667  1.00  0.00    -0.275 A  
HETATM   10  N   UNL     1     -10.129  13.139  65.820  1.00  0.00    -0.289 NA 
ENDROOT
BRANCH  10  11
HETATM   11  N   UNL     1     -10.237  11.865  66.345  1.00  0.00    -0.205 N  
HETATM   12  C   UNL     1      -9.156  11.005  66.189  1.00  0.00    -0.192 C  
HETATM   13  H   UNL     1     -11.082  11.565  66.831  1.00  0.00     0.000 HD 
HETATM   14  O   UNL     1      -8.060  11.312  65.728  1.00  0.00    -0.045 OA 
BRANCH  12  15
HETATM   15  C   UNL     1      -9.425   9.581  66.527  1.00  0.00    -0.236 A  
HETATM   16  C   UNL     1      -8.612   8.591  65.955  1.00  0.00    -0.162 A  
HETATM   17  C   UNL     1      -8.920   7.233  66.140  1.00  0.00    -0.149 A  
HETATM   18  C   UNL     1     -10.021   6.863  66.918  1.00  0.00    -0.200 A  
HETATM   19  C   UNL     1     -10.487   9.209  67.355  1.00  0.00    -0.339 A  
HETATM   20 CL   UNL     1     -10.539   5.233  67.152  1.00  0.00    -0.264 Cl 
HETATM   21  C   UNL     1     -10.785   7.855  67.543  1.00  0.00    -0.252 A  
BRANCH  17  22
HETATM   22  S   UNL     1      -7.924   6.029  65.321  1.00  0.00    -0.123 S  
HETATM   23  O   UNL     1      -7.524   5.020  66.276  1.00  0.00    -0.084 OA 
HETATM   24  N   UNL     1      -9.005   5.247  64.306  1.00  0.00    -0.357 N  
HETATM   25  H1  UNL     1      -8.429   4.551  63.832  1.00  0.00     0.000 HD 
HETATM   26  O   UNL     1      -6.962   6.709  64.486  1.00  0.00    -0.050 OA 
HETATM   27  H2  UNL     1     -10.002   5.425  64.189  1.00  0.00     0.000 HD 
ENDBRANCH  17  22
ENDBRANCH  12  15
ENDBRANCH  10  11
TORSDOF 3
ENDMDL
MODEL      101
REMARK 921   NORMALIZED FREE ENERGY PREDICTED BY IDOCK:   -4.66 KCAL/MOL
REMARK 922        TOTAL FREE ENERGY PREDICTED BY IDOCK:   -6.14 KCAL/MOL
REMARK 923 INTER-LIGAND FREE ENERGY PREDICTED BY IDOCK:   -5.92 KCAL/MOL
REMARK 924 INTRA-LIGAND FREE ENERGY PREDICTED BY IDOCK:   -0.22 KCAL/MOL
REMARK 927      BINDING AFFINITY PREDICTED BY RF-SCORE:    0.00 PKD
ROOT
HETATM    1  C   UNL     1     -11.049  13.220  63.899  1.00  0.00    -0.272 C  
HETATM    2  C   UNL     1     -11.102  12.055  64.886  1.00  0.00    -0.316 A  
HETATM    3  C   UNL     1     -10.660  10.724  64.217  1.00  0.00    -0.225 A  
HETATM    4  C   UNL     1      -9.422  10.364  64.979  1.00  0.00    -0.308 A  
HETATM    5  C   UNL     1      -8.605   9.259  64.800  1.00  0.00    -0.207 A  
HETATM    6  C   UNL     1      -7.505   9.111  65.646  1.00  0.00    -0.093 A  
HETATM    7  C   UNL     1      -7.234  10.072  66.633  1.00  0.00    -0.099 A  
HETATM    8  C   UNL     1      -8.077  11.179  66.804  1.00  0.00    -0.155 A  
HETATM    9  C   UNL     1      -9.188  11.306  65.985  1.00  0.00    -0.208 A  
HETATM   10  N   UNL     1     -10.224  12.244  66.056  1.00  0.00    -0.237 NA 
ENDROOT
BRANCH  10  11
HETATM   11  N   UNL     1     -10.007  13.476  66.643  1.00  0.00    -0.274 N  
HETATM   12  C   UNL     1     -10.931  13.920  67.582  1.00  0.00    -0.264 C  
HETATM   13  H   UNL     1      -9.195  14.042  66.395  1.00  0.00     0.000 HD 
HETATM   14  O   UNL     1     -11.866  13.263  68.029  1.00  0.00    -0.340 OA 
BRANCH  12  15
HETATM   15  C   UNL     1     -10.798  15.350  67.975  1.00  0.00    -0.292 A  
HETATM   16  C   UNL     1     -10.065  16.208  67.144  1.00  0.00    -0.269 A  
HETATM   17  C   UNL     1      -9.803  17.528  67.549  1.00  0.00    -0.293 A  
HETATM   18  C   UNL     1     -10.295  17.997  68.770  1.00  0.00    -0.284 A  
HETATM   19  C   UNL     1     -11.342  15.838  69.166  1.00  0.00    -0.349 A  
HETATM   20 CL   UNL     1      -9.973  19.569  69.406  1.00  0.00    -0.371 Cl 
HETATM   21  C   UNL     1     -11.085  17.155  69.562  1.00  0.00     0.376 A  
BRANCH  17  22
HETATM   22  S   UNL     1      -8.795  18.538  66.512  1.00  0.00    -0.271 S  
HETATM   23  O   UNL     1      -9.604  19.599  65.958  1.00  0.00    -0.380 OA 
HETATM   24  N   UNL     1      -7.767  19.309  67.590  1.00  0.00    -0.253 N  
HETATM   25  H1  UNL     1      -7.184  19.893  66.990  1.00  0.00     0.000 HD 
HETATM   26  O   UNL     1      -7.983  17.686  65.677  1.00  0.00    -0.529 OA 
HETATM   27  H2  UNL     1      -7.733  19.215  68.605  1.00  0.00     0.000 HD 
ENDBRANCH  17  22
ENDBRANCH  12  15
ENDBRANCH  10  11
TORSDOF 3
ENDMDL
MODEL      102
REMARK 921   NORMALIZED FREE ENERGY PREDICTED BY IDOCK:   -4.63 KCAL/MOL
REMARK 922        TOTAL FREE ENERGY PREDICTED BY IDOCK:   -6.10 KCAL/MOL
REMARK 923 INTER-LIGAND FREE ENERGY PREDICTED BY IDOCK:   -6.16 KCAL/MOL
REMARK 924 INTRA-LIGAND FREE ENERGY PREDICTED BY IDOCK:    0.05 KCAL/MOL
REMARK 927      BINDING AFFINITY PREDICTED BY RF-SCORE:    0.00 PKD
ROOT
HETATM    1  C   UNL     1      -6.212  16.175  68.113  1.00  0.00    -0.124 C  
HETATM    2  C   UNL     1      -7.428  16.861  68.734  1.00  0.00    -0.237 A  
HETATM    3  C   UNL     1      -7.343  18.406  68.587  1.00  0.00    -0.311 A  
HETATM    4  C   UNL     1      -8.519  18.722  67.715  1.00  0.00    -0.298 A  
HETATM    5  C   UNL     1      -8.928  19.965  67.258  1.00  0.00    -0.420 A  
HETATM    6  C   UNL     1     -10.075  20.028  66.466  1.00  0.00    -0.606 A  
HETATM    7  C   UNL     1     -10.774  18.858  66.133  1.00  0.00    -0.364 A  
HETATM    8  C   UNL     1     -10.349  17.611  66.612  1.00  0.00    -0.333 A  
HETATM    9  C   UNL     1      -9.230  17.554  67.426  1.00  0.00    -0.238 A  
HETATM   10  N   UNL     1      -8.703  16.455  68.114  1.00  0.00    -0.187 NA 
ENDROOT
BRANCH  10  11
HETATM   11  N   UNL     1      -8.945  15.171  67.662  1.00  0.00    -0.177 N  
HETATM   12  C   UNL     1     -10.019  14.480  68.211  1.00  0.00    -0.229 C  
HETATM   13  H   UNL     1      -8.353  14.744  66.948  1.00  0.00     0.000 HD 
HETATM   14  O   UNL     1     -10.851  14.950  68.981  1.00  0.00    -0.228 OA 
BRANCH  12  15
HETATM   15  C   UNL     1     -10.067  13.027  67.892  1.00  0.00    -0.235 A  
HETATM   16  C   UNL     1      -9.469  12.581  66.705  1.00  0.00    -0.242 A  
HETATM   17  C   UNL     1      -9.614  11.242  66.303  1.00  0.00    -0.209 A  
HETATM   18  C   UNL     1     -10.331  10.344  67.099  1.00  0.00    -0.238 A  
HETATM   19  C   UNL     1     -10.730  12.115  68.717  1.00  0.00    -0.252 A  
HETATM   20 CL   UNL     1     -10.638   8.701  66.671  1.00  0.00    -0.250 Cl 
HETATM   21  C   UNL     1     -10.865  10.781  68.317  1.00  0.00    -0.276 A  
BRANCH  17  22
HETATM   22  S   UNL     1      -8.925  10.754  64.754  1.00  0.00    -0.146 S  
HETATM   23  O   UNL     1      -9.196  11.779  63.773  1.00  0.00    -0.000 OA 
HETATM   24  N   UNL     1      -7.270  10.843  65.012  1.00  0.00    -0.339 N  
HETATM   25  H1  UNL     1      -6.871  10.560  64.117  1.00  0.00     0.000 HD 
HETATM   26  O   UNL     1      -9.249   9.368  64.515  1.00  0.00    -0.216 OA 
HETATM   27  H2  UNL     1      -6.778  11.115  65.863  1.00  0.00     0.000 HD 
ENDBRANCH  17  22
ENDBRANCH  12  15
ENDBRANCH  10  11
TORSDOF 3
ENDMDL
MODEL      103
REMARK 921   NORMALIZED FREE ENERGY PREDICTED BY IDOCK:   -4.62 KCAL/MOL
REMARK 922        TOTAL FREE ENERGY PREDICTED BY IDOCK:   -6.09 KCAL/MOL
REMARK 923 INTER-LIGAND FREE ENERGY PREDICTED BY IDOCK:   -5.48 KCAL/MOL
REMARK 924 INTRA-LIGAND FREE ENERGY PREDICTED BY IDOCK:   -0.62 KCAL/MOL
REMARK 927      BINDING AFFINITY PREDICTED BY RF-SCORE:    0.00 PKD
ROOT
HETATM    1  C   UNL     1     -11.783  12.832  65.789  1.00  0.00    -0.449 C  
HETATM    2  C   UNL     1     -10.540  13.648  65.436  1.00  0.00    -0.317 A  
HETATM    3  C   UNL     1     -10.915  15.084  64.977  1.00  0.00    -0.436 A  
HETATM    4  C   UNL     1     -10.291  15.945  66.032  1.00  0.00    -0.363 A  
HETATM    5  C   UNL     1     -10.313  17.327  66.124  1.00  0.00    -0.320 A  
HETATM    6  C   UNL     1      -9.640  17.925  67.190  1.00  0.00    -0.280 A  
HETATM    7  C   UNL     1      -8.981  17.137  68.146  1.00  0.00    -0.240 A  
HETATM    8  C   UNL     1      -8.962  15.740  68.031  1.00  0.00    -0.178 A  
HETATM    9  C   UNL     1      -9.602  15.150  66.953  1.00  0.00    -0.239 A  
HETATM   10  N   UNL     1      -9.607  13.804  66.567  1.00  0.00    -0.282 NA 
ENDROOT
BRANCH  10  11
HETATM   11  N   UNL     1      -9.389  12.812  67.505  1.00  0.00    -0.183 N  
HETATM   12  C   UNL     1      -8.094  12.325  67.645  1.00  0.00    -0.165 C  
HETATM   13  H   UNL     1     -10.153  12.449  68.076  1.00  0.00     0.000 HD 
HETATM   14  O   UNL     1      -7.097  12.779  67.093  1.00  0.00    -0.116 OA 
BRANCH  12  15
HETATM   15  C   UNL     1      -7.968  11.087  68.462  1.00  0.00    -0.137 A  
HETATM   16  C   UNL     1      -8.868  10.037  68.231  1.00  0.00    -0.116 A  
HETATM   17  C   UNL     1      -8.868   8.911  69.072  1.00  0.00    -0.136 A  
HETATM   18  C   UNL     1      -7.954   8.822  70.125  1.00  0.00    -0.107 A  
HETATM   19  C   UNL     1      -7.013  10.968  69.476  1.00  0.00    -0.126 A  
HETATM   20 CL   UNL     1      -7.910   7.527  71.265  1.00  0.00    -0.092 Cl 
HETATM   21  C   UNL     1      -7.012   9.842  70.305  1.00  0.00    -0.147 A  
BRANCH  17  22
HETATM   22  S   UNL     1     -10.083   7.661  68.798  1.00  0.00    -0.198 S  
HETATM   23  O   UNL     1     -10.991   7.633  69.923  1.00  0.00    -0.250 OA 
HETATM   24  N   UNL     1     -10.998   8.270  67.532  1.00  0.00    -0.477 N  
HETATM   25  H1  UNL     1     -11.701   7.547  67.373  1.00  0.00     0.000 HD 
HETATM   26  O   UNL     1      -9.426   6.468  68.321  1.00  0.00    -0.121 OA 
HETATM   27  H2  UNL     1     -10.880   9.154  67.036  1.00  0.00     0.000 HD 
ENDBRANCH  17  22
ENDBRANCH  12  15
ENDBRANCH  10  11
TORSDOF 3
ENDMDL
MODEL      104
REMARK 921   NORMALIZED FREE ENERGY PREDICTED BY IDOCK:   -4.61 KCAL/MOL
REMARK 922        TOTAL FREE ENERGY PREDICTED BY IDOCK:   -6.08 KCAL/MOL
REMARK 923 INTER-LIGAND FREE ENERGY PREDICTED BY IDOCK:   -5.57 KCAL/MOL
REMARK 924 INTRA-LIGAND FREE ENERGY PREDICTED BY IDOCK:   -0.51 KCAL/MOL
REMARK 927      BINDING AFFINITY PREDICTED BY RF-SCORE:    0.00 PKD
ROOT
HETATM    1  C   UNL     1     -11.060   6.370  68.283  1.00  0.00    -0.359 C  
HETATM    2  C   UNL     1      -9.630   5.919  67.987  1.00  0.00    -0.116 A  
HETATM    3  C   UNL     1      -9.471   4.384  68.165  1.00  0.00    -0.207 A  
HETATM    4  C   UNL     1      -9.130   3.921  66.782  1.00  0.00    -0.161 A  
HETATM    5  C   UNL     1      -8.881   2.626  66.356  1.00  0.00    -0.136 A  
HETATM    6  C   UNL     1      -8.558   2.428  65.013  1.00  0.00    -0.107 A  
HETATM    7  C   UNL     1      -8.512   3.514  64.126  1.00  0.00    -0.090 A  
HETATM    8  C   UNL     1      -8.759   4.817  64.577  1.00  0.00    -0.153 A  
HETATM    9  C   UNL     1      -9.045   5.017  65.918  1.00  0.00    -0.150 A  
HETATM   10  N   UNL     1      -9.198   6.224  66.610  1.00  0.00    -0.142 NA 
ENDROOT
BRANCH  10  11
HETATM   11  N   UNL     1      -9.584   7.367  65.936  1.00  0.00    -0.397 N  
HETATM   12  C   UNL     1      -8.870   8.535  66.176  1.00  0.00    -0.167 C  
HETATM   13  H   UNL     1     -10.369   7.354  65.283  1.00  0.00     0.000 HD 
HETATM   14  O   UNL     1      -7.846   8.620  66.847  1.00  0.00    -0.090 OA 
BRANCH  12  15
HETATM   15  C   UNL     1      -9.490   9.779  65.640  1.00  0.00    -0.307 A  
HETATM   16  C   UNL     1      -9.834  10.797  66.540  1.00  0.00    -0.246 A  
HETATM   17  C   UNL     1     -10.544  11.923  66.092  1.00  0.00    -0.258 A  
HETATM   18  C   UNL     1     -10.885  12.046  64.742  1.00  0.00    -0.306 A  
HETATM   19  C   UNL     1      -9.776   9.931  64.281  1.00  0.00    -0.123 A  
HETATM   20 CL   UNL     1     -11.818  13.344  64.091  1.00  0.00    -0.466 Cl 
HETATM   21  C   UNL     1     -10.475  11.058  63.838  1.00  0.00    -0.422 A  
BRANCH  17  22
HETATM   22  S   UNL     1     -11.038  13.130  67.280  1.00  0.00    -0.289 S  
HETATM   23  O   UNL     1     -12.390  12.848  67.704  1.00  0.00    -0.220 OA 
HETATM   24  N   UNL     1     -10.092  12.777  68.619  1.00  0.00    -0.384 N  
HETATM   25  H1  UNL     1     -10.378  13.475  69.306  1.00  0.00     0.000 HD 
HETATM   26  O   UNL     1     -10.646  14.437  66.809  1.00  0.00    -0.277 OA 
HETATM   27  H2  UNL     1      -9.396  12.039  68.722  1.00  0.00     0.000 HD 
ENDBRANCH  17  22
ENDBRANCH  12  15
ENDBRANCH  10  11
TORSDOF 3
ENDMDL
MODEL      105
REMARK 921   NORMALIZED FREE ENERGY PREDICTED BY IDOCK:   -4.59 KCAL/MOL
REMARK 922        TOTAL FREE ENERGY PREDICTED BY IDOCK:   -6.05 KCAL/MOL
REMARK 923 INTER-LIGAND FREE ENERGY PREDICTED BY IDOCK:   -5.98 KCAL/MOL
REMARK 924 INTRA-LIGAND FREE ENERGY PREDICTED BY IDOCK:   -0.07 KCAL/MOL
REMARK 927      BINDING AFFINITY PREDICTED BY RF-SCORE:    0.00 PKD
ROOT
HETATM    1  C   UNL     1      -7.080  10.305  70.317  1.00  0.00    -0.114 C  
HETATM    2  C   UNL     1      -8.119   9.258  69.917  1.00  0.00    -0.124 A  
HETATM    3  C   UNL     1      -8.100   8.042  70.884  1.00  0.00    -0.102 A  
HETATM    4  C   UNL     1      -9.458   8.094  71.512  1.00  0.00    -0.222 A  
HETATM    5  C   UNL     1      -9.988   7.237  72.464  1.00  0.00    -0.213 A  
HETATM    6  C   UNL     1     -11.295   7.464  72.897  1.00  0.00    -0.322 A  
HETATM    7  C   UNL     1     -12.033   8.545  72.390  1.00  0.00    -0.434 A  
HETATM    8  C   UNL     1     -11.483   9.395  71.422  1.00  0.00    -0.449 A  
HETATM    9  C   UNL     1     -10.198   9.148  70.968  1.00  0.00    -0.302 A  
HETATM   10  N   UNL     1      -9.500   9.776  69.930  1.00  0.00    -0.222 NA 
ENDROOT
BRANCH  10  11
HETATM   11  N   UNL     1      -9.822  11.068  69.558  1.00  0.00    -0.428 N  
HETATM   12  C   UNL     1      -9.667  11.417  68.221  1.00  0.00    -0.202 C  
HETATM   13  H   UNL     1     -10.163  11.744  70.242  1.00  0.00     0.000 HD 
HETATM   14  O   UNL     1      -9.379  10.646  67.311  1.00  0.00    -0.150 OA 
BRANCH  12  15
HETATM   15  C   UNL     1      -9.766  12.874  67.931  1.00  0.00    -0.218 A  
HETATM   16  C   UNL     1     -10.255  13.725  68.932  1.00  0.00    -0.111 A  
HETATM   17  C   UNL     1     -10.492  15.081  68.650  1.00  0.00    -0.238 A  
HETATM   18  C   UNL     1     -10.215  15.592  67.379  1.00  0.00    -0.255 A  
HETATM   19  C   UNL     1      -9.431  13.399  66.680  1.00  0.00    -0.264 A  
HETATM   20 CL   UNL     1     -10.536  17.218  66.895  1.00  0.00    -0.264 Cl 
HETATM   21  C   UNL     1      -9.662  14.751  66.406  1.00  0.00    -0.311 A  
BRANCH  17  22
HETATM   22  S   UNL     1     -11.197  16.089  69.915  1.00  0.00    -0.366 S  
HETATM   23  O   UNL     1     -10.840  17.468  69.672  1.00  0.00     0.135 OA 
HETATM   24  N   UNL     1     -12.844  16.017  69.604  1.00  0.00    -0.462 N  
HETATM   25  H1  UNL     1     -13.252  16.600  70.335  1.00  0.00     0.000 HD 
HETATM   26  O   UNL     1     -10.972  15.459  71.194  1.00  0.00    -0.345 OA 
HETATM   27  H2  UNL     1     -13.323  15.510  68.860  1.00  0.00     0.000 HD 
ENDBRANCH  17  22
ENDBRANCH  12  15
ENDBRANCH  10  11
TORSDOF 3
ENDMDL
MODEL      106
REMARK 921   NORMALIZED FREE ENERGY PREDICTED BY IDOCK:   -4.57 KCAL/MOL
REMARK 922        TOTAL FREE ENERGY PREDICTED BY IDOCK:   -6.03 KCAL/MOL
REMARK 923 INTER-LIGAND FREE ENERGY PREDICTED BY IDOCK:   -5.71 KCAL/MOL
REMARK 924 INTRA-LIGAND FREE ENERGY PREDICTED BY IDOCK:   -0.32 KCAL/MOL
REMARK 927      BINDING AFFINITY PREDICTED BY RF-SCORE:    0.00 PKD
ROOT
HETATM    1  C   UNL     1     -11.949   7.242  70.143  1.00  0.00     0.043 C  
HETATM    2  C   UNL     1     -10.731   7.582  71.001  1.00  0.00    -0.231 A  
HETATM    3  C   UNL     1     -10.459   6.479  72.061  1.00  0.00    -0.227 A  
HETATM    4  C   UNL     1      -9.118   5.950  71.655  1.00  0.00    -0.149 A  
HETATM    5  C   UNL     1      -8.384   4.940  72.257  1.00  0.00    -0.120 A  
HETATM    6  C   UNL     1      -7.137   4.624  71.718  1.00  0.00    -0.060 A  
HETATM    7  C   UNL     1      -6.660   5.302  70.585  1.00  0.00    -0.038 A  
HETATM    8  C   UNL     1      -7.413   6.326  69.996  1.00  0.00    -0.087 A  
HETATM    9  C   UNL     1      -8.636   6.663  70.553  1.00  0.00    -0.143 A  
HETATM   10  N   UNL     1      -9.489   7.721  70.219  1.00  0.00    -0.160 NA 
ENDROOT
BRANCH  10  11
HETATM   11  N   UNL     1      -9.457   8.263  68.948  1.00  0.00    -0.151 N  
HETATM   12  C   UNL     1      -9.601   9.640  68.825  1.00  0.00    -0.152 C  
HETATM   13  H   UNL     1      -9.332   7.672  68.125  1.00  0.00     0.000 HD 
HETATM   14  O   UNL     1      -9.636  10.439  69.756  1.00  0.00    -0.165 OA 
BRANCH  12  15
HETATM   15  C   UNL     1      -9.830  10.133  67.440  1.00  0.00    -0.225 A  
HETATM   16  C   UNL     1     -10.572  11.309  67.261  1.00  0.00    -0.271 A  
HETATM   17  C   UNL     1     -10.925  11.730  65.968  1.00  0.00    -0.306 A  
HETATM   18  C   UNL     1     -10.515  10.993  64.854  1.00  0.00    -0.303 A  
HETATM   19  C   UNL     1      -9.367   9.432  66.323  1.00  0.00    -0.253 A  
HETATM   20 CL   UNL     1     -10.951  11.369  63.227  1.00  0.00    -0.346 Cl 
HETATM   21  C   UNL     1      -9.715   9.859  65.037  1.00  0.00    -0.359 A  
BRANCH  17  22
HETATM   22  S   UNL     1     -11.941  13.163  65.801  1.00  0.00    -0.446 S  
HETATM   23  O   UNL     1     -12.141  13.753  67.105  1.00  0.00    -0.398 OA 
HETATM   24  N   UNL     1     -10.957  14.252  64.990  1.00  0.00    -0.364 N  
HETATM   25  H1  UNL     1     -11.545  15.081  64.893  1.00  0.00     0.000 HD 
HETATM   26  O   UNL     1     -13.049  12.851  64.930  1.00  0.00    -0.799 OA 
HETATM   27  H2  UNL     1      -9.999  14.118  64.669  1.00  0.00     0.000 HD 
ENDBRANCH  17  22
ENDBRANCH  12  15
ENDBRANCH  10  11
TORSDOF 3
ENDMDL
MODEL      107
REMARK 921   NORMALIZED FREE ENERGY PREDICTED BY IDOCK:   -4.57 KCAL/MOL
REMARK 922        TOTAL FREE ENERGY PREDICTED BY IDOCK:   -6.03 KCAL/MOL
REMARK 923 INTER-LIGAND FREE ENERGY PREDICTED BY IDOCK:   -5.67 KCAL/MOL
REMARK 924 INTRA-LIGAND FREE ENERGY PREDICTED BY IDOCK:   -0.36 KCAL/MOL
REMARK 927      BINDING AFFINITY PREDICTED BY RF-SCORE:    0.00 PKD
ROOT
HETATM    1  C   UNL     1      -9.303   8.886  65.462  1.00  0.00    -0.214 C  
HETATM    2  C   UNL     1      -9.027  10.381  65.619  1.00  0.00    -0.176 A  
HETATM    3  C   UNL     1      -9.611  11.194  64.431  1.00  0.00    -0.288 A  
HETATM    4  C   UNL     1     -10.643  12.055  65.093  1.00  0.00    -0.330 A  
HETATM    5  C   UNL     1     -11.480  12.987  64.500  1.00  0.00    -0.389 A  
HETATM    6  C   UNL     1     -12.357  13.697  65.320  1.00  0.00    -0.498 A  
HETATM    7  C   UNL     1     -12.395  13.451  66.701  1.00  0.00    -0.324 A  
HETATM    8  C   UNL     1     -11.535  12.511  67.284  1.00  0.00    -0.416 A  
HETATM    9  C   UNL     1     -10.640  11.831  66.473  1.00  0.00    -0.253 A  
HETATM   10  N   UNL     1      -9.614  10.955  66.844  1.00  0.00    -0.176 NA 
ENDROOT
BRANCH  10  11
HETATM   11  N   UNL     1      -9.690  10.262  68.038  1.00  0.00    -0.148 N  
HETATM   12  C   UNL     1      -8.522  10.107  68.775  1.00  0.00    -0.131 C  
HETATM   13  H   UNL     1     -10.575   9.877  68.368  1.00  0.00     0.000 HD 
HETATM   14  O   UNL     1      -7.442  10.634  68.520  1.00  0.00    -0.084 OA 
BRANCH  12  15
HETATM   15  C   UNL     1      -8.604   9.134  69.898  1.00  0.00    -0.155 A  
HETATM   16  C   UNL     1      -9.583   8.132  69.846  1.00  0.00    -0.175 A  
HETATM   17  C   UNL     1      -9.782   7.282  70.947  1.00  0.00    -0.170 A  
HETATM   18  C   UNL     1      -8.986   7.417  72.089  1.00  0.00    -0.131 A  
HETATM   19  C   UNL     1      -7.768   9.227  71.014  1.00  0.00    -0.100 A  
HETATM   20 CL   UNL     1      -9.188   6.484  73.527  1.00  0.00    -0.142 Cl 
HETATM   21  C   UNL     1      -7.965   8.374  72.106  1.00  0.00    -0.181 A  
BRANCH  17  22
HETATM   22  S   UNL     1     -11.089   6.101  70.869  1.00  0.00    -0.296 S  
HETATM   23  O   UNL     1     -10.556   4.789  71.159  1.00  0.00    -0.110 OA 
HETATM   24  N   UNL     1     -12.040   6.475  72.199  1.00  0.00    -0.462 N  
HETATM   25  H1  UNL     1     -12.796   5.792  72.153  1.00  0.00     0.000 HD 
HETATM   26  O   UNL     1     -11.879   6.356  69.688  1.00  0.00    -0.323 OA 
HETATM   27  H2  UNL     1     -11.896   7.212  72.889  1.00  0.00     0.000 HD 
ENDBRANCH  17  22
ENDBRANCH  12  15
ENDBRANCH  10  11
TORSDOF 3
ENDMDL
MODEL      108
REMARK 921   NORMALIZED FREE ENERGY PREDICTED BY IDOCK:   -4.57 KCAL/MOL
REMARK 922        TOTAL FREE ENERGY PREDICTED BY IDOCK:   -6.03 KCAL/MOL
REMARK 923 INTER-LIGAND FREE ENERGY PREDICTED BY IDOCK:   -5.76 KCAL/MOL
REMARK 924 INTRA-LIGAND FREE ENERGY PREDICTED BY IDOCK:   -0.27 KCAL/MOL
REMARK 927      BINDING AFFINITY PREDICTED BY RF-SCORE:    0.00 PKD
ROOT
HETATM    1  C   UNL     1      -7.563   6.117  70.889  1.00  0.00    -0.097 C  
HETATM    2  C   UNL     1      -8.525   4.952  70.661  1.00  0.00    -0.105 A  
HETATM    3  C   UNL     1      -7.953   3.625  71.232  1.00  0.00    -0.060 A  
HETATM    4  C   UNL     1      -8.934   3.275  72.308  1.00  0.00    -0.131 A  
HETATM    5  C   UNL     1      -8.913   2.177  73.154  1.00  0.00    -0.072 A  
HETATM    6  C   UNL     1      -9.951   2.039  74.076  1.00  0.00    -0.137 A  
HETATM    7  C   UNL     1     -10.969   3.003  74.150  1.00  0.00    -0.150 A  
HETATM    8  C   UNL     1     -10.977   4.102  73.281  1.00  0.00    -0.324 A  
HETATM    9  C   UNL     1      -9.965   4.219  72.342  1.00  0.00    -0.168 A  
HETATM   10  N   UNL     1      -9.837   5.148  71.303  1.00  0.00    -0.169 NA 
ENDROOT
BRANCH  10  11
HETATM   11  N   UNL     1     -10.452   6.383  71.396  1.00  0.00    -0.213 N  
HETATM   12  C   UNL     1     -11.124   6.860  70.276  1.00  0.00    -0.297 C  
HETATM   13  H   UNL     1     -10.415   6.926  72.259  1.00  0.00     0.000 HD 
HETATM   14  O   UNL     1     -11.323   6.231  69.242  1.00  0.00    -0.410 OA 
BRANCH  12  15
HETATM   15  C   UNL     1     -11.528   8.291  70.342  1.00  0.00    -0.122 A  
HETATM   16  C   UNL     1     -11.159   9.141  69.289  1.00  0.00     0.001 A  
HETATM   17  C   UNL     1     -11.403  10.521  69.379  1.00  0.00    -0.269 A  
HETATM   18  C   UNL     1     -12.038  11.049  70.507  1.00  0.00    -0.377 A  
HETATM   19  C   UNL     1     -12.219   8.811  71.440  1.00  0.00    -0.359 A  
HETATM   20 CL   UNL     1     -12.320  12.733  70.763  1.00  0.00    -0.438 Cl 
HETATM   21  C   UNL     1     -12.466  10.185  71.522  1.00  0.00    -0.526 A  
BRANCH  17  22
HETATM   22  S   UNL     1     -10.833  11.560  68.072  1.00  0.00    -0.230 S  
HETATM   23  O   UNL     1     -11.961  12.263  67.503  1.00  0.00    -0.513 OA 
HETATM   24  N   UNL     1      -9.951  12.745  68.865  1.00  0.00    -0.420 N  
HETATM   25  H1  UNL     1      -9.622  13.346  68.108  1.00  0.00     0.000 HD 
HETATM   26  O   UNL     1      -9.911  10.813  67.250  1.00  0.00    -0.173 OA 
HETATM   27  H2  UNL     1      -9.783  12.843  69.866  1.00  0.00     0.000 HD 
ENDBRANCH  17  22
ENDBRANCH  12  15
ENDBRANCH  10  11
TORSDOF 3
ENDMDL
MODEL      109
REMARK 921   NORMALIZED FREE ENERGY PREDICTED BY IDOCK:   -4.45 KCAL/MOL
REMARK 922        TOTAL FREE ENERGY PREDICTED BY IDOCK:   -5.89 KCAL/MOL
REMARK 923 INTER-LIGAND FREE ENERGY PREDICTED BY IDOCK:   -6.64 KCAL/MOL
REMARK 924 INTRA-LIGAND FREE ENERGY PREDICTED BY IDOCK:    0.75 KCAL/MOL
REMARK 927      BINDING AFFINITY PREDICTED BY RF-SCORE:    0.00 PKD
ROOT
HETATM    1  C   UNL     1     -10.959   8.091  72.787  1.00  0.00    -0.449 C  
HETATM    2  C   UNL     1      -9.738   7.565  72.034  1.00  0.00    -0.159 A  
HETATM    3  C   UNL     1      -9.797   6.021  71.867  1.00  0.00    -0.183 A  
HETATM    4  C   UNL     1      -9.881   5.850  70.382  1.00  0.00    -0.231 A  
HETATM    5  C   UNL     1      -9.960   4.665  69.666  1.00  0.00    -0.281 A  
HETATM    6  C   UNL     1     -10.008   4.743  68.273  1.00  0.00    -0.157 A  
HETATM    7  C   UNL     1      -9.999   5.990  67.630  1.00  0.00    -0.154 A  
HETATM    8  C   UNL     1      -9.910   7.176  68.371  1.00  0.00    -0.157 A  
HETATM    9  C   UNL     1      -9.827   7.097  69.752  1.00  0.00    -0.173 A  
HETATM   10  N   UNL     1      -9.607   8.124  70.676  1.00  0.00    -0.165 NA 
ENDROOT
BRANCH  10  11
HETATM   11  N   UNL     1      -9.949   9.426  70.363  1.00  0.00    -0.234 N  
HETATM   12  C   UNL     1     -11.299   9.727  70.223  1.00  0.00    -0.272 C  
HETATM   13  H   UNL     1      -9.234  10.143  70.238  1.00  0.00     0.000 HD 
HETATM   14  O   UNL     1     -12.229   8.964  70.469  1.00  0.00    -0.047 OA 
BRANCH  12  15
HETATM   15  C   UNL     1     -11.594  11.058  69.625  1.00  0.00    -0.390 A  
HETATM   16  C   UNL     1     -11.461  11.214  68.238  1.00  0.00    -0.373 A  
HETATM   17  C   UNL     1     -11.596  12.486  67.656  1.00  0.00    -0.355 A  
HETATM   18  C   UNL     1     -11.890  13.595  68.454  1.00  0.00    -0.372 A  
HETATM   19  C   UNL     1     -11.950  12.155  70.414  1.00  0.00    -0.360 A  
HETATM   20 CL   UNL     1     -12.004  15.213  67.864  1.00  0.00    -0.200 Cl 
HETATM   21  C   UNL     1     -12.091  13.418  69.829  1.00  0.00    -0.374 A  
BRANCH  17  22
HETATM   22  S   UNL     1     -11.324  12.646  65.921  1.00  0.00    -0.352 S  
HETATM   23  O   UNL     1     -10.404  13.736  65.686  1.00  0.00    -0.292 OA 
HETATM   24  N   UNL     1     -10.455  11.267  65.528  1.00  0.00    -0.264 N  
HETATM   25  H1  UNL     1     -10.298  11.360  64.524  1.00  0.00     0.000 HD 
HETATM   26  O   UNL     1     -12.594  12.564  65.240  1.00  0.00    -0.645 OA 
HETATM   27  H2  UNL     1     -10.155  10.513  66.146  1.00  0.00     0.000 HD 
ENDBRANCH  17  22
ENDBRANCH  12  15
ENDBRANCH  10  11
TORSDOF 3
ENDMDL
MODEL      110
REMARK 921   NORMALIZED FREE ENERGY PREDICTED BY IDOCK:   -4.44 KCAL/MOL
REMARK 922        TOTAL FREE ENERGY PREDICTED BY IDOCK:   -5.88 KCAL/MOL
REMARK 923 INTER-LIGAND FREE ENERGY PREDICTED BY IDOCK:   -5.24 KCAL/MOL
REMARK 924 INTRA-LIGAND FREE ENERGY PREDICTED BY IDOCK:   -0.64 KCAL/MOL
REMARK 927      BINDING AFFINITY PREDICTED BY RF-SCORE:    0.00 PKD
ROOT
HETATM    1  C   UNL     1     -12.132  12.320  65.528  1.00  0.00    -0.326 C  
HETATM    2  C   UNL     1     -10.736  12.864  65.228  1.00  0.00    -0.296 A  
HETATM    3  C   UNL     1     -10.757  14.407  65.045  1.00  0.00    -0.440 A  
HETATM    4  C   UNL     1      -9.909  14.888  66.182  1.00  0.00    -0.332 A  
HETATM    5  C   UNL     1      -9.585  16.197  66.506  1.00  0.00    -0.285 A  
HETATM    6  C   UNL     1      -8.754  16.413  67.606  1.00  0.00    -0.188 A  
HETATM    7  C   UNL     1      -8.283  15.331  68.365  1.00  0.00    -0.146 A  
HETATM    8  C   UNL     1      -8.615  14.015  68.016  1.00  0.00    -0.179 A  
HETATM    9  C   UNL     1      -9.412  13.799  66.903  1.00  0.00    -0.262 A  
HETATM   10  N   UNL     1      -9.762  12.586  66.299  1.00  0.00    -0.252 NA 
ENDROOT
BRANCH  10  11
HETATM   11  N   UNL     1      -9.769  11.418  67.038  1.00  0.00    -0.189 N  
HETATM   12  C   UNL     1      -8.911  10.397  66.648  1.00  0.00    -0.141 C  
HETATM   13  H   UNL     1     -10.384  11.309  67.845  1.00  0.00     0.000 HD 
HETATM   14  O   UNL     1      -8.056  10.479  65.771  1.00  0.00    -0.150 OA 
BRANCH  12  15
HETATM   15  C   UNL     1      -9.152   9.081  67.301  1.00  0.00    -0.151 A  
HETATM   16  C   UNL     1      -9.126   7.925  66.509  1.00  0.00    -0.209 A  
HETATM   17  C   UNL     1      -9.483   6.684  67.063  1.00  0.00    -0.144 A  
HETATM   18  C   UNL     1      -9.840   6.593  68.411  1.00  0.00    -0.138 A  
HETATM   19  C   UNL     1      -9.448   8.980  68.663  1.00  0.00    -0.149 A  
HETATM   20 CL   UNL     1     -10.369   5.141  69.180  1.00  0.00    -0.265 Cl 
HETATM   21  C   UNL     1      -9.796   7.741  69.212  1.00  0.00    -0.173 A  
BRANCH  17  22
HETATM   22  S   UNL     1      -9.527   5.275  66.002  1.00  0.00    -0.140 S  
HETATM   23  O   UNL     1     -10.904   4.909  65.761  1.00  0.00    -0.262 OA 
HETATM   24  N   UNL     1      -8.984   5.870  64.531  1.00  0.00    -0.317 N  
HETATM   25  H1  UNL     1      -9.009   5.055  63.918  1.00  0.00     0.000 HD 
HETATM   26  O   UNL     1      -8.555   4.313  66.463  1.00  0.00    -0.111 OA 
HETATM   27  H2  UNL     1      -8.696   6.822  64.304  1.00  0.00     0.000 HD 
ENDBRANCH  17  22
ENDBRANCH  12  15
ENDBRANCH  10  11
TORSDOF 3
ENDMDL
MODEL      111
REMARK 921   NORMALIZED FREE ENERGY PREDICTED BY IDOCK:   -4.43 KCAL/MOL
REMARK 922        TOTAL FREE ENERGY PREDICTED BY IDOCK:   -5.87 KCAL/MOL
REMARK 923 INTER-LIGAND FREE ENERGY PREDICTED BY IDOCK:   -5.44 KCAL/MOL
REMARK 924 INTRA-LIGAND FREE ENERGY PREDICTED BY IDOCK:   -0.43 KCAL/MOL
REMARK 927      BINDING AFFINITY PREDICTED BY RF-SCORE:    0.00 PKD
ROOT
HETATM    1  C   UNL     1     -10.296   9.873  66.676  1.00  0.00    -0.275 C  
HETATM    2  C   UNL     1      -9.831  10.537  67.971  1.00  0.00    -0.147 A  
HETATM    3  C   UNL     1     -10.458  11.950  68.141  1.00  0.00    -0.225 A  
HETATM    4  C   UNL     1     -11.295  11.797  69.373  1.00  0.00    -0.337 A  
HETATM    5  C   UNL     1     -12.085  12.755  69.989  1.00  0.00    -0.355 A  
HETATM    6  C   UNL     1     -12.768  12.395  71.151  1.00  0.00    -0.336 A  
HETATM    7  C   UNL     1     -12.666  11.091  71.659  1.00  0.00    -0.483 A  
HETATM    8  C   UNL     1     -11.856  10.138  71.027  1.00  0.00    -0.475 A  
HETATM    9  C   UNL     1     -11.151  10.507  69.893  1.00  0.00    -0.307 A  
HETATM   10  N   UNL     1     -10.196   9.774  69.179  1.00  0.00    -0.188 NA 
ENDROOT
BRANCH  10  11
HETATM   11  N   UNL     1     -10.206   8.393  69.221  1.00  0.00    -0.204 N  
HETATM   12  C   UNL     1      -9.031   7.745  69.583  1.00  0.00    -0.143 C  
HETATM   13  H   UNL     1     -11.050   7.865  68.995  1.00  0.00     0.000 HD 
HETATM   14  O   UNL     1      -8.009   8.293  69.985  1.00  0.00    -0.099 OA 
BRANCH  12  15
HETATM   15  C   UNL     1      -9.019   6.274  69.351  1.00  0.00    -0.126 A  
HETATM   16  C   UNL     1      -8.608   5.797  68.098  1.00  0.00    -0.108 A  
HETATM   17  C   UNL     1      -8.714   4.429  67.796  1.00  0.00    -0.105 A  
HETATM   18  C   UNL     1      -9.205   3.536  68.752  1.00  0.00    -0.163 A  
HETATM   19  C   UNL     1      -9.451   5.372  70.327  1.00  0.00    -0.214 A  
HETATM   20 CL   UNL     1      -9.452   1.851  68.470  1.00  0.00    -0.241 Cl 
HETATM   21  C   UNL     1      -9.548   4.010  70.024  1.00  0.00    -0.274 A  
BRANCH  17  22
HETATM   22  S   UNL     1      -8.274   3.893  66.174  1.00  0.00    -0.101 S  
HETATM   23  O   UNL     1      -7.439   2.718  66.277  1.00  0.00    -0.072 OA 
HETATM   24  N   UNL     1      -9.720   3.329  65.538  1.00  0.00    -0.375 N  
HETATM   25  H1  UNL     1      -9.465   3.019  64.600  1.00  0.00     0.000 HD 
HETATM   26  O   UNL     1      -7.878   5.041  65.394  1.00  0.00    -0.085 OA 
HETATM   27  H2  UNL     1     -10.637   3.303  65.984  1.00  0.00     0.000 HD 
ENDBRANCH  17  22
ENDBRANCH  12  15
ENDBRANCH  10  11
TORSDOF 3
ENDMDL
MODEL      112
REMARK 921   NORMALIZED FREE ENERGY PREDICTED BY IDOCK:   -4.42 KCAL/MOL
REMARK 922        TOTAL FREE ENERGY PREDICTED BY IDOCK:   -5.86 KCAL/MOL
REMARK 923 INTER-LIGAND FREE ENERGY PREDICTED BY IDOCK:   -5.34 KCAL/MOL
REMARK 924 INTRA-LIGAND FREE ENERGY PREDICTED BY IDOCK:   -0.52 KCAL/MOL
REMARK 927      BINDING AFFINITY PREDICTED BY RF-SCORE:    0.00 PKD
ROOT
HETATM    1  C   UNL     1     -11.743   9.609  71.427  1.00  0.00    -0.478 C  
HETATM    2  C   UNL     1     -10.511   8.861  70.920  1.00  0.00    -0.236 A  
HETATM    3  C   UNL     1     -10.729   7.323  70.949  1.00  0.00    -0.251 A  
HETATM    4  C   UNL     1     -10.655   6.949  69.501  1.00  0.00    -0.261 A  
HETATM    5  C   UNL     1     -10.785   5.688  68.941  1.00  0.00    -0.280 A  
HETATM    6  C   UNL     1     -10.657   5.568  67.557  1.00  0.00    -0.252 A  
HETATM    7  C   UNL     1     -10.424   6.703  66.764  1.00  0.00    -0.298 A  
HETATM    8  C   UNL     1     -10.287   7.968  67.350  1.00  0.00    -0.354 A  
HETATM    9  C   UNL     1     -10.380   8.081  68.728  1.00  0.00    -0.206 A  
HETATM   10  N   UNL     1     -10.153   9.204  69.532  1.00  0.00    -0.190 NA 
ENDROOT
BRANCH  10  11
HETATM   11  N   UNL     1     -10.301  10.474  69.008  1.00  0.00    -0.200 N  
HETATM   12  C   UNL     1      -9.182  11.082  68.451  1.00  0.00    -0.175 C  
HETATM   13  H   UNL     1     -11.203  10.951  69.030  1.00  0.00     0.000 HD 
HETATM   14  O   UNL     1      -8.093  10.545  68.273  1.00  0.00    -0.108 OA 
BRANCH  12  15
HETATM   15  C   UNL     1      -9.330  12.533  68.153  1.00  0.00    -0.210 A  
HETATM   16  C   UNL     1     -10.128  13.313  69.002  1.00  0.00     0.126 A  
HETATM   17  C   UNL     1     -10.403  14.652  68.677  1.00  0.00    -0.246 A  
HETATM   18  C   UNL     1      -9.859  15.219  67.521  1.00  0.00    -0.213 A  
HETATM   19  C   UNL     1      -8.736  13.118  67.032  1.00  0.00    -0.193 A  
HETATM   20 CL   UNL     1     -10.186  16.826  66.982  1.00  0.00    -0.287 Cl 
HETATM   21  C   UNL     1      -9.006  14.454  66.716  1.00  0.00    -0.256 A  
BRANCH  17  22
HETATM   22  S   UNL     1     -11.490  15.563  69.726  1.00  0.00    -0.362 S  
HETATM   23  O   UNL     1     -12.800  15.611  69.118  1.00  0.00     0.304 OA 
HETATM   24  N   UNL     1     -11.679  14.565  71.061  1.00  0.00    -0.456 N  
HETATM   25  H1  UNL     1     -12.308  15.092  71.667  1.00  0.00     0.000 HD 
HETATM   26  O   UNL     1     -10.815  16.758  70.174  1.00  0.00    -0.257 OA 
HETATM   27  H2  UNL     1     -11.264  13.649  71.227  1.00  0.00     0.000 HD 
ENDBRANCH  17  22
ENDBRANCH  12  15
ENDBRANCH  10  11
TORSDOF 3
ENDMDL
MODEL      113
REMARK 921   NORMALIZED FREE ENERGY PREDICTED BY IDOCK:   -4.42 KCAL/MOL
REMARK 922        TOTAL FREE ENERGY PREDICTED BY IDOCK:   -5.85 KCAL/MOL
REMARK 923 INTER-LIGAND FREE ENERGY PREDICTED BY IDOCK:   -5.44 KCAL/MOL
REMARK 924 INTRA-LIGAND FREE ENERGY PREDICTED BY IDOCK:   -0.41 KCAL/MOL
REMARK 927      BINDING AFFINITY PREDICTED BY RF-SCORE:    0.00 PKD
ROOT
HETATM    1  C   UNL     1      -6.617   9.734  66.967  1.00  0.00    -0.071 C  
HETATM    2  C   UNL     1      -7.422   9.270  65.754  1.00  0.00    -0.098 A  
HETATM    3  C   UNL     1      -6.599   8.296  64.865  1.00  0.00    -0.063 A  
HETATM    4  C   UNL     1      -7.379   7.021  64.959  1.00  0.00    -0.083 A  
HETATM    5  C   UNL     1      -7.097   5.805  64.356  1.00  0.00    -0.053 A  
HETATM    6  C   UNL     1      -7.982   4.747  64.566  1.00  0.00    -0.100 A  
HETATM    7  C   UNL     1      -9.111   4.916  65.383  1.00  0.00    -0.155 A  
HETATM    8  C   UNL     1      -9.384   6.156  65.977  1.00  0.00    -0.085 A  
HETATM    9  C   UNL     1      -8.523   7.215  65.740  1.00  0.00    -0.146 A  
HETATM   10  N   UNL     1      -8.660   8.556  66.116  1.00  0.00    -0.130 NA 
ENDROOT
BRANCH  10  11
HETATM   11  N   UNL     1      -9.430   8.895  67.213  1.00  0.00    -0.149 N  
HETATM   12  C   UNL     1     -10.318   9.955  67.081  1.00  0.00    -0.243 C  
HETATM   13  H   UNL     1      -9.349   8.382  68.092  1.00  0.00     0.000 HD 
HETATM   14  O   UNL     1     -10.570  10.550  66.037  1.00  0.00    -0.190 OA 
BRANCH  12  15
HETATM   15  C   UNL     1     -10.915  10.445  68.354  1.00  0.00    -0.312 A  
HETATM   16  C   UNL     1     -11.308   9.503  69.315  1.00  0.00     0.058 A  
HETATM   17  C   UNL     1     -11.999   9.918  70.467  1.00  0.00    -0.239 A  
HETATM   18  C   UNL     1     -12.272  11.273  70.671  1.00  0.00    -0.393 A  
HETATM   19  C   UNL     1     -11.133  11.805  68.589  1.00  0.00    -0.289 A  
HETATM   20 CL   UNL     1     -13.177  11.891  72.004  1.00  0.00    -0.561 Cl 
HETATM   21  C   UNL     1     -11.814  12.214  69.740  1.00  0.00    -0.397 A  
BRANCH  17  22
HETATM   22  S   UNL     1     -12.557   8.685  71.599  1.00  0.00    -0.352 S  
HETATM   23  O   UNL     1     -13.921   8.976  71.977  1.00  0.00    -0.414 OA 
HETATM   24  N   UNL     1     -12.665   7.303  70.656  1.00  0.00    -0.600 N  
HETATM   25  H1  UNL     1     -12.987   6.590  71.310  1.00  0.00     0.000 HD 
HETATM   26  O   UNL     1     -11.527   8.456  72.584  1.00  0.00    -0.380 OA 
HETATM   27  H2  UNL     1     -12.456   7.199  69.663  1.00  0.00     0.000 HD 
ENDBRANCH  17  22
ENDBRANCH  12  15
ENDBRANCH  10  11
TORSDOF 3
ENDMDL
MODEL      114
REMARK 921   NORMALIZED FREE ENERGY PREDICTED BY IDOCK:   -4.41 KCAL/MOL
REMARK 922        TOTAL FREE ENERGY PREDICTED BY IDOCK:   -5.84 KCAL/MOL
REMARK 923 INTER-LIGAND FREE ENERGY PREDICTED BY IDOCK:   -6.68 KCAL/MOL
REMARK 924 INTRA-LIGAND FREE ENERGY PREDICTED BY IDOCK:    0.83 KCAL/MOL
REMARK 927      BINDING AFFINITY PREDICTED BY RF-SCORE:    0.00 PKD
ROOT
HETATM    1  C   UNL     1      -9.703  11.198  67.305  1.00  0.00    -0.186 C  
HETATM    2  C   UNL     1     -11.184  11.064  67.656  1.00  0.00    -0.305 A  
HETATM    3  C   UNL     1     -11.389  10.192  68.926  1.00  0.00    -0.176 A  
HETATM    4  C   UNL     1     -11.992  11.158  69.899  1.00  0.00    -0.439 A  
HETATM    5  C   UNL     1     -12.380  10.916  71.208  1.00  0.00    -0.448 A  
HETATM    6  C   UNL     1     -12.944  11.967  71.930  1.00  0.00    -0.428 A  
HETATM    7  C   UNL     1     -13.090  13.234  71.344  1.00  0.00    -0.361 A  
HETATM    8  C   UNL     1     -12.700  13.457  70.017  1.00  0.00     0.045 A  
HETATM    9  C   UNL     1     -12.171  12.403  69.289  1.00  0.00    -0.037 A  
HETATM   10  N   UNL     1     -11.836  12.358  67.931  1.00  0.00    -0.411 NA 
ENDROOT
BRANCH  10  11
HETATM   11  N   UNL     1     -11.516  13.520  67.255  1.00  0.00    -0.321 N  
HETATM   12  C   UNL     1     -10.480  14.299  67.757  1.00  0.00    -0.245 C  
HETATM   13  H   UNL     1     -12.024  13.797  66.415  1.00  0.00     0.000 HD 
HETATM   14  O   UNL     1      -9.739  13.989  68.686  1.00  0.00    -0.223 OA 
BRANCH  12  15
HETATM   15  C   UNL     1     -10.360  15.657  67.158  1.00  0.00    -0.285 A  
HETATM   16  C   UNL     1      -9.760  16.673  67.915  1.00  0.00    -0.244 A  
HETATM   17  C   UNL     1      -9.752  17.995  67.440  1.00  0.00    -0.296 A  
HETATM   18  C   UNL     1     -10.318  18.297  66.198  1.00  0.00    -0.398 A  
HETATM   19  C   UNL     1     -10.869  15.949  65.890  1.00  0.00    -0.237 A  
HETATM   20 CL   UNL     1     -10.434  19.891  65.547  1.00  0.00    -0.465 Cl 
HETATM   21  C   UNL     1     -10.852  17.265  65.417  1.00  0.00    -0.024 A  
BRANCH  17  22
HETATM   22  S   UNL     1      -9.071  19.252  68.473  1.00  0.00    -0.383 S  
HETATM   23  O   UNL     1      -8.029  18.676  69.292  1.00  0.00    -0.087 OA 
HETATM   24  N   UNL     1      -8.259  20.251  67.397  1.00  0.00    -0.336 N  
HETATM   25  H1  UNL     1      -7.866  20.978  67.994  1.00  0.00     0.000 HD 
HETATM   26  O   UNL     1     -10.150  20.022  69.045  1.00  0.00    -0.389 OA 
HETATM   27  H2  UNL     1      -8.179  20.154  66.385  1.00  0.00     0.000 HD 
ENDBRANCH  17  22
ENDBRANCH  12  15
ENDBRANCH  10  11
TORSDOF 3
ENDMDL
MODEL      115
REMARK 921   NORMALIZED FREE ENERGY PREDICTED BY IDOCK:   -4.41 KCAL/MOL
REMARK 922        TOTAL FREE ENERGY PREDICTED BY IDOCK:   -5.84 KCAL/MOL
REMARK 923 INTER-LIGAND FREE ENERGY PREDICTED BY IDOCK:   -5.29 KCAL/MOL
REMARK 924 INTRA-LIGAND FREE ENERGY PREDICTED BY IDOCK:   -0.55 KCAL/MOL
REMARK 927      BINDING AFFINITY PREDICTED BY RF-SCORE:    0.00 PKD
ROOT
HETATM    1  C   UNL     1     -11.783  12.397  69.371  1.00  0.00    -0.384 C  
HETATM    2  C   UNL     1     -10.584  11.458  69.490  1.00  0.00     0.020 A  
HETATM    3  C   UNL     1     -11.017   9.969  69.377  1.00  0.00    -0.280 A  
HETATM    4  C   UNL     1     -10.326   9.516  68.127  1.00  0.00    -0.251 A  
HETATM    5  C   UNL     1     -10.363   8.260  67.543  1.00  0.00    -0.333 A  
HETATM    6  C   UNL     1      -9.619   8.054  66.381  1.00  0.00    -0.267 A  
HETATM    7  C   UNL     1      -8.876   9.103  65.818  1.00  0.00    -0.210 A  
HETATM    8  C   UNL     1      -8.844  10.364  66.428  1.00  0.00    -0.159 A  
HETATM    9  C   UNL     1      -9.556  10.558  67.601  1.00  0.00    -0.157 A  
HETATM   10  N   UNL     1      -9.569  11.676  68.443  1.00  0.00    -0.194 NA 
ENDROOT
BRANCH  10  11
HETATM   11  N   UNL     1      -9.263  12.927  67.941  1.00  0.00    -0.200 N  
HETATM   12  C   UNL     1      -7.951  13.371  68.057  1.00  0.00    -0.148 C  
HETATM   13  H   UNL     1      -9.978  13.506  67.498  1.00  0.00     0.000 HD 
HETATM   14  O   UNL     1      -7.005  12.702  68.463  1.00  0.00    -0.082 OA 
BRANCH  12  15
HETATM   15  C   UNL     1      -7.740  14.812  67.751  1.00  0.00    -0.170 A  
HETATM   16  C   UNL     1      -8.860  15.651  67.667  1.00  0.00    -0.181 A  
HETATM   17  C   UNL     1      -8.713  16.983  67.246  1.00  0.00    -0.199 A  
HETATM   18  C   UNL     1      -7.445  17.485  66.937  1.00  0.00    -0.202 A  
HETATM   19  C   UNL     1      -6.467  15.332  67.502  1.00  0.00    -0.158 A  
HETATM   20 CL   UNL     1      -7.152  19.077  66.338  1.00  0.00    -0.235 Cl 
HETATM   21  C   UNL     1      -6.324  16.661  67.091  1.00  0.00    -0.219 A  
BRANCH  17  22
HETATM   22  S   UNL     1     -10.164  17.969  67.063  1.00  0.00    -0.375 S  
HETATM   23  O   UNL     1     -10.559  17.973  65.673  1.00  0.00    -0.599 OA 
HETATM   24  N   UNL     1     -11.351  17.073  67.838  1.00  0.00     0.014 N  
HETATM   25  H1  UNL     1     -12.190  17.644  67.732  1.00  0.00     0.000 HD 
HETATM   26  O   UNL     1      -9.993  19.194  67.809  1.00  0.00    -0.322 OA 
HETATM   27  H2  UNL     1     -11.256  16.171  68.304  1.00  0.00     0.000 HD 
ENDBRANCH  17  22
ENDBRANCH  12  15
ENDBRANCH  10  11
TORSDOF 3
ENDMDL
MODEL      116
REMARK 921   NORMALIZED FREE ENERGY PREDICTED BY IDOCK:   -4.35 KCAL/MOL
REMARK 922        TOTAL FREE ENERGY PREDICTED BY IDOCK:   -5.78 KCAL/MOL
REMARK 923 INTER-LIGAND FREE ENERGY PREDICTED BY IDOCK:   -5.08 KCAL/MOL
REMARK 924 INTRA-LIGAND FREE ENERGY PREDICTED BY IDOCK:   -0.70 KCAL/MOL
REMARK 927      BINDING AFFINITY PREDICTED BY RF-SCORE:    0.00 PKD
ROOT
HETATM    1  C   UNL     1     -11.724  11.692  68.727  1.00  0.00    -0.392 C  
HETATM    2  C   UNL     1     -11.458  11.150  70.130  1.00  0.00    -0.272 A  
HETATM    3  C   UNL     1     -12.717  11.269  71.033  1.00  0.00    -0.457 A  
HETATM    4  C   UNL     1     -13.050   9.839  71.331  1.00  0.00    -0.489 A  
HETATM    5  C   UNL     1     -14.094   9.352  72.101  1.00  0.00    -0.282 A  
HETATM    6  C   UNL     1     -14.201   7.971  72.263  1.00  0.00    -0.309 A  
HETATM    7  C   UNL     1     -13.284   7.109  71.642  1.00  0.00    -0.403 A  
HETATM    8  C   UNL     1     -12.229   7.621  70.874  1.00  0.00    -0.194 A  
HETATM    9  C   UNL     1     -12.104   8.995  70.743  1.00  0.00    -0.125 A  
HETATM   10  N   UNL     1     -11.074   9.726  70.140  1.00  0.00    -0.267 NA 
ENDROOT
BRANCH  10  11
HETATM   11  N   UNL     1     -10.298   9.149  69.152  1.00  0.00    -0.208 N  
HETATM   12  C   UNL     1      -8.978   8.841  69.460  1.00  0.00    -0.145 C  
HETATM   13  H   UNL     1     -10.682   8.956  68.227  1.00  0.00     0.000 HD 
HETATM   14  O   UNL     1      -8.466   8.926  70.572  1.00  0.00    -0.141 OA 
BRANCH  12  15
HETATM   15  C   UNL     1      -8.123   8.480  68.295  1.00  0.00    -0.119 A  
HETATM   16  C   UNL     1      -8.211   9.258  67.133  1.00  0.00    -0.117 A  
HETATM   17  C   UNL     1      -7.525   8.868  65.970  1.00  0.00    -0.090 A  
HETATM   18  C   UNL     1      -6.731   7.718  65.977  1.00  0.00    -0.049 A  
HETATM   19  C   UNL     1      -7.281   7.365  68.319  1.00  0.00    -0.090 A  
HETATM   20 CL   UNL     1      -5.906   7.100  64.592  1.00  0.00    -0.036 Cl 
HETATM   21  C   UNL     1      -6.593   6.985  67.162  1.00  0.00    -0.055 A  
BRANCH  17  22
HETATM   22  S   UNL     1      -7.744   9.828  64.506  1.00  0.00    -0.143 S  
HETATM   23  O   UNL     1      -8.585   9.097  63.585  1.00  0.00    -0.200 OA 
HETATM   24  N   UNL     1      -8.693  11.114  65.015  1.00  0.00    -0.384 N  
HETATM   25  H1  UNL     1      -8.819  11.669  64.168  1.00  0.00     0.000 HD 
HETATM   26  O   UNL     1      -6.467  10.366  64.105  1.00  0.00    -0.110 OA 
HETATM   27  H2  UNL     1      -9.056  11.298  65.950  1.00  0.00     0.000 HD 
ENDBRANCH  17  22
ENDBRANCH  12  15
ENDBRANCH  10  11
TORSDOF 3
ENDMDL
MODEL      117
REMARK 921   NORMALIZED FREE ENERGY PREDICTED BY IDOCK:   -4.32 KCAL/MOL
REMARK 922        TOTAL FREE ENERGY PREDICTED BY IDOCK:   -5.74 KCAL/MOL
REMARK 923 INTER-LIGAND FREE ENERGY PREDICTED BY IDOCK:   -6.22 KCAL/MOL
REMARK 924 INTRA-LIGAND FREE ENERGY PREDICTED BY IDOCK:    0.47 KCAL/MOL
REMARK 927      BINDING AFFINITY PREDICTED BY RF-SCORE:    0.00 PKD
ROOT
HETATM    1  C   UNL     1      -8.617  19.662  68.405  1.00  0.00    -0.357 C  
HETATM    2  C   UNL     1      -7.174  19.182  68.254  1.00  0.00    -0.271 A  
HETATM    3  C   UNL     1      -6.380  19.347  69.579  1.00  0.00    -0.347 A  
HETATM    4  C   UNL     1      -6.045  17.933  69.945  1.00  0.00    -0.166 A  
HETATM    5  C   UNL     1      -5.339  17.485  71.050  1.00  0.00    -0.125 A  
HETATM    6  C   UNL     1      -5.125  16.113  71.180  1.00  0.00    -0.138 A  
HETATM    7  C   UNL     1      -5.634  15.221  70.223  1.00  0.00    -0.140 A  
HETATM    8  C   UNL     1      -6.338  15.694  69.108  1.00  0.00    -0.127 A  
HETATM    9  C   UNL     1      -6.520  17.059  68.962  1.00  0.00    -0.202 A  
HETATM   10  N   UNL     1      -7.071  17.759  67.882  1.00  0.00    -0.200 NA 
ENDROOT
BRANCH  10  11
HETATM   11  N   UNL     1      -7.969  17.135  67.036  1.00  0.00    -0.189 N  
HETATM   12  C   UNL     1      -9.092  16.543  67.602  1.00  0.00    -0.199 C  
HETATM   13  H   UNL     1      -7.812  17.110  66.028  1.00  0.00     0.000 HD 
HETATM   14  O   UNL     1      -9.423  16.625  68.781  1.00  0.00    -0.242 OA 
BRANCH  12  15
HETATM   15  C   UNL     1      -9.873  15.663  66.690  1.00  0.00    -0.258 A  
HETATM   16  C   UNL     1      -9.789  14.275  66.864  1.00  0.00    -0.264 A  
HETATM   17  C   UNL     1     -10.400  13.411  65.941  1.00  0.00    -0.290 A  
HETATM   18  C   UNL     1     -11.117  13.932  64.860  1.00  0.00    -0.369 A  
HETATM   19  C   UNL     1     -10.641  16.184  65.646  1.00  0.00    -0.377 A  
HETATM   20 CL   UNL     1     -11.843  12.972  63.623  1.00  0.00    -0.560 Cl 
HETATM   21  C   UNL     1     -11.254  15.320  64.733  1.00  0.00    -0.405 A  
BRANCH  17  22
HETATM   22  S   UNL     1     -10.185  11.672  66.150  1.00  0.00    -0.235 S  
HETATM   23  O   UNL     1      -9.725  11.101  64.905  1.00  0.00    -0.227 OA 
HETATM   24  N   UNL     1      -8.866  11.559  67.180  1.00  0.00    -0.163 N  
HETATM   25  H1  UNL     1      -8.741  10.553  67.301  1.00  0.00     0.000 HD 
HETATM   26  O   UNL     1     -11.328  11.141  66.854  1.00  0.00    -0.369 OA 
HETATM   27  H2  UNL     1      -8.318  12.316  67.589  1.00  0.00     0.000 HD 
ENDBRANCH  17  22
ENDBRANCH  12  15
ENDBRANCH  10  11
TORSDOF 3
ENDMDL
MODEL      118
REMARK 921   NORMALIZED FREE ENERGY PREDICTED BY IDOCK:   -4.31 KCAL/MOL
REMARK 922        TOTAL FREE ENERGY PREDICTED BY IDOCK:   -5.72 KCAL/MOL
REMARK 923 INTER-LIGAND FREE ENERGY PREDICTED BY IDOCK:   -6.17 KCAL/MOL
REMARK 924 INTRA-LIGAND FREE ENERGY PREDICTED BY IDOCK:    0.45 KCAL/MOL
REMARK 927      BINDING AFFINITY PREDICTED BY RF-SCORE:    0.00 PKD
ROOT
HETATM    1  C   UNL     1     -11.211  14.834  67.383  1.00  0.00    -0.346 C  
HETATM    2  C   UNL     1     -11.042  15.067  68.883  1.00  0.00    -0.266 A  
HETATM    3  C   UNL     1     -12.233  15.875  69.469  1.00  0.00    -0.107 A  
HETATM    4  C   UNL     1     -12.854  14.905  70.427  1.00  0.00    -0.327 A  
HETATM    5  C   UNL     1     -13.965  15.099  71.233  1.00  0.00    -0.548 A  
HETATM    6  C   UNL     1     -14.357  14.056  72.071  1.00  0.00    -0.548 A  
HETATM    7  C   UNL     1     -13.652  12.842  72.074  1.00  0.00    -0.499 A  
HETATM    8  C   UNL     1     -12.526  12.668  71.258  1.00  0.00    -0.276 A  
HETATM    9  C   UNL     1     -12.117  13.718  70.451  1.00  0.00    -0.350 A  
HETATM   10  N   UNL     1     -10.966  13.817  69.661  1.00  0.00    -0.049 NA 
ENDROOT
BRANCH  10  11
HETATM   11  N   UNL     1     -10.345  12.675  69.191  1.00  0.00    -0.423 N  
HETATM   12  C   UNL     1     -11.115  11.765  68.476  1.00  0.00    -0.239 C  
HETATM   13  H   UNL     1      -9.354  12.505  69.363  1.00  0.00     0.000 HD 
HETATM   14  O   UNL     1     -12.276  11.938  68.119  1.00  0.00    -0.470 OA 
BRANCH  12  15
HETATM   15  C   UNL     1     -10.473  10.444  68.232  1.00  0.00    -0.221 A  
HETATM   16  C   UNL     1      -9.537  10.336  67.194  1.00  0.00    -0.199 A  
HETATM   17  C   UNL     1      -9.013   9.080  66.845  1.00  0.00    -0.123 A  
HETATM   18  C   UNL     1      -9.403   7.937  67.550  1.00  0.00    -0.143 A  
HETATM   19  C   UNL     1     -10.814   9.312  68.976  1.00  0.00    -0.136 A  
HETATM   20 CL   UNL     1      -8.888   6.336  67.164  1.00  0.00    -0.109 Cl 
HETATM   21  C   UNL     1     -10.285   8.064  68.630  1.00  0.00    -0.225 A  
BRANCH  17  22
HETATM   22  S   UNL     1      -7.912   8.983  65.470  1.00  0.00    -0.110 S  
HETATM   23  O   UNL     1      -8.461   8.072  64.491  1.00  0.00    -0.090 OA 
HETATM   24  N   UNL     1      -8.037  10.495  64.757  1.00  0.00    -0.303 N  
HETATM   25  H1  UNL     1      -7.400  10.439  63.962  1.00  0.00     0.000 HD 
HETATM   26  O   UNL     1      -6.562   8.847  65.962  1.00  0.00    -0.063 OA 
HETATM   27  H2  UNL     1      -8.612  11.285  65.049  1.00  0.00     0.000 HD 
ENDBRANCH  17  22
ENDBRANCH  12  15
ENDBRANCH  10  11
TORSDOF 3
ENDMDL
MODEL      119
REMARK 921   NORMALIZED FREE ENERGY PREDICTED BY IDOCK:   -4.29 KCAL/MOL
REMARK 922        TOTAL FREE ENERGY PREDICTED BY IDOCK:   -5.71 KCAL/MOL
REMARK 923 INTER-LIGAND FREE ENERGY PREDICTED BY IDOCK:   -5.51 KCAL/MOL
REMARK 924 INTRA-LIGAND FREE ENERGY PREDICTED BY IDOCK:   -0.20 KCAL/MOL
REMARK 927      BINDING AFFINITY PREDICTED BY RF-SCORE:    0.00 PKD
ROOT
HETATM    1  C   UNL     1      -9.762  10.792  67.059  1.00  0.00    -0.205 C  
HETATM    2  C   UNL     1     -10.043   9.892  65.857  1.00  0.00    -0.245 A  
HETATM    3  C   UNL     1      -9.430  10.479  64.554  1.00  0.00    -0.329 A  
HETATM    4  C   UNL     1      -8.415   9.447  64.170  1.00  0.00    -0.199 A  
HETATM    5  C   UNL     1      -7.564   9.457  63.076  1.00  0.00    -0.107 A  
HETATM    6  C   UNL     1      -6.708   8.370  62.900  1.00  0.00    -0.090 A  
HETATM    7  C   UNL     1      -6.703   7.313  63.823  1.00  0.00    -0.052 A  
HETATM    8  C   UNL     1      -7.577   7.316  64.918  1.00  0.00    -0.102 A  
HETATM    9  C   UNL     1      -8.451   8.380  65.073  1.00  0.00    -0.141 A  
HETATM   10  N   UNL     1      -9.485   8.535  66.003  1.00  0.00    -0.214 NA 
ENDROOT
BRANCH  10  11
HETATM   11  N   UNL     1      -9.438   7.868  67.212  1.00  0.00    -0.142 N  
HETATM   12  C   UNL     1     -10.318   6.809  67.405  1.00  0.00    -0.223 C  
HETATM   13  H   UNL     1      -8.778   8.143  67.940  1.00  0.00     0.000 HD 
HETATM   14  O   UNL     1     -11.059   6.333  66.551  1.00  0.00    -0.203 OA 
BRANCH  12  15
HETATM   15  C   UNL     1     -10.411   6.309  68.804  1.00  0.00    -0.279 A  
HETATM   16  C   UNL     1     -10.739   7.218  69.820  1.00  0.00    -0.253 A  
HETATM   17  C   UNL     1     -10.702   6.814  71.166  1.00  0.00    -0.229 A  
HETATM   18  C   UNL     1     -10.365   5.498  71.494  1.00  0.00    -0.222 A  
HETATM   19  C   UNL     1     -10.136   4.978  69.129  1.00  0.00    -0.257 A  
HETATM   20 CL   UNL     1     -10.213   4.909  73.109  1.00  0.00    -0.191 Cl 
HETATM   21  C   UNL     1     -10.108   4.578  70.469  1.00  0.00    -0.233 A  
BRANCH  17  22
HETATM   22  S   UNL     1     -11.027   8.019  72.412  1.00  0.00    -0.365 S  
HETATM   23  O   UNL     1     -10.845   9.339  71.850  1.00  0.00    -0.351 OA 
HETATM   24  N   UNL     1     -12.681   7.892  72.662  1.00  0.00    -0.550 N  
HETATM   25  H1  UNL     1     -12.869   8.589  73.383  1.00  0.00     0.000 HD 
HETATM   26  O   UNL     1     -10.374   7.616  73.634  1.00  0.00    -0.324 OA 
HETATM   27  H2  UNL     1     -13.341   7.265  72.203  1.00  0.00     0.000 HD 
ENDBRANCH  17  22
ENDBRANCH  12  15
ENDBRANCH  10  11
TORSDOF 3
ENDMDL
MODEL      120
REMARK 921   NORMALIZED FREE ENERGY PREDICTED BY IDOCK:   -4.29 KCAL/MOL
REMARK 922        TOTAL FREE ENERGY PREDICTED BY IDOCK:   -5.71 KCAL/MOL
REMARK 923 INTER-LIGAND FREE ENERGY PREDICTED BY IDOCK:   -5.29 KCAL/MOL
REMARK 924 INTRA-LIGAND FREE ENERGY PREDICTED BY IDOCK:   -0.42 KCAL/MOL
REMARK 927      BINDING AFFINITY PREDICTED BY RF-SCORE:    0.00 PKD
ROOT
HETATM    1  C   UNL     1      -9.628   4.283  66.008  1.00  0.00    -0.195 C  
HETATM    2  C   UNL     1      -9.763   4.441  67.521  1.00  0.00    -0.163 A  
HETATM    3  C   UNL     1      -9.208   3.200  68.274  1.00  0.00    -0.247 A  
HETATM    4  C   UNL     1      -8.058   3.767  69.048  1.00  0.00    -0.065 A  
HETATM    5  C   UNL     1      -7.195   3.097  69.900  1.00  0.00    -0.041 A  
HETATM    6  C   UNL     1      -6.198   3.836  70.539  1.00  0.00    -0.019 A  
HETATM    7  C   UNL     1      -6.072   5.213  70.300  1.00  0.00    -0.018 A  
HETATM    8  C   UNL     1      -6.960   5.874  69.440  1.00  0.00    -0.064 A  
HETATM    9  C   UNL     1      -7.970   5.146  68.834  1.00  0.00    -0.085 A  
HETATM   10  N   UNL     1      -9.034   5.608  68.051  1.00  0.00    -0.109 NA 
ENDROOT
BRANCH  10  11
HETATM   11  N   UNL     1      -8.922   6.802  67.363  1.00  0.00    -0.116 N  
HETATM   12  C   UNL     1      -9.808   7.823  67.685  1.00  0.00    -0.163 C  
HETATM   13  H   UNL     1      -8.212   6.929  66.641  1.00  0.00     0.000 HD 
HETATM   14  O   UNL     1     -10.611   7.805  68.613  1.00  0.00    -0.192 OA 
BRANCH  12  15
HETATM   15  C   UNL     1      -9.822   8.973  66.739  1.00  0.00    -0.300 A  
HETATM   16  C   UNL     1     -10.562  10.113  67.082  1.00  0.00    -0.308 A  
HETATM   17  C   UNL     1     -10.710  11.161  66.158  1.00  0.00    -0.225 A  
HETATM   18  C   UNL     1     -10.100  11.081  64.903  1.00  0.00    -0.300 A  
HETATM   19  C   UNL     1      -9.160   8.922  65.510  1.00  0.00    -0.248 A  
HETATM   20 CL   UNL     1     -10.274  12.267  63.661  1.00  0.00    -0.445 Cl 
HETATM   21  C   UNL     1      -9.305   9.970  64.595  1.00  0.00    -0.338 A  
BRANCH  17  22
HETATM   22  S   UNL     1     -11.730  12.531  66.600  1.00  0.00    -0.357 S  
HETATM   23  O   UNL     1     -12.225  12.335  67.944  1.00  0.00    -0.409 OA 
HETATM   24  N   UNL     1     -10.646  13.804  66.731  1.00  0.00    -0.272 N  
HETATM   25  H1  UNL     1     -11.235  14.596  66.987  1.00  0.00     0.000 HD 
HETATM   26  O   UNL     1     -12.615  12.829  65.500  1.00  0.00    -0.611 OA 
HETATM   27  H2  UNL     1      -9.636  13.790  66.588  1.00  0.00     0.000 HD 
ENDBRANCH  17  22
ENDBRANCH  12  15
ENDBRANCH  10  11
TORSDOF 3
ENDMDL
MODEL      121
REMARK 921   NORMALIZED FREE ENERGY PREDICTED BY IDOCK:   -4.28 KCAL/MOL
REMARK 922        TOTAL FREE ENERGY PREDICTED BY IDOCK:   -5.69 KCAL/MOL
REMARK 923 INTER-LIGAND FREE ENERGY PREDICTED BY IDOCK:   -5.30 KCAL/MOL
REMARK 924 INTRA-LIGAND FREE ENERGY PREDICTED BY IDOCK:   -0.39 KCAL/MOL
REMARK 927      BINDING AFFINITY PREDICTED BY RF-SCORE:    0.00 PKD
ROOT
HETATM    1  C   UNL     1      -8.691   7.342  66.180  1.00  0.00    -0.172 C  
HETATM    2  C   UNL     1      -9.950   7.074  67.003  1.00  0.00    -0.210 A  
HETATM    3  C   UNL     1     -10.049   5.579  67.417  1.00  0.00    -0.215 A  
HETATM    4  C   UNL     1      -9.964   5.642  68.911  1.00  0.00    -0.222 A  
HETATM    5  C   UNL     1      -9.999   4.587  69.810  1.00  0.00    -0.268 A  
HETATM    6  C   UNL     1      -9.925   4.882  71.171  1.00  0.00    -0.278 A  
HETATM    7  C   UNL     1      -9.798   6.211  71.605  1.00  0.00    -0.191 A  
HETATM    8  C   UNL     1      -9.773   7.265  70.681  1.00  0.00    -0.175 A  
HETATM    9  C   UNL     1      -9.881   6.973  69.331  1.00  0.00    -0.160 A  
HETATM   10  N   UNL     1     -10.006   7.855  68.252  1.00  0.00    -0.174 NA 
ENDROOT
BRANCH  10  11
HETATM   11  N   UNL     1      -9.527   9.148  68.352  1.00  0.00    -0.142 N  
HETATM   12  C   UNL     1     -10.433  10.190  68.194  1.00  0.00    -0.206 C  
HETATM   13  H   UNL     1      -8.541   9.331  68.537  1.00  0.00     0.000 HD 
HETATM   14  O   UNL     1     -11.650  10.069  68.088  1.00  0.00    -0.144 OA 
BRANCH  12  15
HETATM   15  C   UNL     1      -9.825  11.541  68.042  1.00  0.00    -0.192 A  
HETATM   16  C   UNL     1     -10.619  12.580  67.535  1.00  0.00    -0.238 A  
HETATM   17  C   UNL     1     -10.045  13.830  67.249  1.00  0.00    -0.239 A  
HETATM   18  C   UNL     1      -8.687  14.050  67.494  1.00  0.00    -0.198 A  
HETATM   19  C   UNL     1      -8.482  11.781  68.345  1.00  0.00    -0.155 A  
HETATM   20 CL   UNL     1      -7.857  15.515  67.112  1.00  0.00    -0.236 Cl 
HETATM   21  C   UNL     1      -7.917  13.030  68.065  1.00  0.00    -0.155 A  
BRANCH  17  22
HETATM   22  S   UNL     1     -11.064  15.073  66.523  1.00  0.00    -0.304 S  
HETATM   23  O   UNL     1     -10.905  16.304  67.264  1.00  0.00    -0.302 OA 
HETATM   24  N   UNL     1     -10.331  15.371  65.045  1.00  0.00    -0.383 N  
HETATM   25  H1  UNL     1     -10.921  16.090  64.625  1.00  0.00     0.000 HD 
HETATM   26  O   UNL     1     -12.366  14.511  66.253  1.00  0.00    -0.339 OA 
HETATM   27  H2  UNL     1      -9.494  14.936  64.657  1.00  0.00     0.000 HD 
ENDBRANCH  17  22
ENDBRANCH  12  15
ENDBRANCH  10  11
TORSDOF 3
ENDMDL
MODEL      122
REMARK 921   NORMALIZED FREE ENERGY PREDICTED BY IDOCK:   -4.27 KCAL/MOL
REMARK 922        TOTAL FREE ENERGY PREDICTED BY IDOCK:   -5.68 KCAL/MOL
REMARK 923 INTER-LIGAND FREE ENERGY PREDICTED BY IDOCK:   -6.16 KCAL/MOL
REMARK 924 INTRA-LIGAND FREE ENERGY PREDICTED BY IDOCK:    0.48 KCAL/MOL
REMARK 927      BINDING AFFINITY PREDICTED BY RF-SCORE:    0.00 PKD
ROOT
HETATM    1  C   UNL     1     -11.728   8.124  72.739  1.00  0.00    -0.334 C  
HETATM    2  C   UNL     1     -10.464   7.319  73.037  1.00  0.00    -0.310 A  
HETATM    3  C   UNL     1     -10.793   6.010  73.807  1.00  0.00    -0.106 A  
HETATM    4  C   UNL     1     -10.372   4.942  72.844  1.00  0.00    -0.235 A  
HETATM    5  C   UNL     1     -10.443   3.568  73.013  1.00  0.00    -0.251 A  
HETATM    6  C   UNL     1      -9.969   2.755  71.984  1.00  0.00    -0.226 A  
HETATM    7  C   UNL     1      -9.457   3.323  70.808  1.00  0.00    -0.237 A  
HETATM    8  C   UNL     1      -9.386   4.715  70.658  1.00  0.00    -0.220 A  
HETATM    9  C   UNL     1      -9.825   5.522  71.696  1.00  0.00    -0.173 A  
HETATM   10  N   UNL     1      -9.734   6.913  71.821  1.00  0.00    -0.160 NA 
ENDROOT
BRANCH  10  11
HETATM   11  N   UNL     1      -9.648   7.708  70.694  1.00  0.00    -0.164 N  
HETATM   12  C   UNL     1     -10.606   7.535  69.703  1.00  0.00    -0.239 C  
HETATM   13  H   UNL     1      -8.905   8.401  70.593  1.00  0.00     0.000 HD 
HETATM   14  O   UNL     1     -11.599   6.817  69.787  1.00  0.00    -0.298 OA 
BRANCH  12  15
HETATM   15  C   UNL     1     -10.313   8.215  68.411  1.00  0.00    -0.236 A  
HETATM   16  C   UNL     1     -10.650   9.569  68.274  1.00  0.00    -0.260 A  
HETATM   17  C   UNL     1     -10.515  10.206  67.030  1.00  0.00    -0.240 A  
HETATM   18  C   UNL     1     -10.019   9.500  65.930  1.00  0.00    -0.272 A  
HETATM   19  C   UNL     1      -9.758   7.528  67.328  1.00  0.00    -0.217 A  
HETATM   20 CL   UNL     1      -9.882  10.155  64.339  1.00  0.00    -0.368 Cl 
HETATM   21  C   UNL     1      -9.619   8.169  66.092  1.00  0.00    -0.188 A  
BRANCH  17  22
HETATM   22  S   UNL     1     -11.043  11.883  66.886  1.00  0.00    -0.321 S  
HETATM   23  O   UNL     1     -12.036  11.976  65.840  1.00  0.00    -0.546 OA 
HETATM   24  N   UNL     1     -11.897  12.152  68.304  1.00  0.00    -0.337 N  
HETATM   25  H1  UNL     1     -12.202  13.122  68.221  1.00  0.00     0.000 HD 
HETATM   26  O   UNL     1      -9.883  12.742  66.912  1.00  0.00    -0.226 OA 
HETATM   27  H2  UNL     1     -12.069  11.500  69.070  1.00  0.00     0.000 HD 
ENDBRANCH  17  22
ENDBRANCH  12  15
ENDBRANCH  10  11
TORSDOF 3
ENDMDL
MODEL      123
REMARK 921   NORMALIZED FREE ENERGY PREDICTED BY IDOCK:   -4.25 KCAL/MOL
REMARK 922        TOTAL FREE ENERGY PREDICTED BY IDOCK:   -5.65 KCAL/MOL
REMARK 923 INTER-LIGAND FREE ENERGY PREDICTED BY IDOCK:   -5.18 KCAL/MOL
REMARK 924 INTRA-LIGAND FREE ENERGY PREDICTED BY IDOCK:   -0.48 KCAL/MOL
REMARK 927      BINDING AFFINITY PREDICTED BY RF-SCORE:    0.00 PKD
ROOT
HETATM    1  C   UNL     1     -12.095  11.717  68.305  1.00  0.00    -0.067 C  
HETATM    2  C   UNL     1     -11.416  11.549  69.664  1.00  0.00    -0.301 A  
HETATM    3  C   UNL     1     -12.458  11.308  70.792  1.00  0.00    -0.471 A  
HETATM    4  C   UNL     1     -12.122   9.928  71.267  1.00  0.00    -0.485 A  
HETATM    5  C   UNL     1     -12.741   9.200  72.271  1.00  0.00    -0.447 A  
HETATM    6  C   UNL     1     -12.242   7.930  72.564  1.00  0.00    -0.245 A  
HETATM    7  C   UNL     1     -11.159   7.408  71.840  1.00  0.00    -0.276 A  
HETATM    8  C   UNL     1     -10.541   8.163  70.834  1.00  0.00    -0.236 A  
HETATM    9  C   UNL     1     -11.015   9.438  70.568  1.00  0.00    -0.274 A  
HETATM   10  N   UNL     1     -10.483  10.408  69.711  1.00  0.00    -0.254 NA 
ENDROOT
BRANCH  10  11
HETATM   11  N   UNL     1      -9.701  10.031  68.636  1.00  0.00    -0.154 N  
HETATM   12  C   UNL     1      -8.394  10.503  68.586  1.00  0.00    -0.132 C  
HETATM   13  H   UNL     1     -10.071   9.426  67.902  1.00  0.00     0.000 HD 
HETATM   14  O   UNL     1      -7.829  11.132  69.475  1.00  0.00    -0.012 OA 
BRANCH  12  15
HETATM   15  C   UNL     1      -7.694  10.294  67.289  1.00  0.00    -0.095 A  
HETATM   16  C   UNL     1      -8.412  10.485  66.101  1.00  0.00    -0.154 A  
HETATM   17  C   UNL     1      -7.827  10.165  64.864  1.00  0.00    -0.147 A  
HETATM   18  C   UNL     1      -6.517   9.681  64.812  1.00  0.00    -0.090 A  
HETATM   19  C   UNL     1      -6.364   9.869  67.232  1.00  0.00    -0.068 A  
HETATM   20 CL   UNL     1      -5.722   9.184  63.363  1.00  0.00    -0.081 Cl 
HETATM   21  C   UNL     1      -5.782   9.559  65.998  1.00  0.00    -0.049 A  
BRANCH  17  22
HETATM   22  S   UNL     1      -8.806  10.333  63.406  1.00  0.00    -0.245 S  
HETATM   23  O   UNL     1      -8.024  10.998  62.388  1.00  0.00    -0.172 OA 
HETATM   24  N   UNL     1      -8.965   8.757  62.854  1.00  0.00    -0.399 N  
HETATM   25  H1  UNL     1      -9.531   8.854  62.011  1.00  0.00     0.000 HD 
HETATM   26  O   UNL     1     -10.122  10.795  63.777  1.00  0.00    -0.322 OA 
HETATM   27  H2  UNL     1      -8.586   7.904  63.264  1.00  0.00     0.000 HD 
ENDBRANCH  17  22
ENDBRANCH  12  15
ENDBRANCH  10  11
TORSDOF 3
ENDMDL
MODEL      124
REMARK 921   NORMALIZED FREE ENERGY PREDICTED BY IDOCK:   -4.22 KCAL/MOL
REMARK 922        TOTAL FREE ENERGY PREDICTED BY IDOCK:   -5.62 KCAL/MOL
REMARK 923 INTER-LIGAND FREE ENERGY PREDICTED BY IDOCK:   -5.39 KCAL/MOL
REMARK 924 INTRA-LIGAND FREE ENERGY PREDICTED BY IDOCK:   -0.23 KCAL/MOL
REMARK 927      BINDING AFFINITY PREDICTED BY RF-SCORE:    0.00 PKD
ROOT
HETATM    1  C   UNL     1     -11.167  15.629  68.150  1.00  0.00    -0.345 C  
HETATM    2  C   UNL     1     -10.834  16.200  66.772  1.00  0.00    -0.162 A  
HETATM    3  C   UNL     1     -10.891  17.753  66.773  1.00  0.00    -0.016 A  
HETATM    4  C   UNL     1      -9.475  18.138  66.473  1.00  0.00    -0.307 A  
HETATM    5  C   UNL     1      -8.947  19.414  66.355  1.00  0.00    -0.395 A  
HETATM    6  C   UNL     1      -7.593  19.538  66.045  1.00  0.00    -0.326 A  
HETATM    7  C   UNL     1      -6.793  18.396  65.881  1.00  0.00    -0.317 A  
HETATM    8  C   UNL     1      -7.347  17.114  65.997  1.00  0.00    -0.170 A  
HETATM    9  C   UNL     1      -8.700  16.992  66.269  1.00  0.00    -0.250 A  
HETATM   10  N   UNL     1      -9.486  15.834  66.302  1.00  0.00    -0.289 NA 
ENDROOT
BRANCH  10  11
HETATM   11  N   UNL     1      -8.905  14.608  66.564  1.00  0.00    -0.446 N  
HETATM   12  C   UNL     1      -9.567  13.468  66.123  1.00  0.00    -0.204 C  
HETATM   13  H   UNL     1      -8.018  14.541  67.065  1.00  0.00     0.000 HD 
HETATM   14  O   UNL     1     -10.568  13.454  65.414  1.00  0.00    -0.286 OA 
BRANCH  12  15
HETATM   15  C   UNL     1      -9.044  12.182  66.662  1.00  0.00    -0.206 A  
HETATM   16  C   UNL     1      -9.860  11.436  67.524  1.00  0.00    -0.194 A  
HETATM   17  C   UNL     1      -9.352  10.291  68.160  1.00  0.00    -0.139 A  
HETATM   18  C   UNL     1      -8.040   9.876  67.915  1.00  0.00    -0.109 A  
HETATM   19  C   UNL     1      -7.754  11.732  66.369  1.00  0.00     0.126 A  
HETATM   20 CL   UNL     1      -7.285   8.534  68.694  1.00  0.00    -0.078 Cl 
HETATM   21  C   UNL     1      -7.255  10.587  66.999  1.00  0.00    -0.098 A  
BRANCH  17  22
HETATM   22  S   UNL     1     -10.387   9.442  69.309  1.00  0.00    -0.214 S  
HETATM   23  O   UNL     1      -9.968   9.771  70.653  1.00  0.00    -0.262 OA 
HETATM   24  N   UNL     1     -11.875  10.195  69.133  1.00  0.00    -0.495 N  
HETATM   25  H1  UNL     1     -12.473   9.704  69.797  1.00  0.00     0.000 HD 
HETATM   26  O   UNL     1     -10.542   8.074  68.875  1.00  0.00    -0.210 OA 
HETATM   27  H2  UNL     1     -12.123  10.963  68.509  1.00  0.00     0.000 HD 
ENDBRANCH  17  22
ENDBRANCH  12  15
ENDBRANCH  10  11
TORSDOF 3
ENDMDL
MODEL      125
REMARK 921   NORMALIZED FREE ENERGY PREDICTED BY IDOCK:   -4.21 KCAL/MOL
REMARK 922        TOTAL FREE ENERGY PREDICTED BY IDOCK:   -5.61 KCAL/MOL
REMARK 923 INTER-LIGAND FREE ENERGY PREDICTED BY IDOCK:   -4.99 KCAL/MOL
REMARK 924 INTRA-LIGAND FREE ENERGY PREDICTED BY IDOCK:   -0.62 KCAL/MOL
REMARK 927      BINDING AFFINITY PREDICTED BY RF-SCORE:    0.00 PKD
ROOT
HETATM    1  C   UNL     1      -8.542   7.926  65.116  1.00  0.00    -0.052 C  
HETATM    2  C   UNL     1      -8.278   9.319  65.686  1.00  0.00    -0.118 A  
HETATM    3  C   UNL     1      -8.592  10.427  64.642  1.00  0.00    -0.192 A  
HETATM    4  C   UNL     1      -9.723  11.174  65.279  1.00  0.00    -0.285 A  
HETATM    5  C   UNL     1     -10.404  12.273  64.780  1.00  0.00    -0.320 A  
HETATM    6  C   UNL     1     -11.419  12.826  65.561  1.00  0.00    -0.372 A  
HETATM    7  C   UNL     1     -11.745  12.264  66.805  1.00  0.00    -0.411 A  
HETATM    8  C   UNL     1     -11.039  11.158  67.297  1.00  0.00    -0.366 A  
HETATM    9  C   UNL     1     -10.008  10.631  66.535  1.00  0.00    -0.215 A  
HETATM   10  N   UNL     1      -9.095   9.625  66.874  1.00  0.00    -0.137 NA 
ENDROOT
BRANCH  10  11
HETATM   11  N   UNL     1      -9.427   8.677  67.824  1.00  0.00    -0.140 N  
HETATM   12  C   UNL     1      -8.543   8.476  68.877  1.00  0.00    -0.127 C  
HETATM   13  H   UNL     1     -10.293   8.142  67.754  1.00  0.00     0.000 HD 
HETATM   14  O   UNL     1      -7.544   9.149  69.109  1.00  0.00    -0.071 OA 
BRANCH  12  15
HETATM   15  C   UNL     1      -8.812   7.271  69.709  1.00  0.00    -0.142 A  
HETATM   16  C   UNL     1      -9.704   7.385  70.785  1.00  0.00    -0.171 A  
HETATM   17  C   UNL     1      -9.877   6.310  71.673  1.00  0.00    -0.165 A  
HETATM   18  C   UNL     1      -9.182   5.114  71.472  1.00  0.00    -0.146 A  
HETATM   19  C   UNL     1      -8.166   6.055  69.473  1.00  0.00    -0.115 A  
HETATM   20 CL   UNL     1      -9.256   3.757  72.536  1.00  0.00    -0.135 Cl 
HETATM   21  C   UNL     1      -8.347   4.985  70.355  1.00  0.00    -0.100 A  
BRANCH  17  22
HETATM   22  S   UNL     1     -10.936   6.536  73.065  1.00  0.00    -0.208 S  
HETATM   23  O   UNL     1     -10.128   6.670  74.256  1.00  0.00    -0.323 OA 
HETATM   24  N   UNL     1     -11.587   8.063  72.823  1.00  0.00    -0.527 N  
HETATM   25  H1  UNL     1     -12.200   8.194  73.628  1.00  0.00     0.000 HD 
HETATM   26  O   UNL     1     -12.021   5.588  72.986  1.00  0.00    -0.152 OA 
HETATM   27  H2  UNL     1     -11.412   8.708  72.053  1.00  0.00     0.000 HD 
ENDBRANCH  17  22
ENDBRANCH  12  15
ENDBRANCH  10  11
TORSDOF 3
ENDMDL
MODEL      126
REMARK 921   NORMALIZED FREE ENERGY PREDICTED BY IDOCK:   -4.19 KCAL/MOL
REMARK 922        TOTAL FREE ENERGY PREDICTED BY IDOCK:   -5.58 KCAL/MOL
REMARK 923 INTER-LIGAND FREE ENERGY PREDICTED BY IDOCK:   -5.04 KCAL/MOL
REMARK 924 INTRA-LIGAND FREE ENERGY PREDICTED BY IDOCK:   -0.55 KCAL/MOL
REMARK 927      BINDING AFFINITY PREDICTED BY RF-SCORE:    0.00 PKD
ROOT
HETATM    1  C   UNL     1     -11.847   8.046  72.649  1.00  0.00    -0.380 C  
HETATM    2  C   UNL     1     -10.547   7.296  72.933  1.00  0.00    -0.301 A  
HETATM    3  C   UNL     1     -10.811   5.973  73.705  1.00  0.00    -0.171 A  
HETATM    4  C   UNL     1     -10.355   4.926  72.736  1.00  0.00    -0.240 A  
HETATM    5  C   UNL     1     -10.365   3.550  72.905  1.00  0.00    -0.246 A  
HETATM    6  C   UNL     1      -9.867   2.758  71.870  1.00  0.00    -0.229 A  
HETATM    7  C   UNL     1      -9.392   3.349  70.689  1.00  0.00    -0.232 A  
HETATM    8  C   UNL     1      -9.383   4.742  70.540  1.00  0.00    -0.219 A  
HETATM    9  C   UNL     1      -9.845   5.529  71.583  1.00  0.00    -0.173 A  
HETATM   10  N   UNL     1      -9.813   6.923  71.709  1.00  0.00    -0.164 NA 
ENDROOT
BRANCH  10  11
HETATM   11  N   UNL     1      -9.774   7.722  70.582  1.00  0.00    -0.177 N  
HETATM   12  C   UNL     1      -8.864   8.773  70.562  1.00  0.00    -0.176 C  
HETATM   13  H   UNL     1     -10.392   7.546  69.790  1.00  0.00     0.000 HD 
HETATM   14  O   UNL     1      -8.004   8.988  71.411  1.00  0.00    -0.264 OA 
BRANCH  12  15
HETATM   15  C   UNL     1      -9.050   9.752  69.456  1.00  0.00    -0.227 A  
HETATM   16  C   UNL     1      -8.164  10.834  69.364  1.00  0.00    -0.035 A  
HETATM   17  C   UNL     1      -8.390  11.850  68.420  1.00  0.00    -0.157 A  
HETATM   18  C   UNL     1      -9.483  11.772  67.552  1.00  0.00    -0.174 A  
HETATM   19  C   UNL     1     -10.106   9.643  68.548  1.00  0.00    -0.195 A  
HETATM   20 CL   UNL     1      -9.903  12.993  66.407  1.00  0.00    -0.265 Cl 
HETATM   21  C   UNL     1     -10.323  10.653  67.605  1.00  0.00    -0.246 A  
BRANCH  17  22
HETATM   22  S   UNL     1      -7.302  13.239  68.407  1.00  0.00    -0.119 S  
HETATM   23  O   UNL     1      -8.066  14.439  68.658  1.00  0.00    -0.141 OA 
HETATM   24  N   UNL     1      -6.378  13.029  69.791  1.00  0.00    -0.269 N  
HETATM   25  H1  UNL     1      -5.748  13.832  69.784  1.00  0.00     0.000 HD 
HETATM   26  O   UNL     1      -6.414  13.126  67.275  1.00  0.00    -0.238 OA 
HETATM   27  H2  UNL     1      -6.432  12.277  70.477  1.00  0.00     0.000 HD 
ENDBRANCH  17  22
ENDBRANCH  12  15
ENDBRANCH  10  11
TORSDOF 3
ENDMDL
MODEL      127
REMARK 921   NORMALIZED FREE ENERGY PREDICTED BY IDOCK:   -4.17 KCAL/MOL
REMARK 922        TOTAL FREE ENERGY PREDICTED BY IDOCK:   -5.57 KCAL/MOL
REMARK 923 INTER-LIGAND FREE ENERGY PREDICTED BY IDOCK:   -5.02 KCAL/MOL
REMARK 924 INTRA-LIGAND FREE ENERGY PREDICTED BY IDOCK:   -0.55 KCAL/MOL
REMARK 927      BINDING AFFINITY PREDICTED BY RF-SCORE:    0.00 PKD
ROOT
HETATM    1  C   UNL     1      -6.817  10.007  70.029  1.00  0.00    -0.126 C  
HETATM    2  C   UNL     1      -6.808   8.729  69.191  1.00  0.00    -0.055 A  
HETATM    3  C   UNL     1      -6.546   7.476  70.072  1.00  0.00    -0.042 A  
HETATM    4  C   UNL     1      -7.816   6.696  69.927  1.00  0.00    -0.115 A  
HETATM    5  C   UNL     1      -8.138   5.479  70.507  1.00  0.00    -0.104 A  
HETATM    6  C   UNL     1      -9.382   4.920  70.213  1.00  0.00    -0.216 A  
HETATM    7  C   UNL     1     -10.281   5.591  69.371  1.00  0.00    -0.329 A  
HETATM    8  C   UNL     1      -9.935   6.817  68.787  1.00  0.00    -0.149 A  
HETATM    9  C   UNL     1      -8.686   7.355  69.052  1.00  0.00    -0.133 A  
HETATM   10  N   UNL     1      -8.081   8.485  68.490  1.00  0.00    -0.120 NA 
ENDROOT
BRANCH  10  11
HETATM   11  N   UNL     1      -8.859   9.501  67.967  1.00  0.00    -0.124 N  
HETATM   12  C   UNL     1      -9.073   9.515  66.594  1.00  0.00    -0.148 C  
HETATM   13  H   UNL     1      -9.265  10.218  68.570  1.00  0.00     0.000 HD 
HETATM   14  O   UNL     1      -8.729   8.636  65.809  1.00  0.00    -0.161 OA 
BRANCH  12  15
HETATM   15  C   UNL     1      -9.680  10.764  66.059  1.00  0.00    -0.264 A  
HETATM   16  C   UNL     1     -10.036  11.776  66.962  1.00  0.00    -0.224 A  
HETATM   17  C   UNL     1     -10.735  12.909  66.512  1.00  0.00    -0.269 A  
HETATM   18  C   UNL     1     -11.055  13.043  65.158  1.00  0.00    -0.292 A  
HETATM   19  C   UNL     1      -9.945  10.929  64.697  1.00  0.00    -0.369 A  
HETATM   20 CL   UNL     1     -11.974  14.349  64.502  1.00  0.00    -0.472 Cl 
HETATM   21  C   UNL     1     -10.635  12.062  64.252  1.00  0.00    -0.377 A  
BRANCH  17  22
HETATM   22  S   UNL     1     -11.244  14.107  67.702  1.00  0.00    -0.311 S  
HETATM   23  O   UNL     1     -12.598  13.817  68.114  1.00  0.00     0.108 OA 
HETATM   24  N   UNL     1     -10.307  13.751  69.046  1.00  0.00    -0.420 N  
HETATM   25  H1  UNL     1     -10.602  14.445  69.734  1.00  0.00     0.000 HD 
HETATM   26  O   UNL     1     -10.855  15.418  67.240  1.00  0.00    -0.306 OA 
HETATM   27  H2  UNL     1      -9.608  13.016  69.151  1.00  0.00     0.000 HD 
ENDBRANCH  17  22
ENDBRANCH  12  15
ENDBRANCH  10  11
TORSDOF 3
ENDMDL
MODEL      128
REMARK 921   NORMALIZED FREE ENERGY PREDICTED BY IDOCK:   -4.16 KCAL/MOL
REMARK 922        TOTAL FREE ENERGY PREDICTED BY IDOCK:   -5.55 KCAL/MOL
REMARK 923 INTER-LIGAND FREE ENERGY PREDICTED BY IDOCK:   -5.19 KCAL/MOL
REMARK 924 INTRA-LIGAND FREE ENERGY PREDICTED BY IDOCK:   -0.36 KCAL/MOL
REMARK 927      BINDING AFFINITY PREDICTED BY RF-SCORE:    0.00 PKD
ROOT
HETATM    1  C   UNL     1      -7.927  13.107  68.191  1.00  0.00    -0.154 C  
HETATM    2  C   UNL     1      -9.363  13.627  68.139  1.00  0.00    -0.212 A  
HETATM    3  C   UNL     1      -9.466  15.067  68.713  1.00  0.00    -0.210 A  
HETATM    4  C   UNL     1      -9.903  15.868  67.525  1.00  0.00    -0.230 A  
HETATM    5  C   UNL     1     -10.151  17.231  67.463  1.00  0.00    -0.315 A  
HETATM    6  C   UNL     1     -10.573  17.766  66.245  1.00  0.00    -0.220 A  
HETATM    7  C   UNL     1     -10.718  16.942  65.119  1.00  0.00    -0.118 A  
HETATM    8  C   UNL     1     -10.470  15.565  65.204  1.00  0.00    -0.431 A  
HETATM    9  C   UNL     1     -10.085  15.029  66.422  1.00  0.00    -0.276 A  
HETATM   10  N   UNL     1      -9.910  13.685  66.771  1.00  0.00    -0.263 NA 
ENDROOT
BRANCH  10  11
HETATM   11  N   UNL     1      -9.609  12.749  65.800  1.00  0.00    -0.444 N  
HETATM   12  C   UNL     1     -10.286  11.536  65.834  1.00  0.00    -0.247 C  
HETATM   13  H   UNL     1      -8.912  12.942  65.080  1.00  0.00     0.000 HD 
HETATM   14  O   UNL     1     -11.219  11.261  66.583  1.00  0.00    -0.284 OA 
BRANCH  12  15
HETATM   15  C   UNL     1      -9.736  10.476  64.945  1.00  0.00    -0.360 A  
HETATM   16  C   UNL     1      -9.341   9.259  65.517  1.00  0.00    -0.303 A  
HETATM   17  C   UNL     1      -8.692   8.290  64.734  1.00  0.00     0.070 A  
HETATM   18  C   UNL     1      -8.463   8.524  63.376  1.00  0.00    -0.035 A  
HETATM   19  C   UNL     1      -9.563  10.684  63.574  1.00  0.00    -0.366 A  
HETATM   20 CL   UNL     1      -7.611   7.443  62.334  1.00  0.00    -0.100 Cl 
HETATM   21  C   UNL     1      -8.924   9.713  62.796  1.00  0.00    -0.264 A  
BRANCH  17  22
HETATM   22  S   UNL     1      -8.128   6.816  65.522  1.00  0.00    -0.131 S  
HETATM   23  O   UNL     1      -8.449   5.682  64.686  1.00  0.00    -0.138 OA 
HETATM   24  N   UNL     1      -6.458   6.940  65.444  1.00  0.00    -0.045 N  
HETATM   25  H1  UNL     1      -6.132   6.087  65.901  1.00  0.00     0.000 HD 
HETATM   26  O   UNL     1      -8.499   6.861  66.917  1.00  0.00    -0.112 OA 
HETATM   27  H2  UNL     1      -5.900   7.690  65.038  1.00  0.00     0.000 HD 
ENDBRANCH  17  22
ENDBRANCH  12  15
ENDBRANCH  10  11
TORSDOF 3
ENDMDL
MODEL      129
REMARK 921   NORMALIZED FREE ENERGY PREDICTED BY IDOCK:   -4.16 KCAL/MOL
REMARK 922        TOTAL FREE ENERGY PREDICTED BY IDOCK:   -5.55 KCAL/MOL
REMARK 923 INTER-LIGAND FREE ENERGY PREDICTED BY IDOCK:   -5.12 KCAL/MOL
REMARK 924 INTRA-LIGAND FREE ENERGY PREDICTED BY IDOCK:   -0.42 KCAL/MOL
REMARK 927      BINDING AFFINITY PREDICTED BY RF-SCORE:    0.00 PKD
ROOT
HETATM    1  C   UNL     1     -11.280   7.307  70.164  1.00  0.00    -0.264 C  
HETATM    2  C   UNL     1     -10.772   8.470  71.015  1.00  0.00    -0.228 A  
HETATM    3  C   UNL     1     -10.416   8.007  72.455  1.00  0.00    -0.368 A  
HETATM    4  C   UNL     1      -8.942   8.257  72.530  1.00  0.00    -0.305 A  
HETATM    5  C   UNL     1      -8.093   8.021  73.601  1.00  0.00    -0.263 A  
HETATM    6  C   UNL     1      -6.746   8.354  73.455  1.00  0.00    -0.127 A  
HETATM    7  C   UNL     1      -6.272   8.891  72.248  1.00  0.00    -0.035 A  
HETATM    8  C   UNL     1      -7.148   9.130  71.180  1.00  0.00    -0.088 A  
HETATM    9  C   UNL     1      -8.492   8.832  71.338  1.00  0.00    -0.188 A  
HETATM   10  N   UNL     1      -9.556   9.100  70.469  1.00  0.00    -0.223 NA 
ENDROOT
BRANCH  10  11
HETATM   11  N   UNL     1      -9.326   9.245  69.114  1.00  0.00    -0.154 N  
HETATM   12  C   UNL     1      -9.870  10.355  68.478  1.00  0.00    -0.167 C  
HETATM   13  H   UNL     1      -8.776   8.559  68.597  1.00  0.00     0.000 HD 
HETATM   14  O   UNL     1     -10.440  11.288  69.034  1.00  0.00    -0.212 OA 
BRANCH  12  15
HETATM   15  C   UNL     1      -9.824  10.319  66.990  1.00  0.00    -0.238 A  
HETATM   16  C   UNL     1      -8.889   9.479  66.369  1.00  0.00    -0.164 A  
HETATM   17  C   UNL     1      -8.722   9.521  64.974  1.00  0.00    -0.177 A  
HETATM   18  C   UNL     1      -9.507  10.379  64.199  1.00  0.00    -0.300 A  
HETATM   19  C   UNL     1     -10.651  11.131  66.209  1.00  0.00    -0.309 A  
HETATM   20 CL   UNL     1      -9.340  10.571  62.492  1.00  0.00    -0.307 Cl 
HETATM   21  C   UNL     1     -10.487  11.163  64.820  1.00  0.00    -0.388 A  
BRANCH  17  22
HETATM   22  S   UNL     1      -7.466   8.515  64.250  1.00  0.00    -0.118 S  
HETATM   23  O   UNL     1      -6.767   7.807  65.298  1.00  0.00    -0.047 OA 
HETATM   24  N   UNL     1      -8.329   7.327  63.440  1.00  0.00    -0.361 N  
HETATM   25  H1  UNL     1      -7.603   6.746  63.021  1.00  0.00     0.000 HD 
HETATM   26  O   UNL     1      -6.763   9.291  63.256  1.00  0.00    -0.091 OA 
HETATM   27  H2  UNL     1      -9.341   7.213  63.380  1.00  0.00     0.000 HD 
ENDBRANCH  17  22
ENDBRANCH  12  15
ENDBRANCH  10  11
TORSDOF 3
ENDMDL
MODEL      130
REMARK 921   NORMALIZED FREE ENERGY PREDICTED BY IDOCK:   -4.12 KCAL/MOL
REMARK 922        TOTAL FREE ENERGY PREDICTED BY IDOCK:   -5.51 KCAL/MOL
REMARK 923 INTER-LIGAND FREE ENERGY PREDICTED BY IDOCK:   -5.02 KCAL/MOL
REMARK 924 INTRA-LIGAND FREE ENERGY PREDICTED BY IDOCK:   -0.49 KCAL/MOL
REMARK 927      BINDING AFFINITY PREDICTED BY RF-SCORE:    0.00 PKD
ROOT
HETATM    1  C   UNL     1      -9.709  12.333  64.547  1.00  0.00    -0.018 C  
HETATM    2  C   UNL     1     -10.755  11.809  65.529  1.00  0.00    -0.279 A  
HETATM    3  C   UNL     1     -10.857  10.259  65.475  1.00  0.00     0.293 A  
HETATM    4  C   UNL     1     -10.420   9.849  66.847  1.00  0.00    -0.284 A  
HETATM    5  C   UNL     1     -10.316   8.564  67.358  1.00  0.00    -0.356 A  
HETATM    6  C   UNL     1      -9.905   8.416  68.683  1.00  0.00    -0.180 A  
HETATM    7  C   UNL     1      -9.588   9.542  69.459  1.00  0.00    -0.198 A  
HETATM    8  C   UNL     1      -9.707  10.833  68.927  1.00  0.00    -0.207 A  
HETATM    9  C   UNL     1     -10.149  10.981  67.622  1.00  0.00    -0.182 A  
HETATM   10  N   UNL     1     -10.462  12.157  66.931  1.00  0.00    -0.222 NA 
ENDROOT
BRANCH  10  11
HETATM   11  N   UNL     1      -9.885  13.356  67.304  1.00  0.00    -0.229 N  
HETATM   12  C   UNL     1     -10.725  14.441  67.526  1.00  0.00    -0.271 C  
HETATM   13  H   UNL     1      -8.873  13.442  67.412  1.00  0.00     0.000 HD 
HETATM   14  O   UNL     1     -11.952  14.402  67.536  1.00  0.00    -0.384 OA 
BRANCH  12  15
HETATM   15  C   UNL     1     -10.041  15.757  67.656  1.00  0.00    -0.247 A  
HETATM   16  C   UNL     1      -8.656  15.773  67.875  1.00  0.00    -0.160 A  
HETATM   17  C   UNL     1      -7.999  16.987  68.139  1.00  0.00    -0.206 A  
HETATM   18  C   UNL     1      -8.720  18.185  68.158  1.00  0.00    -0.277 A  
HETATM   19  C   UNL     1     -10.749  16.961  67.613  1.00  0.00    -0.290 A  
HETATM   20 CL   UNL     1      -8.037  19.722  68.545  1.00  0.00    -0.322 Cl 
HETATM   21  C   UNL     1     -10.090  18.167  67.869  1.00  0.00    -0.366 A  
BRANCH  17  22
HETATM   22  S   UNL     1      -6.274  16.944  68.503  1.00  0.00    -0.150 S  
HETATM   23  O   UNL     1      -5.786  15.596  68.316  1.00  0.00    -0.101 OA 
HETATM   24  N   UNL     1      -5.584  17.821  67.252  1.00  0.00    -0.134 N  
HETATM   25  H1  UNL     1      -4.586  17.797  67.463  1.00  0.00     0.000 HD 
HETATM   26  O   UNL     1      -6.036  17.675  69.725  1.00  0.00    -0.246 OA 
HETATM   27  H2  UNL     1      -6.051  18.273  66.466  1.00  0.00     0.000 HD 
ENDBRANCH  17  22
ENDBRANCH  12  15
ENDBRANCH  10  11
TORSDOF 3
ENDMDL
MODEL      131
REMARK 921   NORMALIZED FREE ENERGY PREDICTED BY IDOCK:   -4.12 KCAL/MOL
REMARK 922        TOTAL FREE ENERGY PREDICTED BY IDOCK:   -5.50 KCAL/MOL
REMARK 923 INTER-LIGAND FREE ENERGY PREDICTED BY IDOCK:   -6.10 KCAL/MOL
REMARK 924 INTRA-LIGAND FREE ENERGY PREDICTED BY IDOCK:    0.60 KCAL/MOL
REMARK 927      BINDING AFFINITY PREDICTED BY RF-SCORE:    0.00 PKD
ROOT
HETATM    1  C   UNL     1      -9.491  11.765  64.695  1.00  0.00    -0.009 C  
HETATM    2  C   UNL     1     -10.652  11.266  65.554  1.00  0.00    -0.246 A  
HETATM    3  C   UNL     1     -10.533   9.743  65.840  1.00  0.00    -0.028 A  
HETATM    4  C   UNL     1     -10.365   9.696  67.328  1.00  0.00    -0.310 A  
HETATM    5  C   UNL     1     -10.209   8.578  68.131  1.00  0.00    -0.254 A  
HETATM    6  C   UNL     1     -10.090   8.769  69.508  1.00  0.00    -0.202 A  
HETATM    7  C   UNL     1     -10.107  10.064  70.049  1.00  0.00    -0.289 A  
HETATM    8  C   UNL     1     -10.274  11.183  69.221  1.00  0.00    -0.110 A  
HETATM    9  C   UNL     1     -10.427  10.989  67.858  1.00  0.00    -0.192 A  
HETATM   10  N   UNL     1     -10.730  11.930  66.868  1.00  0.00    -0.236 NA 
ENDROOT
BRANCH  10  11
HETATM   11  N   UNL     1     -10.415  13.263  67.057  1.00  0.00    -0.248 N  
HETATM   12  C   UNL     1      -9.081  13.591  67.271  1.00  0.00    -0.225 C  
HETATM   13  H   UNL     1     -11.138  13.983  67.041  1.00  0.00     0.000 HD 
HETATM   14  O   UNL     1      -8.134  12.815  67.190  1.00  0.00    -0.176 OA 
BRANCH  12  15
HETATM   15  C   UNL     1      -8.837  14.985  67.734  1.00  0.00    -0.172 A  
HETATM   16  C   UNL     1      -9.423  16.040  67.020  1.00  0.00    -0.230 A  
HETATM   17  C   UNL     1      -9.105  17.370  67.343  1.00  0.00    -0.236 A  
HETATM   18  C   UNL     1      -8.226  17.647  68.393  1.00  0.00    -0.289 A  
HETATM   19  C   UNL     1      -8.007  15.263  68.823  1.00  0.00    -0.158 A  
HETATM   20 CL   UNL     1      -7.704  19.233  68.830  1.00  0.00    -0.391 Cl 
HETATM   21  C   UNL     1      -7.700  16.589  69.145  1.00  0.00    -0.205 A  
BRANCH  17  22
HETATM   22  S   UNL     1      -9.793  18.659  66.354  1.00  0.00    -0.363 S  
HETATM   23  O   UNL     1     -10.748  18.087  65.432  1.00  0.00    -0.632 OA 
HETATM   24  N   UNL     1     -10.726  19.535  67.438  1.00  0.00    -0.483 N  
HETATM   25  H1  UNL     1     -11.123  20.280  66.866  1.00  0.00     0.000 HD 
HETATM   26  O   UNL     1      -8.728  19.523  65.905  1.00  0.00    -0.417 OA 
HETATM   27  H2  UNL     1     -10.862  19.363  68.434  1.00  0.00     0.000 HD 
ENDBRANCH  17  22
ENDBRANCH  12  15
ENDBRANCH  10  11
TORSDOF 3
ENDMDL
MODEL      132
REMARK 921   NORMALIZED FREE ENERGY PREDICTED BY IDOCK:   -4.11 KCAL/MOL
REMARK 922        TOTAL FREE ENERGY PREDICTED BY IDOCK:   -5.50 KCAL/MOL
REMARK 923 INTER-LIGAND FREE ENERGY PREDICTED BY IDOCK:   -6.39 KCAL/MOL
REMARK 924 INTRA-LIGAND FREE ENERGY PREDICTED BY IDOCK:    0.90 KCAL/MOL
REMARK 927      BINDING AFFINITY PREDICTED BY RF-SCORE:    0.00 PKD
ROOT
HETATM    1  C   UNL     1     -12.176  11.333  70.190  1.00  0.00    -0.410 C  
HETATM    2  C   UNL     1     -10.808  10.669  70.045  1.00  0.00    -0.217 A  
HETATM    3  C   UNL     1     -10.943   9.139  69.806  1.00  0.00    -0.195 A  
HETATM    4  C   UNL     1     -10.365   8.964  68.436  1.00  0.00    -0.237 A  
HETATM    5  C   UNL     1     -10.233   7.789  67.713  1.00  0.00    -0.271 A  
HETATM    6  C   UNL     1      -9.640   7.857  66.452  1.00  0.00    -0.251 A  
HETATM    7  C   UNL     1      -9.213   9.090  65.933  1.00  0.00    -0.290 A  
HETATM    8  C   UNL     1      -9.348  10.266  66.683  1.00  0.00    -0.192 A  
HETATM    9  C   UNL     1      -9.905  10.191  67.949  1.00  0.00    -0.151 A  
HETATM   10  N   UNL     1     -10.022  11.197  68.915  1.00  0.00    -0.197 NA 
ENDROOT
BRANCH  10  11
HETATM   11  N   UNL     1     -10.051  12.526  68.535  1.00  0.00    -0.311 N  
HETATM   12  C   UNL     1     -10.950  12.898  67.542  1.00  0.00    -0.255 C  
HETATM   13  H   UNL     1      -9.433  13.212  68.969  1.00  0.00     0.000 HD 
HETATM   14  O   UNL     1     -11.809  12.173  67.049  1.00  0.00    -0.547 OA 
BRANCH  12  15
HETATM   15  C   UNL     1     -10.752  14.264  66.986  1.00  0.00    -0.290 A  
HETATM   16  C   UNL     1     -10.521  15.323  67.877  1.00  0.00    -0.253 A  
HETATM   17  C   UNL     1     -10.467  16.644  67.402  1.00  0.00    -0.314 A  
HETATM   18  C   UNL     1     -10.615  16.905  66.037  1.00  0.00    -0.218 A  
HETATM   19  C   UNL     1     -10.837  14.521  65.615  1.00  0.00    -0.329 A  
HETATM   20 CL   UNL     1     -10.642  18.488  65.350  1.00  0.00    -0.049 Cl 
HETATM   21  C   UNL     1     -10.774  15.837  65.146  1.00  0.00    -0.455 A  
BRANCH  17  22
HETATM   22  S   UNL     1     -10.271  17.948  68.574  1.00  0.00    -0.375 S  
HETATM   23  O   UNL     1     -10.627  17.459  69.887  1.00  0.00     0.009 OA 
HETATM   24  N   UNL     1      -8.610  18.172  68.642  1.00  0.00    -0.296 N  
HETATM   25  H1  UNL     1      -8.497  18.926  69.320  1.00  0.00     0.000 HD 
HETATM   26  O   UNL     1     -10.847  19.155  68.030  1.00  0.00    -0.298 OA 
HETATM   27  H2  UNL     1      -7.885  17.673  68.127  1.00  0.00     0.000 HD 
ENDBRANCH  17  22
ENDBRANCH  12  15
ENDBRANCH  10  11
TORSDOF 3
ENDMDL
MODEL      133
REMARK 921   NORMALIZED FREE ENERGY PREDICTED BY IDOCK:   -4.10 KCAL/MOL
REMARK 922        TOTAL FREE ENERGY PREDICTED BY IDOCK:   -5.48 KCAL/MOL
REMARK 923 INTER-LIGAND FREE ENERGY PREDICTED BY IDOCK:   -6.16 KCAL/MOL
REMARK 924 INTRA-LIGAND FREE ENERGY PREDICTED BY IDOCK:    0.67 KCAL/MOL
REMARK 927      BINDING AFFINITY PREDICTED BY RF-SCORE:    0.00 PKD
ROOT
HETATM    1  C   UNL     1      -5.931  16.657  68.154  1.00  0.00    -0.126 C  
HETATM    2  C   UNL     1      -6.966  17.394  69.003  1.00  0.00    -0.238 A  
HETATM    3  C   UNL     1      -6.741  18.931  68.963  1.00  0.00    -0.324 A  
HETATM    4  C   UNL     1      -7.989  19.434  68.306  1.00  0.00    -0.366 A  
HETATM    5  C   UNL     1      -8.326  20.746  68.013  1.00  0.00     0.197 A  
HETATM    6  C   UNL     1      -9.563  20.987  67.413  1.00  0.00    -0.261 A  
HETATM    7  C   UNL     1     -10.422  19.922  67.102  1.00  0.00    -0.566 A  
HETATM    8  C   UNL     1     -10.067  18.603  67.414  1.00  0.00    -0.397 A  
HETATM    9  C   UNL     1      -8.854  18.368  68.041  1.00  0.00    -0.287 A  
HETATM   10  N   UNL     1      -8.353  17.167  68.556  1.00  0.00    -0.254 NA 
ENDROOT
BRANCH  10  11
HETATM   11  N   UNL     1      -8.791  15.957  68.049  1.00  0.00    -0.176 N  
HETATM   12  C   UNL     1      -8.911  15.836  66.670  1.00  0.00    -0.280 C  
HETATM   13  H   UNL     1      -9.018  15.179  68.668  1.00  0.00     0.000 HD 
HETATM   14  O   UNL     1      -8.550  16.671  65.846  1.00  0.00    -0.473 OA 
BRANCH  12  15
HETATM   15  C   UNL     1      -9.636  14.624  66.200  1.00  0.00    -0.336 A  
HETATM   16  C   UNL     1      -9.819  13.563  67.098  1.00  0.00    -0.245 A  
HETATM   17  C   UNL     1     -10.375  12.351  66.654  1.00  0.00    -0.226 A  
HETATM   18  C   UNL     1     -10.773  12.209  65.322  1.00  0.00    -0.288 A  
HETATM   19  C   UNL     1     -10.092  14.502  64.885  1.00  0.00    -0.245 A  
HETATM   20 CL   UNL     1     -11.396  10.748  64.646  1.00  0.00     0.430 Cl 
HETATM   21  C   UNL     1     -10.652  13.297  64.449  1.00  0.00    -0.438 A  
BRANCH  17  22
HETATM   22  S   UNL     1     -10.495  11.015  67.799  1.00  0.00    -0.212 S  
HETATM   23  O   UNL     1      -9.528  10.001  67.444  1.00  0.00    -0.149 OA 
HETATM   24  N   UNL     1      -9.917  11.668  69.231  1.00  0.00    -0.400 N  
HETATM   25  H1  UNL     1      -9.986  10.895  69.893  1.00  0.00     0.000 HD 
HETATM   26  O   UNL     1     -11.889  10.698  68.002  1.00  0.00    -0.494 OA 
HETATM   27  H2  UNL     1      -9.576  12.614  69.400  1.00  0.00     0.000 HD 
ENDBRANCH  17  22
ENDBRANCH  12  15
ENDBRANCH  10  11
TORSDOF 3
ENDMDL
MODEL      134
REMARK 921   NORMALIZED FREE ENERGY PREDICTED BY IDOCK:   -4.08 KCAL/MOL
REMARK 922        TOTAL FREE ENERGY PREDICTED BY IDOCK:   -5.46 KCAL/MOL
REMARK 923 INTER-LIGAND FREE ENERGY PREDICTED BY IDOCK:   -4.96 KCAL/MOL
REMARK 924 INTRA-LIGAND FREE ENERGY PREDICTED BY IDOCK:   -0.50 KCAL/MOL
REMARK 927      BINDING AFFINITY PREDICTED BY RF-SCORE:    0.00 PKD
ROOT
HETATM    1  C   UNL     1      -8.277   6.217  68.666  1.00  0.00    -0.112 C  
HETATM    2  C   UNL     1      -9.675   6.136  69.276  1.00  0.00    -0.137 A  
HETATM    3  C   UNL     1      -9.825   4.886  70.187  1.00  0.00    -0.309 A  
HETATM    4  C   UNL     1     -10.060   5.486  71.539  1.00  0.00    -0.260 A  
HETATM    5  C   UNL     1     -10.261   4.823  72.740  1.00  0.00    -0.232 A  
HETATM    6  C   UNL     1     -10.484   5.591  73.884  1.00  0.00    -0.308 A  
HETATM    7  C   UNL     1     -10.483   6.992  73.811  1.00  0.00    -0.392 A  
HETATM    8  C   UNL     1     -10.287   7.644  72.586  1.00  0.00    -0.332 A  
HETATM    9  C   UNL     1     -10.099   6.880  71.445  1.00  0.00    -0.185 A  
HETATM   10  N   UNL     1     -10.013   7.302  70.113  1.00  0.00    -0.183 NA 
ENDROOT
BRANCH  10  11
HETATM   11  N   UNL     1      -9.596   8.586  69.817  1.00  0.00    -0.169 N  
HETATM   12  C   UNL     1     -10.569   9.531  69.513  1.00  0.00    -0.221 C  
HETATM   13  H   UNL     1      -8.606   8.833  69.822  1.00  0.00     0.000 HD 
HETATM   14  O   UNL     1     -11.781   9.360  69.598  1.00  0.00     0.091 OA 
BRANCH  12  15
HETATM   15  C   UNL     1     -10.057  10.808  68.944  1.00  0.00    -0.217 A  
HETATM   16  C   UNL     1     -10.610  12.014  69.398  1.00  0.00     0.108 A  
HETATM   17  C   UNL     1     -10.251  13.228  68.788  1.00  0.00    -0.109 A  
HETATM   18  C   UNL     1      -9.322  13.241  67.744  1.00  0.00    -0.209 A  
HETATM   19  C   UNL     1      -9.082  10.829  67.943  1.00  0.00    -0.150 A  
HETATM   20 CL   UNL     1      -8.863  14.657  66.871  1.00  0.00    -0.260 Cl 
HETATM   21  C   UNL     1      -8.723  12.040  67.343  1.00  0.00    -0.170 A  
BRANCH  17  22
HETATM   22  S   UNL     1     -11.046  14.705  69.332  1.00  0.00    -0.270 S  
HETATM   23  O   UNL     1     -12.181  14.972  68.478  1.00  0.00    -0.189 OA 
HETATM   24  N   UNL     1     -11.719  14.273  70.806  1.00  0.00    -0.485 N  
HETATM   25  H1  UNL     1     -12.178  15.128  71.121  1.00  0.00     0.000 HD 
HETATM   26  O   UNL     1     -10.041  15.707  69.594  1.00  0.00    -0.262 OA 
HETATM   27  H2  UNL     1     -11.677  13.369  71.277  1.00  0.00     0.000 HD 
ENDBRANCH  17  22
ENDBRANCH  12  15
ENDBRANCH  10  11
TORSDOF 3
ENDMDL
MODEL      135
REMARK 921   NORMALIZED FREE ENERGY PREDICTED BY IDOCK:   -4.08 KCAL/MOL
REMARK 922        TOTAL FREE ENERGY PREDICTED BY IDOCK:   -5.46 KCAL/MOL
REMARK 923 INTER-LIGAND FREE ENERGY PREDICTED BY IDOCK:   -6.04 KCAL/MOL
REMARK 924 INTRA-LIGAND FREE ENERGY PREDICTED BY IDOCK:    0.58 KCAL/MOL
REMARK 927      BINDING AFFINITY PREDICTED BY RF-SCORE:    0.00 PKD
ROOT
HETATM    1  C   UNL     1      -5.727  17.739  68.795  1.00  0.00    -0.176 C  
HETATM    2  C   UNL     1      -7.093  18.300  69.190  1.00  0.00    -0.186 A  
HETATM    3  C   UNL     1      -7.370  19.660  68.490  1.00  0.00    -0.371 A  
HETATM    4  C   UNL     1      -8.555  19.353  67.626  1.00  0.00    -0.343 A  
HETATM    5  C   UNL     1      -9.230  20.212  66.773  1.00  0.00    -0.487 A  
HETATM    6  C   UNL     1     -10.331  19.713  66.076  1.00  0.00    -0.620 A  
HETATM    7  C   UNL     1     -10.721  18.374  66.227  1.00  0.00    -0.214 A  
HETATM    8  C   UNL     1     -10.031  17.523  67.102  1.00  0.00    -0.314 A  
HETATM    9  C   UNL     1      -8.959  18.029  67.820  1.00  0.00    -0.255 A  
HETATM   10  N   UNL     1      -8.213  17.411  68.830  1.00  0.00    -0.257 NA 
ENDROOT
BRANCH  10  11
HETATM   11  N   UNL     1      -8.128  16.033  68.887  1.00  0.00    -0.204 N  
HETATM   12  C   UNL     1      -7.744  15.357  67.734  1.00  0.00    -0.145 C  
HETATM   13  H   UNL     1      -8.339  15.527  69.748  1.00  0.00     0.000 HD 
HETATM   14  O   UNL     1      -7.358  15.883  66.694  1.00  0.00    -0.166 OA 
BRANCH  12  15
HETATM   15  C   UNL     1      -7.931  13.881  67.773  1.00  0.00    -0.174 A  
HETATM   16  C   UNL     1      -9.179  13.373  68.161  1.00  0.00    -0.215 A  
HETATM   17  C   UNL     1      -9.351  11.990  68.342  1.00  0.00    -0.175 A  
HETATM   18  C   UNL     1      -8.288  11.114  68.109  1.00  0.00    -0.136 A  
HETATM   19  C   UNL     1      -6.887  13.000  67.479  1.00  0.00    -0.156 A  
HETATM   20 CL   UNL     1      -8.359   9.410  68.370  1.00  0.00    -0.118 Cl 
HETATM   21  C   UNL     1      -7.065  11.624  67.653  1.00  0.00    -0.095 A  
BRANCH  17  22
HETATM   22  S   UNL     1     -10.912  11.410  68.925  1.00  0.00    -0.243 S  
HETATM   23  O   UNL     1     -11.879  12.479  68.826  1.00  0.00    -0.306 OA 
HETATM   24  N   UNL     1     -11.383  10.304  67.756  1.00  0.00    -0.446 N  
HETATM   25  H1  UNL     1     -12.286   9.968  68.093  1.00  0.00     0.000 HD 
HETATM   26  O   UNL     1     -10.709  10.680  70.153  1.00  0.00    -0.238 OA 
HETATM   27  H2  UNL     1     -10.886  10.031  66.909  1.00  0.00     0.000 HD 
ENDBRANCH  17  22
ENDBRANCH  12  15
ENDBRANCH  10  11
TORSDOF 3
ENDMDL
MODEL      136
REMARK 921   NORMALIZED FREE ENERGY PREDICTED BY IDOCK:   -4.08 KCAL/MOL
REMARK 922        TOTAL FREE ENERGY PREDICTED BY IDOCK:   -5.45 KCAL/MOL
REMARK 923 INTER-LIGAND FREE ENERGY PREDICTED BY IDOCK:   -5.47 KCAL/MOL
REMARK 924 INTRA-LIGAND FREE ENERGY PREDICTED BY IDOCK:    0.02 KCAL/MOL
REMARK 927      BINDING AFFINITY PREDICTED BY RF-SCORE:    0.00 PKD
ROOT
HETATM    1  C   UNL     1     -11.713  14.085  65.308  1.00  0.00    -0.349 C  
HETATM    2  C   UNL     1     -11.391  13.425  66.649  1.00  0.00    -0.323 A  
HETATM    3  C   UNL     1     -11.657  11.895  66.606  1.00  0.00    -0.337 A  
HETATM    4  C   UNL     1     -10.293  11.314  66.817  1.00  0.00    -0.278 A  
HETATM    5  C   UNL     1      -9.937   9.975  66.869  1.00  0.00    -0.263 A  
HETATM    6  C   UNL     1      -8.598   9.660  67.100  1.00  0.00    -0.133 A  
HETATM    7  C   UNL     1      -7.645  10.678  67.252  1.00  0.00    -0.100 A  
HETATM    8  C   UNL     1      -8.024  12.026  67.205  1.00  0.00    -0.175 A  
HETATM    9  C   UNL     1      -9.360  12.338  67.010  1.00  0.00    -0.205 A  
HETATM   10  N   UNL     1      -9.983  13.591  67.054  1.00  0.00    -0.243 NA 
ENDROOT
BRANCH  10  11
HETATM   11  N   UNL     1      -9.255  14.737  66.796  1.00  0.00    -0.247 N  
HETATM   12  C   UNL     1      -8.785  15.467  67.882  1.00  0.00    -0.160 C  
HETATM   13  H   UNL     1      -9.068  15.038  65.839  1.00  0.00     0.000 HD 
HETATM   14  O   UNL     1      -8.857  15.122  69.058  1.00  0.00    -0.195 OA 
BRANCH  12  15
HETATM   15  C   UNL     1      -8.251  16.817  67.556  1.00  0.00    -0.187 A  
HETATM   16  C   UNL     1      -7.461  17.474  68.510  1.00  0.00    -0.264 A  
HETATM   17  C   UNL     1      -7.054  18.802  68.295  1.00  0.00    -0.256 A  
HETATM   18  C   UNL     1      -7.413  19.463  67.116  1.00  0.00    -0.225 A  
HETATM   19  C   UNL     1      -8.555  17.457  66.351  1.00  0.00    -0.282 A  
HETATM   20 CL   UNL     1      -7.036  21.113  66.776  1.00  0.00    -0.249 Cl 
HETATM   21  C   UNL     1      -8.142  18.776  66.138  1.00  0.00    -0.221 A  
BRANCH  17  22
HETATM   22  S   UNL     1      -6.144  19.616  69.567  1.00  0.00    -0.313 S  
HETATM   23  O   UNL     1      -5.256  18.664  70.195  1.00  0.00    -0.191 OA 
HETATM   24  N   UNL     1      -5.128  20.651  68.726  1.00  0.00    -0.240 N  
HETATM   25  H1  UNL     1      -4.602  21.122  69.463  1.00  0.00     0.000 HD 
HETATM   26  O   UNL     1      -7.050  20.433  70.339  1.00  0.00    -0.040 OA 
HETATM   27  H2  UNL     1      -5.054  20.780  67.717  1.00  0.00     0.000 HD 
ENDBRANCH  17  22
ENDBRANCH  12  15
ENDBRANCH  10  11
TORSDOF 3
ENDMDL
MODEL      137
REMARK 921   NORMALIZED FREE ENERGY PREDICTED BY IDOCK:   -4.05 KCAL/MOL
REMARK 922        TOTAL FREE ENERGY PREDICTED BY IDOCK:   -5.42 KCAL/MOL
REMARK 923 INTER-LIGAND FREE ENERGY PREDICTED BY IDOCK:   -5.00 KCAL/MOL
REMARK 924 INTRA-LIGAND FREE ENERGY PREDICTED BY IDOCK:   -0.42 KCAL/MOL
REMARK 927      BINDING AFFINITY PREDICTED BY RF-SCORE:    0.00 PKD
ROOT
HETATM    1  C   UNL     1     -10.459  10.670  66.700  1.00  0.00    -0.296 C  
HETATM    2  C   UNL     1     -10.041  10.974  68.138  1.00  0.00    -0.179 A  
HETATM    3  C   UNL     1     -10.866  12.149  68.732  1.00  0.00    -0.265 A  
HETATM    4  C   UNL     1     -11.613  11.498  69.855  1.00  0.00    -0.387 A  
HETATM    5  C   UNL     1     -12.510  12.085  70.734  1.00  0.00    -0.372 A  
HETATM    6  C   UNL     1     -13.076  11.285  71.727  1.00  0.00    -0.527 A  
HETATM    7  C   UNL     1     -12.754   9.921  71.809  1.00  0.00    -0.523 A  
HETATM    8  C   UNL     1     -11.838   9.347  70.917  1.00  0.00    -0.365 A  
HETATM    9  C   UNL     1     -11.250  10.151  69.954  1.00  0.00    -0.287 A  
HETATM   10  N   UNL     1     -10.229   9.832  69.051  1.00  0.00    -0.193 NA 
ENDROOT
BRANCH  10  11
HETATM   11  N   UNL     1     -10.027   8.519  68.666  1.00  0.00    -0.178 N  
HETATM   12  C   UNL     1      -8.769   7.967  68.875  1.00  0.00    -0.131 C  
HETATM   13  H   UNL     1     -10.778   7.973  68.243  1.00  0.00     0.000 HD 
HETATM   14  O   UNL     1      -7.846   8.503  69.482  1.00  0.00    -0.093 OA 
BRANCH  12  15
HETATM   15  C   UNL     1      -8.530   6.660  68.203  1.00  0.00    -0.116 A  
HETATM   16  C   UNL     1      -8.802   5.482  68.913  1.00  0.00    -0.110 A  
HETATM   17  C   UNL     1      -8.461   4.235  68.365  1.00  0.00    -0.092 A  
HETATM   18  C   UNL     1      -7.875   4.162  67.098  1.00  0.00    -0.096 A  
HETATM   19  C   UNL     1      -8.002   6.583  66.912  1.00  0.00    -0.112 A  
HETATM   20 CL   UNL     1      -7.345   2.696  66.357  1.00  0.00    -0.065 Cl 
HETATM   21  C   UNL     1      -7.671   5.338  66.367  1.00  0.00    -0.092 A  
BRANCH  17  22
HETATM   22  S   UNL     1      -8.735   2.789  69.338  1.00  0.00    -0.092 S  
HETATM   23  O   UNL     1      -9.547   3.137  70.481  1.00  0.00    -0.168 OA 
HETATM   24  N   UNL     1      -9.739   1.850  68.376  1.00  0.00    -0.219 N  
HETATM   25  H1  UNL     1      -9.897   1.014  68.939  1.00  0.00     0.000 HD 
HETATM   26  O   UNL     1      -7.487   2.078  69.480  1.00  0.00    -0.043 OA 
HETATM   27  H2  UNL     1     -10.104   2.064  67.449  1.00  0.00     0.000 HD 
ENDBRANCH  17  22
ENDBRANCH  12  15
ENDBRANCH  10  11
TORSDOF 3
ENDMDL
MODEL      138
REMARK 921   NORMALIZED FREE ENERGY PREDICTED BY IDOCK:   -4.05 KCAL/MOL
REMARK 922        TOTAL FREE ENERGY PREDICTED BY IDOCK:   -5.42 KCAL/MOL
REMARK 923 INTER-LIGAND FREE ENERGY PREDICTED BY IDOCK:   -6.02 KCAL/MOL
REMARK 924 INTRA-LIGAND FREE ENERGY PREDICTED BY IDOCK:    0.60 KCAL/MOL
REMARK 927      BINDING AFFINITY PREDICTED BY RF-SCORE:    0.00 PKD
ROOT
HETATM    1  C   UNL     1     -11.400  13.313  69.419  1.00  0.00    -0.280 C  
HETATM    2  C   UNL     1     -12.139  12.932  68.136  1.00  0.00    -0.136 A  
HETATM    3  C   UNL     1     -11.752  13.871  66.959  1.00  0.00    -0.426 A  
HETATM    4  C   UNL     1     -11.091  12.937  65.993  1.00  0.00    -0.308 A  
HETATM    5  C   UNL     1     -10.544  13.241  64.756  1.00  0.00    -0.402 A  
HETATM    6  C   UNL     1      -9.993  12.200  64.008  1.00  0.00    -0.301 A  
HETATM    7  C   UNL     1      -9.980  10.891  64.514  1.00  0.00    -0.376 A  
HETATM    8  C   UNL     1     -10.545  10.602  65.764  1.00  0.00    -0.168 A  
HETATM    9  C   UNL     1     -11.123  11.631  66.490  1.00  0.00    -0.301 A  
HETATM   10  N   UNL     1     -11.849  11.559  67.685  1.00  0.00    -0.629 NA 
ENDROOT
BRANCH  10  11
HETATM   11  N   UNL     1     -11.647  10.507  68.558  1.00  0.00    -0.495 N  
HETATM   12  C   UNL     1     -10.365  10.316  69.060  1.00  0.00    -0.211 C  
HETATM   13  H   UNL     1     -12.415   9.889  68.825  1.00  0.00     0.000 HD 
HETATM   14  O   UNL     1      -9.413  11.072  68.892  1.00  0.00    -0.195 OA 
BRANCH  12  15
HETATM   15  C   UNL     1     -10.148   9.025  69.770  1.00  0.00    -0.209 A  
HETATM   16  C   UNL     1      -9.075   8.927  70.668  1.00  0.00    -0.247 A  
HETATM   17  C   UNL     1      -8.756   7.689  71.251  1.00  0.00    -0.131 A  
HETATM   18  C   UNL     1      -9.522   6.557  70.959  1.00  0.00    -0.164 A  
HETATM   19  C   UNL     1     -10.951   7.908  69.527  1.00  0.00    -0.078 A  
HETATM   20 CL   UNL     1      -9.180   4.973  71.553  1.00  0.00    -0.172 Cl 
HETATM   21  C   UNL     1     -10.634   6.679  70.116  1.00  0.00    -0.264 A  
BRANCH  17  22
HETATM   22  S   UNL     1      -7.340   7.597  72.298  1.00  0.00    -0.082 S  
HETATM   23  O   UNL     1      -6.854   8.934  72.552  1.00  0.00    -0.298 OA 
HETATM   24  N   UNL     1      -7.967   7.089  73.768  1.00  0.00    -0.107 N  
HETATM   25  H1  UNL     1      -7.148   7.035  74.373  1.00  0.00     0.000 HD 
HETATM   26  O   UNL     1      -6.470   6.551  71.816  1.00  0.00    -0.045 OA 
HETATM   27  H2  UNL     1      -8.938   6.881  74.001  1.00  0.00     0.000 HD 
ENDBRANCH  17  22
ENDBRANCH  12  15
ENDBRANCH  10  11
TORSDOF 3
ENDMDL
MODEL      139
REMARK 921   NORMALIZED FREE ENERGY PREDICTED BY IDOCK:   -3.97 KCAL/MOL
REMARK 922        TOTAL FREE ENERGY PREDICTED BY IDOCK:   -5.33 KCAL/MOL
REMARK 923 INTER-LIGAND FREE ENERGY PREDICTED BY IDOCK:   -4.94 KCAL/MOL
REMARK 924 INTRA-LIGAND FREE ENERGY PREDICTED BY IDOCK:   -0.39 KCAL/MOL
REMARK 927      BINDING AFFINITY PREDICTED BY RF-SCORE:    0.00 PKD
ROOT
HETATM    1  C   UNL     1      -7.288   5.050  66.372  1.00  0.00    -0.085 C  
HETATM    2  C   UNL     1      -8.651   4.523  66.820  1.00  0.00    -0.104 A  
HETATM    3  C   UNL     1      -8.562   3.041  67.281  1.00  0.00    -0.119 A  
HETATM    4  C   UNL     1      -8.926   3.122  68.732  1.00  0.00    -0.188 A  
HETATM    5  C   UNL     1      -9.007   2.084  69.647  1.00  0.00    -0.149 A  
HETATM    6  C   UNL     1      -9.391   2.389  70.953  1.00  0.00    -0.213 A  
HETATM    7  C   UNL     1      -9.664   3.715  71.322  1.00  0.00    -0.239 A  
HETATM    8  C   UNL     1      -9.586   4.750  70.380  1.00  0.00    -0.267 A  
HETATM    9  C   UNL     1      -9.238   4.441  69.075  1.00  0.00    -0.140 A  
HETATM   10  N   UNL     1      -9.221   5.276  67.952  1.00  0.00    -0.110 NA 
ENDROOT
BRANCH  10  11
HETATM   11  N   UNL     1      -9.062   6.641  68.104  1.00  0.00    -0.120 N  
HETATM   12  C   UNL     1      -9.966   7.476  67.458  1.00  0.00    -0.174 C  
HETATM   13  H   UNL     1      -8.306   7.023  68.673  1.00  0.00     0.000 HD 
HETATM   14  O   UNL     1     -10.970   7.110  66.855  1.00  0.00    -0.363 OA 
BRANCH  12  15
HETATM   15  C   UNL     1      -9.591   8.917  67.432  1.00  0.00    -0.201 A  
HETATM   16  C   UNL     1     -10.537   9.862  67.853  1.00  0.00    -0.303 A  
HETATM   17  C   UNL     1     -10.271  11.235  67.715  1.00  0.00    -0.180 A  
HETATM   18  C   UNL     1      -9.051  11.663  67.181  1.00  0.00    -0.171 A  
HETATM   19  C   UNL     1      -8.349   9.345  66.958  1.00  0.00    -0.127 A  
HETATM   20 CL   UNL     1      -8.644  13.315  66.893  1.00  0.00    -0.165 Cl 
HETATM   21  C   UNL     1      -8.085  10.713  66.829  1.00  0.00    -0.131 A  
BRANCH  17  22
HETATM   22  S   UNL     1     -11.530  12.383  68.169  1.00  0.00    -0.339 S  
HETATM   23  O   UNL     1     -12.523  11.701  68.968  1.00  0.00    -0.243 OA 
HETATM   24  N   UNL     1     -10.757  13.413  69.244  1.00  0.00    -0.444 N  
HETATM   25  H1  UNL     1     -11.486  14.077  69.507  1.00  0.00     0.000 HD 
HETATM   26  O   UNL     1     -11.892  13.163  67.010  1.00  0.00    -0.363 OA 
HETATM   27  H2  UNL     1      -9.788  13.383  69.559  1.00  0.00     0.000 HD 
ENDBRANCH  17  22
ENDBRANCH  12  15
ENDBRANCH  10  11
TORSDOF 3
ENDMDL
MODEL      140
REMARK 921   NORMALIZED FREE ENERGY PREDICTED BY IDOCK:   -3.96 KCAL/MOL
REMARK 922        TOTAL FREE ENERGY PREDICTED BY IDOCK:   -5.31 KCAL/MOL
REMARK 923 INTER-LIGAND FREE ENERGY PREDICTED BY IDOCK:   -5.75 KCAL/MOL
REMARK 924 INTRA-LIGAND FREE ENERGY PREDICTED BY IDOCK:    0.44 KCAL/MOL
REMARK 927      BINDING AFFINITY PREDICTED BY RF-SCORE:    0.00 PKD
ROOT
HETATM    1  C   UNL     1     -10.745  11.182  67.382  1.00  0.00    -0.294 C  
HETATM    2  C   UNL     1     -10.428  11.327  68.870  1.00  0.00    -0.206 A  
HETATM    3  C   UNL     1     -11.694  11.711  69.685  1.00  0.00    -0.418 A  
HETATM    4  C   UNL     1     -11.883  10.529  70.584  1.00  0.00    -0.458 A  
HETATM    5  C   UNL     1     -12.875  10.331  71.532  1.00  0.00    -0.557 A  
HETATM    6  C   UNL     1     -12.845   9.153  72.278  1.00  0.00    -0.472 A  
HETATM    7  C   UNL     1     -11.846   8.193  72.050  1.00  0.00    -0.392 A  
HETATM    8  C   UNL     1     -10.847   8.415  71.093  1.00  0.00    -0.286 A  
HETATM    9  C   UNL     1     -10.858   9.601  70.377  1.00  0.00    -0.295 A  
HETATM   10  N   UNL     1      -9.905  10.089  69.476  1.00  0.00    -0.217 NA 
ENDROOT
BRANCH  10  11
HETATM   11  N   UNL     1      -9.075   9.213  68.801  1.00  0.00    -0.136 N  
HETATM   12  C   UNL     1      -9.667   8.251  67.991  1.00  0.00    -0.161 C  
HETATM   13  H   UNL     1      -8.060   9.271  68.894  1.00  0.00     0.000 HD 
HETATM   14  O   UNL     1     -10.863   8.180  67.725  1.00  0.00    -0.143 OA 
BRANCH  12  15
HETATM   15  C   UNL     1      -8.754   7.178  67.510  1.00  0.00    -0.121 A  
HETATM   16  C   UNL     1      -9.263   6.207  66.636  1.00  0.00    -0.155 A  
HETATM   17  C   UNL     1      -8.473   5.104  66.271  1.00  0.00    -0.114 A  
HETATM   18  C   UNL     1      -7.167   4.985  66.756  1.00  0.00    -0.077 A  
HETATM   19  C   UNL     1      -7.428   7.091  67.944  1.00  0.00    -0.099 A  
HETATM   20 CL   UNL     1      -6.132   3.641  66.438  1.00  0.00    -0.024 Cl 
HETATM   21  C   UNL     1      -6.643   5.995  67.572  1.00  0.00    -0.056 A  
BRANCH  17  22
HETATM   22  S   UNL     1      -9.191   3.861  65.247  1.00  0.00    -0.161 S  
HETATM   23  O   UNL     1      -9.213   2.609  65.969  1.00  0.00    -0.132 OA 
HETATM   24  N   UNL     1     -10.802   4.317  65.143  1.00  0.00    -0.685 N  
HETATM   25  H1  UNL     1     -11.218   3.598  64.550  1.00  0.00     0.000 HD 
HETATM   26  O   UNL     1      -8.628   3.964  63.922  1.00  0.00    -0.092 OA 
HETATM   27  H2  UNL     1     -11.258   5.123  65.570  1.00  0.00     0.000 HD 
ENDBRANCH  17  22
ENDBRANCH  12  15
ENDBRANCH  10  11
TORSDOF 3
ENDMDL
MODEL      141
REMARK 921   NORMALIZED FREE ENERGY PREDICTED BY IDOCK:   -3.95 KCAL/MOL
REMARK 922        TOTAL FREE ENERGY PREDICTED BY IDOCK:   -5.30 KCAL/MOL
REMARK 923 INTER-LIGAND FREE ENERGY PREDICTED BY IDOCK:   -4.89 KCAL/MOL
REMARK 924 INTRA-LIGAND FREE ENERGY PREDICTED BY IDOCK:   -0.42 KCAL/MOL
REMARK 927      BINDING AFFINITY PREDICTED BY RF-SCORE:    0.00 PKD
ROOT
HETATM    1  C   UNL     1      -6.345   9.976  70.117  1.00  0.00    -0.093 C  
HETATM    2  C   UNL     1      -7.199   8.844  69.548  1.00  0.00    -0.063 A  
HETATM    3  C   UNL     1      -6.769   7.465  70.124  1.00  0.00    -0.050 A  
HETATM    4  C   UNL     1      -7.985   7.027  70.880  1.00  0.00    -0.097 A  
HETATM    5  C   UNL     1      -8.162   5.856  71.600  1.00  0.00    -0.119 A  
HETATM    6  C   UNL     1      -9.397   5.642  72.213  1.00  0.00    -0.157 A  
HETATM    7  C   UNL     1     -10.415   6.602  72.113  1.00  0.00    -0.228 A  
HETATM    8  C   UNL     1     -10.220   7.776  71.373  1.00  0.00    -0.211 A  
HETATM    9  C   UNL     1      -9.006   7.971  70.736  1.00  0.00    -0.144 A  
HETATM   10  N   UNL     1      -8.634   8.990  69.851  1.00  0.00    -0.130 NA 
ENDROOT
BRANCH  10  11
HETATM   11  N   UNL     1      -9.273  10.216  69.896  1.00  0.00    -0.390 N  
HETATM   12  C   UNL     1     -10.119  10.546  68.844  1.00  0.00    -0.202 C  
HETATM   13  H   UNL     1      -9.128  10.857  70.676  1.00  0.00     0.000 HD 
HETATM   14  O   UNL     1     -10.446   9.797  67.929  1.00  0.00    -0.208 OA 
BRANCH  12  15
HETATM   15  C   UNL     1     -10.560  11.968  68.807  1.00  0.00    -0.237 A  
HETATM   16  C   UNL     1      -9.722  12.914  68.200  1.00  0.00    -0.227 A  
HETATM   17  C   UNL     1     -10.039  14.281  68.267  1.00  0.00    -0.238 A  
HETATM   18  C   UNL     1     -11.204  14.700  68.916  1.00  0.00    -0.267 A  
HETATM   19  C   UNL     1     -11.755  12.382  69.401  1.00  0.00    -0.384 A  
HETATM   20 CL   UNL     1     -11.656  16.353  69.128  1.00  0.00    -0.202 Cl 
HETATM   21  C   UNL     1     -12.070  13.744  69.459  1.00  0.00    -0.386 A  
BRANCH  17  22
HETATM   22  S   UNL     1      -8.904  15.439  67.572  1.00  0.00    -0.187 S  
HETATM   23  O   UNL     1      -9.615  16.304  66.658  1.00  0.00    -0.224 OA 
HETATM   24  N   UNL     1      -8.506  16.428  68.867  1.00  0.00    -0.242 N  
HETATM   25  H1  UNL     1      -7.849  17.097  68.464  1.00  0.00     0.000 HD 
HETATM   26  O   UNL     1      -7.705  14.739  67.179  1.00  0.00    -0.200 OA 
HETATM   27  H2  UNL     1      -8.839  16.372  69.828  1.00  0.00     0.000 HD 
ENDBRANCH  17  22
ENDBRANCH  12  15
ENDBRANCH  10  11
TORSDOF 3
ENDMDL
MODEL      142
REMARK 921   NORMALIZED FREE ENERGY PREDICTED BY IDOCK:   -3.95 KCAL/MOL
REMARK 922        TOTAL FREE ENERGY PREDICTED BY IDOCK:   -5.30 KCAL/MOL
REMARK 923 INTER-LIGAND FREE ENERGY PREDICTED BY IDOCK:   -4.66 KCAL/MOL
REMARK 924 INTRA-LIGAND FREE ENERGY PREDICTED BY IDOCK:   -0.65 KCAL/MOL
REMARK 927      BINDING AFFINITY PREDICTED BY RF-SCORE:    0.00 PKD
ROOT
HETATM    1  C   UNL     1      -7.812   8.094  68.184  1.00  0.00    -0.122 C  
HETATM    2  C   UNL     1      -7.915   9.305  69.110  1.00  0.00    -0.097 A  
HETATM    3  C   UNL     1      -7.987  10.631  68.304  1.00  0.00    -0.116 A  
HETATM    4  C   UNL     1      -9.343  11.161  68.655  1.00  0.00    -0.186 A  
HETATM    5  C   UNL     1      -9.941  12.330  68.212  1.00  0.00    -0.216 A  
HETATM    6  C   UNL     1     -11.214  12.639  68.691  1.00  0.00    -0.323 A  
HETATM    7  C   UNL     1     -11.869  11.773  69.580  1.00  0.00    -0.402 A  
HETATM    8  C   UNL     1     -11.245  10.599  70.023  1.00  0.00    -0.382 A  
HETATM    9  C   UNL     1      -9.967  10.310  69.573  1.00  0.00    -0.228 A  
HETATM   10  N   UNL     1      -9.110   9.278  69.973  1.00  0.00    -0.191 NA 
ENDROOT
BRANCH  10  11
HETATM   11  N   UNL     1      -9.628   8.112  70.504  1.00  0.00    -0.169 N  
HETATM   12  C   UNL     1      -9.539   7.928  71.879  1.00  0.00    -0.173 C  
HETATM   13  H   UNL     1     -10.062   7.408  69.906  1.00  0.00     0.000 HD 
HETATM   14  O   UNL     1      -9.146   8.764  72.686  1.00  0.00    -0.354 OA 
BRANCH  12  15
HETATM   15  C   UNL     1      -9.861   6.556  72.358  1.00  0.00    -0.169 A  
HETATM   16  C   UNL     1      -8.923   5.536  72.148  1.00  0.00    -0.142 A  
HETATM   17  C   UNL     1      -9.247   4.205  72.461  1.00  0.00    -0.115 A  
HETATM   18  C   UNL     1     -10.496   3.897  73.008  1.00  0.00    -0.175 A  
HETATM   19  C   UNL     1     -11.085   6.256  72.963  1.00  0.00    -0.237 A  
HETATM   20 CL   UNL     1     -11.033   2.295  73.361  1.00  0.00    -0.278 Cl 
HETATM   21  C   UNL     1     -11.400   4.931  73.280  1.00  0.00    -0.408 A  
BRANCH  17  22
HETATM   22  S   UNL     1      -8.069   2.946  72.088  1.00  0.00    -0.055 S  
HETATM   23  O   UNL     1      -8.619   2.069  71.079  1.00  0.00    -0.049 OA 
HETATM   24  N   UNL     1      -6.840   3.774  71.304  1.00  0.00    -0.031 N  
HETATM   25  H1  UNL     1      -6.158   3.046  71.089  1.00  0.00     0.000 HD 
HETATM   26  O   UNL     1      -7.525   2.435  73.324  1.00  0.00    -0.039 OA 
HETATM   27  H2  UNL     1      -6.786   4.770  71.093  1.00  0.00     0.000 HD 
ENDBRANCH  17  22
ENDBRANCH  12  15
ENDBRANCH  10  11
TORSDOF 3
ENDMDL
MODEL      143
REMARK 921   NORMALIZED FREE ENERGY PREDICTED BY IDOCK:   -3.94 KCAL/MOL
REMARK 922        TOTAL FREE ENERGY PREDICTED BY IDOCK:   -5.29 KCAL/MOL
REMARK 923 INTER-LIGAND FREE ENERGY PREDICTED BY IDOCK:   -5.19 KCAL/MOL
REMARK 924 INTRA-LIGAND FREE ENERGY PREDICTED BY IDOCK:   -0.11 KCAL/MOL
REMARK 927      BINDING AFFINITY PREDICTED BY RF-SCORE:    0.00 PKD
ROOT
HETATM    1  C   UNL     1      -6.022  12.467  68.173  1.00  0.00    -0.062 C  
HETATM    2  C   UNL     1      -7.116  11.732  67.400  1.00  0.00    -0.126 A  
HETATM    3  C   UNL     1      -7.121  10.213  67.730  1.00  0.00    -0.086 A  
HETATM    4  C   UNL     1      -8.458  10.018  68.376  1.00  0.00    -0.112 A  
HETATM    5  C   UNL     1      -8.998   8.844  68.876  1.00  0.00    -0.137 A  
HETATM    6  C   UNL     1     -10.282   8.891  69.420  1.00  0.00    -0.210 A  
HETATM    7  C   UNL     1     -10.988  10.103  69.473  1.00  0.00    -0.295 A  
HETATM    8  C   UNL     1     -10.428  11.278  68.955  1.00  0.00    -0.232 A  
HETATM    9  C   UNL     1      -9.167  11.223  68.383  1.00  0.00    -0.178 A  
HETATM   10  N   UNL     1      -8.472  12.227  67.698  1.00  0.00    -0.156 NA 
ENDROOT
BRANCH  10  11
HETATM   11  N   UNL     1      -8.749  13.558  67.947  1.00  0.00    -0.172 N  
HETATM   12  C   UNL     1      -9.384  14.287  66.948  1.00  0.00    -0.257 C  
HETATM   13  H   UNL     1      -8.497  13.991  68.835  1.00  0.00     0.000 HD 
HETATM   14  O   UNL     1      -9.830  13.825  65.902  1.00  0.00    -0.298 OA 
BRANCH  12  15
HETATM   15  C   UNL     1      -9.412  15.760  67.158  1.00  0.00    -0.222 A  
HETATM   16  C   UNL     1      -8.232  16.402  67.560  1.00  0.00    -0.167 A  
HETATM   17  C   UNL     1      -8.253  17.765  67.901  1.00  0.00    -0.237 A  
HETATM   18  C   UNL     1      -9.444  18.492  67.814  1.00  0.00    -0.289 A  
HETATM   19  C   UNL     1     -10.587  16.501  67.012  1.00  0.00    -0.255 A  
HETATM   20 CL   UNL     1      -9.607  20.147  68.278  1.00  0.00    -0.365 Cl 
HETATM   21  C   UNL     1     -10.601  17.860  67.345  1.00  0.00    -0.370 A  
BRANCH  17  22
HETATM   22  S   UNL     1      -6.764  18.503  68.493  1.00  0.00    -0.264 S  
HETATM   23  O   UNL     1      -5.962  17.492  69.143  1.00  0.00    -0.189 OA 
HETATM   24  N   UNL     1      -5.922  18.874  67.091  1.00  0.00    -0.160 N  
HETATM   25  H1  UNL     1      -5.061  19.301  67.433  1.00  0.00     0.000 HD 
HETATM   26  O   UNL     1      -7.088  19.751  69.143  1.00  0.00    -0.349 OA 
HETATM   27  H2  UNL     1      -6.204  18.711  66.124  1.00  0.00     0.000 HD 
ENDBRANCH  17  22
ENDBRANCH  12  15
ENDBRANCH  10  11
TORSDOF 3
ENDMDL
MODEL      144
REMARK 921   NORMALIZED FREE ENERGY PREDICTED BY IDOCK:   -3.93 KCAL/MOL
REMARK 922        TOTAL FREE ENERGY PREDICTED BY IDOCK:   -5.28 KCAL/MOL
REMARK 923 INTER-LIGAND FREE ENERGY PREDICTED BY IDOCK:   -5.37 KCAL/MOL
REMARK 924 INTRA-LIGAND FREE ENERGY PREDICTED BY IDOCK:    0.09 KCAL/MOL
REMARK 927      BINDING AFFINITY PREDICTED BY RF-SCORE:    0.00 PKD
ROOT
HETATM    1  C   UNL     1      -6.730   9.283  70.261  1.00  0.00    -0.066 C  
HETATM    2  C   UNL     1      -7.632   8.085  69.966  1.00  0.00    -0.082 A  
HETATM    3  C   UNL     1      -6.963   6.751  70.399  1.00  0.00    -0.063 A  
HETATM    4  C   UNL     1      -7.879   6.253  71.475  1.00  0.00    -0.101 A  
HETATM    5  C   UNL     1      -7.762   5.091  72.220  1.00  0.00    -0.096 A  
HETATM    6  C   UNL     1      -8.753   4.813  73.163  1.00  0.00    -0.109 A  
HETATM    7  C   UNL     1      -9.820   5.704  73.355  1.00  0.00    -0.175 A  
HETATM    8  C   UNL     1      -9.925   6.870  72.586  1.00  0.00    -0.191 A  
HETATM    9  C   UNL     1      -8.960   7.128  71.626  1.00  0.00    -0.133 A  
HETATM   10  N   UNL     1      -8.927   8.147  70.668  1.00  0.00    -0.146 NA 
ENDROOT
BRANCH  10  11
HETATM   11  N   UNL     1      -9.608   9.330  70.889  1.00  0.00    -0.273 N  
HETATM   12  C   UNL     1     -10.976   9.348  70.646  1.00  0.00    -0.290 C  
HETATM   13  H   UNL     1      -9.121  10.164  71.220  1.00  0.00     0.000 HD 
HETATM   14  O   UNL     1     -11.663   8.371  70.363  1.00  0.00    -0.151 OA 
BRANCH  12  15
HETATM   15  C   UNL     1     -11.601  10.699  70.638  1.00  0.00    -0.432 A  
HETATM   16  C   UNL     1     -11.165  11.633  69.688  1.00  0.00    -0.249 A  
HETATM   17  C   UNL     1     -11.632  12.958  69.737  1.00  0.00    -0.218 A  
HETATM   18  C   UNL     1     -12.553  13.341  70.716  1.00  0.00    -0.280 A  
HETATM   19  C   UNL     1     -12.569  11.067  71.577  1.00  0.00    -0.461 A  
HETATM   20 CL   UNL     1     -13.136  14.953  70.922  1.00  0.00    -0.424 Cl 
HETATM   21  C   UNL     1     -13.036  12.385  71.617  1.00  0.00    -0.408 A  
BRANCH  17  22
HETATM   22  S   UNL     1     -10.980  14.119  68.580  1.00  0.00    -0.268 S  
HETATM   23  O   UNL     1     -12.075  14.762  67.890  1.00  0.00    -0.288 OA 
HETATM   24  N   UNL     1     -10.328  15.321  69.551  1.00  0.00    -0.250 N  
HETATM   25  H1  UNL     1      -9.951  15.993  68.882  1.00  0.00     0.000 HD 
HETATM   26  O   UNL     1      -9.888  13.503  67.865  1.00  0.00    -0.221 OA 
HETATM   27  H2  UNL     1     -10.312  15.369  70.570  1.00  0.00     0.000 HD 
ENDBRANCH  17  22
ENDBRANCH  12  15
ENDBRANCH  10  11
TORSDOF 3
ENDMDL
MODEL      145
REMARK 921   NORMALIZED FREE ENERGY PREDICTED BY IDOCK:   -3.93 KCAL/MOL
REMARK 922        TOTAL FREE ENERGY PREDICTED BY IDOCK:   -5.28 KCAL/MOL
REMARK 923 INTER-LIGAND FREE ENERGY PREDICTED BY IDOCK:   -4.90 KCAL/MOL
REMARK 924 INTRA-LIGAND FREE ENERGY PREDICTED BY IDOCK:   -0.38 KCAL/MOL
REMARK 927      BINDING AFFINITY PREDICTED BY RF-SCORE:    0.00 PKD
ROOT
HETATM    1  C   UNL     1      -8.726  11.981  68.205  1.00  0.00    -0.177 C  
HETATM    2  C   UNL     1     -10.208  11.789  67.887  1.00  0.00    -0.191 A  
HETATM    3  C   UNL     1     -10.960  13.148  67.845  1.00  0.00    -0.271 A  
HETATM    4  C   UNL     1     -11.412  13.234  66.419  1.00  0.00    -0.364 A  
HETATM    5  C   UNL     1     -12.135  14.251  65.816  1.00  0.00    -0.414 A  
HETATM    6  C   UNL     1     -12.468  14.110  64.469  1.00  0.00    -0.350 A  
HETATM    7  C   UNL     1     -12.059  12.976  63.751  1.00  0.00    -0.574 A  
HETATM    8  C   UNL     1     -11.335  11.954  64.380  1.00  0.00    -0.395 A  
HETATM    9  C   UNL     1     -11.035  12.079  65.727  1.00  0.00    -0.307 A  
HETATM   10  N   UNL     1     -10.444  11.143  66.583  1.00  0.00    -0.241 NA 
ENDROOT
BRANCH  10  11
HETATM   11  N   UNL     1      -9.621  10.157  66.072  1.00  0.00    -0.195 N  
HETATM   12  C   UNL     1      -9.902   8.837  66.407  1.00  0.00    -0.282 C  
HETATM   13  H   UNL     1      -8.832  10.390  65.468  1.00  0.00     0.000 HD 
HETATM   14  O   UNL     1     -10.891   8.453  67.024  1.00  0.00    -0.224 OA 
BRANCH  12  15
HETATM   15  C   UNL     1      -8.839   7.854  66.059  1.00  0.00    -0.191 A  
HETATM   16  C   UNL     1      -8.743   6.676  66.813  1.00  0.00    -0.121 A  
HETATM   17  C   UNL     1      -7.672   5.792  66.604  1.00  0.00    -0.100 A  
HETATM   18  C   UNL     1      -6.714   6.069  65.625  1.00  0.00    -0.048 A  
HETATM   19  C   UNL     1      -7.916   8.100  65.039  1.00  0.00    -0.139 A  
HETATM   20 CL   UNL     1      -5.317   5.098  65.331  1.00  0.00    -0.012 Cl 
HETATM   21  C   UNL     1      -6.856   7.212  64.829  1.00  0.00    -0.050 A  
BRANCH  17  22
HETATM   22  S   UNL     1      -7.543   4.372  67.643  1.00  0.00    -0.077 S  
HETATM   23  O   UNL     1      -7.117   3.243  66.848  1.00  0.00    -0.056 OA 
HETATM   24  N   UNL     1      -6.227   4.719  68.624  1.00  0.00    -0.030 N  
HETATM   25  H1  UNL     1      -6.153   3.898  69.225  1.00  0.00     0.000 HD 
HETATM   26  O   UNL     1      -8.708   4.308  68.493  1.00  0.00    -0.092 OA 
HETATM   27  H2  UNL     1      -5.641   5.554  68.620  1.00  0.00     0.000 HD 
ENDBRANCH  17  22
ENDBRANCH  12  15
ENDBRANCH  10  11
TORSDOF 3
ENDMDL
MODEL      146
REMARK 921   NORMALIZED FREE ENERGY PREDICTED BY IDOCK:   -3.93 KCAL/MOL
REMARK 922        TOTAL FREE ENERGY PREDICTED BY IDOCK:   -5.28 KCAL/MOL
REMARK 923 INTER-LIGAND FREE ENERGY PREDICTED BY IDOCK:   -5.13 KCAL/MOL
REMARK 924 INTRA-LIGAND FREE ENERGY PREDICTED BY IDOCK:   -0.15 KCAL/MOL
REMARK 927      BINDING AFFINITY PREDICTED BY RF-SCORE:    0.00 PKD
ROOT
HETATM    1  C   UNL     1     -11.598   8.694  71.160  1.00  0.00    -0.330 C  
HETATM    2  C   UNL     1     -10.356   8.041  70.555  1.00  0.00    -0.202 A  
HETATM    3  C   UNL     1     -10.429   6.491  70.646  1.00  0.00    -0.257 A  
HETATM    4  C   UNL     1     -10.459   6.074  69.208  1.00  0.00    -0.328 A  
HETATM    5  C   UNL     1     -10.526   4.787  68.697  1.00  0.00     0.171 A  
HETATM    6  C   UNL     1     -10.520   4.631  67.310  1.00  0.00     0.061 A  
HETATM    7  C   UNL     1     -10.468   5.752  66.469  1.00  0.00    -0.280 A  
HETATM    8  C   UNL     1     -10.393   7.045  67.004  1.00  0.00    -0.360 A  
HETATM    9  C   UNL     1     -10.364   7.198  68.381  1.00  0.00    -0.194 A  
HETATM   10  N   UNL     1     -10.165   8.364  69.129  1.00  0.00    -0.207 NA 
ENDROOT
BRANCH  10  11
HETATM   11  N   UNL     1     -10.478   9.597  68.589  1.00  0.00    -0.204 N  
HETATM   12  C   UNL     1      -9.499  10.249  67.848  1.00  0.00    -0.141 C  
HETATM   13  H   UNL     1     -11.398  10.015  68.729  1.00  0.00     0.000 HD 
HETATM   14  O   UNL     1      -8.413   9.776  67.528  1.00  0.00    -0.121 OA 
BRANCH  12  15
HETATM   15  C   UNL     1      -9.792  11.673  67.525  1.00  0.00    -0.199 A  
HETATM   16  C   UNL     1      -8.726  12.582  67.480  1.00  0.00    -0.182 A  
HETATM   17  C   UNL     1      -8.977  13.955  67.315  1.00  0.00    -0.221 A  
HETATM   18  C   UNL     1     -10.288  14.415  67.167  1.00  0.00    -0.262 A  
HETATM   19  C   UNL     1     -11.097  12.126  67.315  1.00  0.00    -0.341 A  
HETATM   20 CL   UNL     1     -10.723  16.080  67.034  1.00  0.00    -0.308 Cl 
HETATM   21  C   UNL     1     -11.341  13.493  67.143  1.00  0.00    -0.346 A  
BRANCH  17  22
HETATM   22  S   UNL     1      -7.610  15.068  67.362  1.00  0.00    -0.199 S  
HETATM   23  O   UNL     1      -7.785  16.073  66.338  1.00  0.00    -0.214 OA 
HETATM   24  N   UNL     1      -7.822  15.895  68.806  1.00  0.00    -0.171 N  
HETATM   25  H1  UNL     1      -7.031  16.539  68.833  1.00  0.00     0.000 HD 
HETATM   26  O   UNL     1      -6.390  14.306  67.478  1.00  0.00    -0.295 OA 
HETATM   27  H2  UNL     1      -8.566  15.780  69.494  1.00  0.00     0.000 HD 
ENDBRANCH  17  22
ENDBRANCH  12  15
ENDBRANCH  10  11
TORSDOF 3
ENDMDL
MODEL      147
REMARK 921   NORMALIZED FREE ENERGY PREDICTED BY IDOCK:   -3.91 KCAL/MOL
REMARK 922        TOTAL FREE ENERGY PREDICTED BY IDOCK:   -5.26 KCAL/MOL
REMARK 923 INTER-LIGAND FREE ENERGY PREDICTED BY IDOCK:   -4.88 KCAL/MOL
REMARK 924 INTRA-LIGAND FREE ENERGY PREDICTED BY IDOCK:   -0.38 KCAL/MOL
REMARK 927      BINDING AFFINITY PREDICTED BY RF-SCORE:    0.00 PKD
ROOT
HETATM    1  C   UNL     1      -9.929   8.974  65.906  1.00  0.00    -0.169 C  
HETATM    2  C   UNL     1      -9.409  10.406  66.035  1.00  0.00    -0.178 A  
HETATM    3  C   UNL     1     -10.236  11.390  65.161  1.00  0.00    -0.328 A  
HETATM    4  C   UNL     1     -10.857  12.297  66.179  1.00  0.00    -0.314 A  
HETATM    5  C   UNL     1     -11.705  13.370  65.957  1.00  0.00    -0.398 A  
HETATM    6  C   UNL     1     -12.150  14.095  67.062  1.00  0.00    -0.449 A  
HETATM    7  C   UNL     1     -11.759  13.725  68.359  1.00  0.00    -0.393 A  
HETATM    8  C   UNL     1     -10.894  12.642  68.563  1.00  0.00    -0.279 A  
HETATM    9  C   UNL     1     -10.426  11.944  67.461  1.00  0.00    -0.209 A  
HETATM   10  N   UNL     1      -9.468  10.924  67.414  1.00  0.00    -0.155 NA 
ENDROOT
BRANCH  10  11
HETATM   11  N   UNL     1      -9.238  10.135  68.525  1.00  0.00    -0.139 N  
HETATM   12  C   UNL     1      -7.957   9.629  68.708  1.00  0.00    -0.089 C  
HETATM   13  H   UNL     1      -9.985   9.930  69.189  1.00  0.00     0.000 HD 
HETATM   14  O   UNL     1      -6.973   9.916  68.033  1.00  0.00    -0.075 OA 
BRANCH  12  15
HETATM   15  C   UNL     1      -7.833   8.578  69.756  1.00  0.00    -0.094 A  
HETATM   16  C   UNL     1      -8.870   7.644  69.893  1.00  0.00    -0.143 A  
HETATM   17  C   UNL     1      -8.854   6.725  70.955  1.00  0.00    -0.141 A  
HETATM   18  C   UNL     1      -7.792   6.721  71.864  1.00  0.00    -0.097 A  
HETATM   19  C   UNL     1      -6.742   8.533  70.627  1.00  0.00    -0.040 A  
HETATM   20 CL   UNL     1      -7.702   5.694  73.248  1.00  0.00    -0.099 Cl 
HETATM   21  C   UNL     1      -6.727   7.611  71.679  1.00  0.00    -0.045 A  
BRANCH  17  22
HETATM   22  S   UNL     1     -10.228   5.634  71.140  1.00  0.00    -0.230 S  
HETATM   23  O   UNL     1     -10.754   5.761  72.481  1.00  0.00    -0.212 OA 
HETATM   24  N   UNL     1     -11.406   6.312  70.158  1.00  0.00    -0.401 N  
HETATM   25  H1  UNL     1     -12.201   5.681  70.265  1.00  0.00     0.000 HD 
HETATM   26  O   UNL     1      -9.884   4.350  70.577  1.00  0.00    -0.202 OA 
HETATM   27  H2  UNL     1     -11.343   7.155  69.588  1.00  0.00     0.000 HD 
ENDBRANCH  17  22
ENDBRANCH  12  15
ENDBRANCH  10  11
TORSDOF 3
ENDMDL
MODEL      148
REMARK 921   NORMALIZED FREE ENERGY PREDICTED BY IDOCK:   -3.88 KCAL/MOL
REMARK 922        TOTAL FREE ENERGY PREDICTED BY IDOCK:   -5.22 KCAL/MOL
REMARK 923 INTER-LIGAND FREE ENERGY PREDICTED BY IDOCK:   -5.82 KCAL/MOL
REMARK 924 INTRA-LIGAND FREE ENERGY PREDICTED BY IDOCK:    0.61 KCAL/MOL
REMARK 927      BINDING AFFINITY PREDICTED BY RF-SCORE:    0.00 PKD
ROOT
HETATM    1  C   UNL     1     -10.893   7.672  73.150  1.00  0.00    -0.440 C  
HETATM    2  C   UNL     1      -9.576   7.024  72.726  1.00  0.00    -0.148 A  
HETATM    3  C   UNL     1      -9.588   5.492  72.988  1.00  0.00    -0.161 A  
HETATM    4  C   UNL     1      -9.476   4.917  71.609  1.00  0.00    -0.204 A  
HETATM    5  C   UNL     1      -9.441   3.580  71.246  1.00  0.00    -0.229 A  
HETATM    6  C   UNL     1      -9.309   3.272  69.892  1.00  0.00    -0.234 A  
HETATM    7  C   UNL     1      -9.236   4.295  68.933  1.00  0.00    -0.205 A  
HETATM    8  C   UNL     1      -9.264   5.641  69.322  1.00  0.00    -0.139 A  
HETATM    9  C   UNL     1      -9.360   5.946  70.670  1.00  0.00    -0.160 A  
HETATM   10  N   UNL     1      -9.278   7.197  71.292  1.00  0.00    -0.151 NA 
ENDROOT
BRANCH  10  11
HETATM   11  N   UNL     1      -9.597   8.344  70.591  1.00  0.00    -0.167 N  
HETATM   12  C   UNL     1     -10.887   8.458  70.084  1.00  0.00    -0.236 C  
HETATM   13  H   UNL     1      -8.909   9.084  70.449  1.00  0.00     0.000 HD 
HETATM   14  O   UNL     1     -11.811   7.681  70.304  1.00  0.00    -0.085 OA 
BRANCH  12  15
HETATM   15  C   UNL     1     -11.093   9.572  69.118  1.00  0.00    -0.082 A  
HETATM   16  C   UNL     1     -10.535   9.460  67.837  1.00  0.00    -0.296 A  
HETATM   17  C   UNL     1     -10.590  10.546  66.947  1.00  0.00    -0.243 A  
HETATM   18  C   UNL     1     -11.226  11.732  67.326  1.00  0.00    -0.305 A  
HETATM   19  C   UNL     1     -11.782  10.735  69.473  1.00  0.00    -0.384 A  
HETATM   20 CL   UNL     1     -11.290  13.154  66.350  1.00  0.00    -0.331 Cl 
HETATM   21  C   UNL     1     -11.842  11.810  68.581  1.00  0.00    -0.369 A  
BRANCH  17  22
HETATM   22  S   UNL     1      -9.789  10.390  65.384  1.00  0.00    -0.301 S  
HETATM   23  O   UNL     1     -10.638  10.956  64.360  1.00  0.00    -0.360 OA 
HETATM   24  N   UNL     1      -8.495  11.450  65.495  1.00  0.00    -0.385 N  
HETATM   25  H1  UNL     1      -8.031  11.359  64.590  1.00  0.00     0.000 HD 
HETATM   26  O   UNL     1      -9.246   9.057  65.268  1.00  0.00    -0.209 OA 
HETATM   27  H2  UNL     1      -8.232  12.045  66.280  1.00  0.00     0.000 HD 
ENDBRANCH  17  22
ENDBRANCH  12  15
ENDBRANCH  10  11
TORSDOF 3
ENDMDL
MODEL      149
REMARK 921   NORMALIZED FREE ENERGY PREDICTED BY IDOCK:   -3.86 KCAL/MOL
REMARK 922        TOTAL FREE ENERGY PREDICTED BY IDOCK:   -5.19 KCAL/MOL
REMARK 923 INTER-LIGAND FREE ENERGY PREDICTED BY IDOCK:   -5.61 KCAL/MOL
REMARK 924 INTRA-LIGAND FREE ENERGY PREDICTED BY IDOCK:    0.42 KCAL/MOL
REMARK 927      BINDING AFFINITY PREDICTED BY RF-SCORE:    0.00 PKD
ROOT
HETATM    1  C   UNL     1     -11.222  15.684  69.902  1.00  0.00    -0.335 C  
HETATM    2  C   UNL     1     -11.187  16.585  68.669  1.00  0.00    -0.297 A  
HETATM    3  C   UNL     1     -10.409  17.901  68.950  1.00  0.00    -0.272 A  
HETATM    4  C   UNL     1      -9.242  17.803  68.016  1.00  0.00    -0.273 A  
HETATM    5  C   UNL     1      -8.211  18.714  67.847  1.00  0.00    -0.285 A  
HETATM    6  C   UNL     1      -7.231  18.426  66.896  1.00  0.00    -0.225 A  
HETATM    7  C   UNL     1      -7.289  17.236  66.154  1.00  0.00    -0.316 A  
HETATM    8  C   UNL     1      -8.344  16.332  66.334  1.00  0.00    -0.365 A  
HETATM    9  C   UNL     1      -9.335  16.635  67.254  1.00  0.00    -0.230 A  
HETATM   10  N   UNL     1     -10.532  15.956  67.508  1.00  0.00    -0.292 NA 
ENDROOT
BRANCH  10  11
HETATM   11  N   UNL     1     -10.639  14.608  67.222  1.00  0.00    -0.280 N  
HETATM   12  C   UNL     1      -9.727  13.743  67.816  1.00  0.00    -0.230 C  
HETATM   13  H   UNL     1     -11.365  14.258  66.596  1.00  0.00     0.000 HD 
HETATM   14  O   UNL     1      -8.901  14.054  68.670  1.00  0.00    -0.175 OA 
BRANCH  12  15
HETATM   15  C   UNL     1      -9.716  12.359  67.270  1.00  0.00    -0.201 A  
HETATM   16  C   UNL     1      -9.598  11.286  68.164  1.00  0.00    -0.186 A  
HETATM   17  C   UNL     1      -9.446   9.976  67.678  1.00  0.00    -0.144 A  
HETATM   18  C   UNL     1      -9.440   9.736  66.301  1.00  0.00    -0.195 A  
HETATM   19  C   UNL     1      -9.773  12.110  65.896  1.00  0.00    -0.253 A  
HETATM   20 CL   UNL     1      -9.186   8.184  65.588  1.00  0.00    -0.108 Cl 
HETATM   21  C   UNL     1      -9.630  10.804  65.416  1.00  0.00    -0.272 A  
BRANCH  17  22
HETATM   22  S   UNL     1      -9.204   8.673  68.842  1.00  0.00    -0.145 S  
HETATM   23  O   UNL     1      -7.809   8.295  68.843  1.00  0.00    -0.107 OA 
HETATM   24  N   UNL     1      -9.440   9.419  70.325  1.00  0.00    -0.233 N  
HETATM   25  H1  UNL     1      -9.301   8.665  70.998  1.00  0.00     0.000 HD 
HETATM   26  O   UNL     1     -10.256   7.698  68.677  1.00  0.00    -0.190 OA 
HETATM   27  H2  UNL     1      -9.670  10.395  70.511  1.00  0.00     0.000 HD 
ENDBRANCH  17  22
ENDBRANCH  12  15
ENDBRANCH  10  11
TORSDOF 3
ENDMDL
MODEL      150
REMARK 921   NORMALIZED FREE ENERGY PREDICTED BY IDOCK:   -3.85 KCAL/MOL
REMARK 922        TOTAL FREE ENERGY PREDICTED BY IDOCK:   -5.19 KCAL/MOL
REMARK 923 INTER-LIGAND FREE ENERGY PREDICTED BY IDOCK:   -4.58 KCAL/MOL
REMARK 924 INTRA-LIGAND FREE ENERGY PREDICTED BY IDOCK:   -0.61 KCAL/MOL
REMARK 927      BINDING AFFINITY PREDICTED BY RF-SCORE:    0.00 PKD
ROOT
HETATM    1  C   UNL     1     -10.004  10.340  64.936  1.00  0.00    -0.393 C  
HETATM    2  C   UNL     1      -9.422  10.907  66.230  1.00  0.00    -0.194 A  
HETATM    3  C   UNL     1      -9.849  12.386  66.443  1.00  0.00    -0.249 A  
HETATM    4  C   UNL     1     -10.668  12.319  67.695  1.00  0.00    -0.250 A  
HETATM    5  C   UNL     1     -11.307  13.361  68.350  1.00  0.00    -0.329 A  
HETATM    6  C   UNL     1     -12.003  13.069  69.523  1.00  0.00    -0.350 A  
HETATM    7  C   UNL     1     -12.066  11.753  70.004  1.00  0.00    -0.387 A  
HETATM    8  C   UNL     1     -11.407  10.714  69.332  1.00  0.00    -0.348 A  
HETATM    9  C   UNL     1     -10.686  11.010  68.186  1.00  0.00    -0.205 A  
HETATM   10  N   UNL     1      -9.856  10.172  67.433  1.00  0.00    -0.180 NA 
ENDROOT
BRANCH  10  11
HETATM   11  N   UNL     1     -10.051   8.804  67.450  1.00  0.00    -0.207 N  
HETATM   12  C   UNL     1      -9.203   8.037  68.239  1.00  0.00    -0.134 C  
HETATM   13  H   UNL     1     -10.794   8.371  66.900  1.00  0.00     0.000 HD 
HETATM   14  O   UNL     1      -8.365   8.475  69.021  1.00  0.00    -0.115 OA 
BRANCH  12  15
HETATM   15  C   UNL     1      -9.281   6.568  68.012  1.00  0.00    -0.111 A  
HETATM   16  C   UNL     1      -8.630   5.714  68.914  1.00  0.00    -0.101 A  
HETATM   17  C   UNL     1      -8.565   4.334  68.657  1.00  0.00    -0.093 A  
HETATM   18  C   UNL     1      -9.172   3.804  67.515  1.00  0.00    -0.182 A  
HETATM   19  C   UNL     1      -9.941   6.029  66.904  1.00  0.00    -0.207 A  
HETATM   20 CL   UNL     1      -9.093   2.142  67.057  1.00  0.00    -0.146 Cl 
HETATM   21  C   UNL     1      -9.880   4.654  66.656  1.00  0.00    -0.239 A  
BRANCH  17  22
HETATM   22  S   UNL     1      -7.652   3.317  69.771  1.00  0.00    -0.044 S  
HETATM   23  O   UNL     1      -6.454   2.851  69.111  1.00  0.00    -0.029 OA 
HETATM   24  N   UNL     1      -7.103   4.395  70.932  1.00  0.00    -0.036 N  
HETATM   25  H1  UNL     1      -6.575   3.807  71.577  1.00  0.00     0.000 HD 
HETATM   26  O   UNL     1      -8.562   2.407  70.425  1.00  0.00    -0.049 OA 
HETATM   27  H2  UNL     1      -7.260   5.402  70.982  1.00  0.00     0.000 HD 
ENDBRANCH  17  22
ENDBRANCH  12  15
ENDBRANCH  10  11
TORSDOF 3
ENDMDL
MODEL      151
REMARK 921   NORMALIZED FREE ENERGY PREDICTED BY IDOCK:   -3.85 KCAL/MOL
REMARK 922        TOTAL FREE ENERGY PREDICTED BY IDOCK:   -5.19 KCAL/MOL
REMARK 923 INTER-LIGAND FREE ENERGY PREDICTED BY IDOCK:   -5.80 KCAL/MOL
REMARK 924 INTRA-LIGAND FREE ENERGY PREDICTED BY IDOCK:    0.61 KCAL/MOL
REMARK 927      BINDING AFFINITY PREDICTED BY RF-SCORE:    0.00 PKD
ROOT
HETATM    1  C   UNL     1     -10.933  12.024  69.822  1.00  0.00     0.142 C  
HETATM    2  C   UNL     1     -11.995  12.352  68.774  1.00  0.00    -0.229 A  
HETATM    3  C   UNL     1     -11.818  13.792  68.218  1.00  0.00    -0.413 A  
HETATM    4  C   UNL     1     -11.506  13.556  66.773  1.00  0.00    -0.374 A  
HETATM    5  C   UNL     1     -11.250  14.501  65.792  1.00  0.00    -0.334 A  
HETATM    6  C   UNL     1     -11.002  14.051  64.495  1.00  0.00    -0.361 A  
HETATM    7  C   UNL     1     -10.993  12.677  64.209  1.00  0.00    -0.404 A  
HETATM    8  C   UNL     1     -11.262  11.737  65.212  1.00  0.00    -0.315 A  
HETATM    9  C   UNL     1     -11.543  12.186  66.493  1.00  0.00    -0.359 A  
HETATM   10  N   UNL     1     -11.959  11.450  67.607  1.00  0.00    -0.626 NA 
ENDROOT
BRANCH  10  11
HETATM   11  N   UNL     1     -11.654  10.105  67.705  1.00  0.00    -0.254 N  
HETATM   12  C   UNL     1     -10.319   9.733  67.606  1.00  0.00    -0.230 C  
HETATM   13  H   UNL     1     -12.386   9.408  67.847  1.00  0.00     0.000 HD 
HETATM   14  O   UNL     1      -9.365  10.504  67.555  1.00  0.00    -0.148 OA 
BRANCH  12  15
HETATM   15  C   UNL     1     -10.078   8.273  67.446  1.00  0.00    -0.298 A  
HETATM   16  C   UNL     1      -9.247   7.841  66.403  1.00  0.00    -0.229 A  
HETATM   17  C   UNL     1      -9.106   6.468  66.136  1.00  0.00    -0.124 A  
HETATM   18  C   UNL     1      -9.772   5.528  66.927  1.00  0.00    -0.150 A  
HETATM   19  C   UNL     1     -10.693   7.331  68.275  1.00  0.00    -0.174 A  
HETATM   20 CL   UNL     1      -9.736   3.825  66.649  1.00  0.00    -0.200 Cl 
HETATM   21  C   UNL     1     -10.544   5.965  68.011  1.00  0.00    -0.321 A  
BRANCH  17  22
HETATM   22  S   UNL     1      -8.126   5.980  64.754  1.00  0.00    -0.119 S  
HETATM   23  O   UNL     1      -7.628   7.162  64.088  1.00  0.00    -0.095 OA 
HETATM   24  N   UNL     1      -6.770   5.287  65.456  1.00  0.00    -0.044 N  
HETATM   25  H1  UNL     1      -6.203   5.004  64.656  1.00  0.00     0.000 HD 
HETATM   26  O   UNL     1      -8.819   4.938  64.035  1.00  0.00    -0.141 OA 
HETATM   27  H2  UNL     1      -6.561   5.174  66.447  1.00  0.00     0.000 HD 
ENDBRANCH  17  22
ENDBRANCH  12  15
ENDBRANCH  10  11
TORSDOF 3
ENDMDL
MODEL      152
REMARK 921   NORMALIZED FREE ENERGY PREDICTED BY IDOCK:   -3.85 KCAL/MOL
REMARK 922        TOTAL FREE ENERGY PREDICTED BY IDOCK:   -5.18 KCAL/MOL
REMARK 923 INTER-LIGAND FREE ENERGY PREDICTED BY IDOCK:   -4.92 KCAL/MOL
REMARK 924 INTRA-LIGAND FREE ENERGY PREDICTED BY IDOCK:   -0.26 KCAL/MOL
REMARK 927      BINDING AFFINITY PREDICTED BY RF-SCORE:    0.00 PKD
ROOT
HETATM    1  C   UNL     1      -7.725  10.840  68.979  1.00  0.00    -0.133 C  
HETATM    2  C   UNL     1      -9.133  11.402  68.781  1.00  0.00    -0.089 A  
HETATM    3  C   UNL     1      -9.092  12.846  68.209  1.00  0.00    -0.180 A  
HETATM    4  C   UNL     1      -9.750  12.693  66.872  1.00  0.00    -0.234 A  
HETATM    5  C   UNL     1      -9.983  13.675  65.922  1.00  0.00    -0.304 A  
HETATM    6  C   UNL     1     -10.637  13.308  64.746  1.00  0.00    -0.402 A  
HETATM    7  C   UNL     1     -11.025  11.976  64.534  1.00  0.00    -0.369 A  
HETATM    8  C   UNL     1     -10.788  10.999  65.511  1.00  0.00    -0.159 A  
HETATM    9  C   UNL     1     -10.169  11.371  66.693  1.00  0.00    -0.222 A  
HETATM   10  N   UNL     1      -9.949  10.607  67.845  1.00  0.00    -0.163 NA 
ENDROOT
BRANCH  10  11
HETATM   11  N   UNL     1      -9.870   9.230  67.760  1.00  0.00    -0.164 N  
HETATM   12  C   UNL     1     -10.454   8.482  68.775  1.00  0.00    -0.184 C  
HETATM   13  H   UNL     1      -9.397   8.777  66.977  1.00  0.00     0.000 HD 
HETATM   14  O   UNL     1     -11.142   8.931  69.687  1.00  0.00    -0.175 OA 
BRANCH  12  15
HETATM   15  C   UNL     1     -10.108   7.034  68.776  1.00  0.00    -0.170 A  
HETATM   16  C   UNL     1      -9.657   6.452  67.583  1.00  0.00    -0.126 A  
HETATM   17  C   UNL     1      -9.452   5.064  67.509  1.00  0.00    -0.135 A  
HETATM   18  C   UNL     1      -9.672   4.262  68.632  1.00  0.00    -0.104 A  
HETATM   19  C   UNL     1     -10.267   6.240  69.915  1.00  0.00    -0.232 A  
HETATM   20 CL   UNL     1      -9.527   2.542  68.640  1.00  0.00    -0.241 Cl 
HETATM   21  C   UNL     1     -10.055   4.860  69.839  1.00  0.00    -0.332 A  
BRANCH  17  22
HETATM   22  S   UNL     1      -8.976   4.369  65.959  1.00  0.00    -0.128 S  
HETATM   23  O   UNL     1      -8.126   3.224  66.197  1.00  0.00    -0.090 OA 
HETATM   24  N   UNL     1     -10.403   3.719  65.363  1.00  0.00    -0.437 N  
HETATM   25  H1  UNL     1     -10.128   3.316  64.467  1.00  0.00     0.000 HD 
HETATM   26  O   UNL     1      -8.584   5.435  65.069  1.00  0.00    -0.148 OA 
HETATM   27  H2  UNL     1     -11.327   3.724  65.795  1.00  0.00     0.000 HD 
ENDBRANCH  17  22
ENDBRANCH  12  15
ENDBRANCH  10  11
TORSDOF 3
ENDMDL
MODEL      153
REMARK 921   NORMALIZED FREE ENERGY PREDICTED BY IDOCK:   -3.81 KCAL/MOL
REMARK 922        TOTAL FREE ENERGY PREDICTED BY IDOCK:   -5.14 KCAL/MOL
REMARK 923 INTER-LIGAND FREE ENERGY PREDICTED BY IDOCK:   -4.71 KCAL/MOL
REMARK 924 INTRA-LIGAND FREE ENERGY PREDICTED BY IDOCK:   -0.43 KCAL/MOL
REMARK 927      BINDING AFFINITY PREDICTED BY RF-SCORE:    0.00 PKD
ROOT
HETATM    1  C   UNL     1      -9.284  10.558  69.118  1.00  0.00    -0.183 C  
HETATM    2  C   UNL     1     -10.490  10.514  68.181  1.00  0.00    -0.186 A  
HETATM    3  C   UNL     1     -10.962  11.944  67.796  1.00  0.00    -0.278 A  
HETATM    4  C   UNL     1     -10.731  11.984  66.317  1.00  0.00    -0.302 A  
HETATM    5  C   UNL     1     -10.977  13.034  65.446  1.00  0.00    -0.297 A  
HETATM    6  C   UNL     1     -10.704  12.841  64.092  1.00  0.00    -0.441 A  
HETATM    7  C   UNL     1     -10.176  11.622  63.640  1.00  0.00    -0.451 A  
HETATM    8  C   UNL     1      -9.941  10.569  64.535  1.00  0.00    -0.413 A  
HETATM    9  C   UNL     1     -10.246  10.750  65.875  1.00  0.00    -0.259 A  
HETATM   10  N   UNL     1     -10.216   9.813  66.913  1.00  0.00    -0.236 NA 
ENDROOT
BRANCH  10  11
HETATM   11  N   UNL     1      -9.391   8.707  66.829  1.00  0.00    -0.166 N  
HETATM   12  C   UNL     1      -9.970   7.452  66.971  1.00  0.00    -0.231 C  
HETATM   13  H   UNL     1      -8.389   8.810  66.666  1.00  0.00     0.000 HD 
HETATM   14  O   UNL     1     -11.174   7.226  67.050  1.00  0.00    -0.221 OA 
BRANCH  12  15
HETATM   15  C   UNL     1      -9.010   6.327  67.142  1.00  0.00    -0.111 A  
HETATM   16  C   UNL     1      -9.115   5.220  66.287  1.00  0.00    -0.139 A  
HETATM   17  C   UNL     1      -8.320   4.083  66.505  1.00  0.00    -0.104 A  
HETATM   18  C   UNL     1      -7.401   4.061  67.558  1.00  0.00    -0.068 A  
HETATM   19  C   UNL     1      -8.048   6.328  68.156  1.00  0.00    -0.115 A  
HETATM   20 CL   UNL     1      -6.427   2.696  67.968  1.00  0.00    -0.032 Cl 
HETATM   21  C   UNL     1      -7.252   5.197  68.364  1.00  0.00    -0.063 A  
BRANCH  17  22
HETATM   22  S   UNL     1      -8.558   2.681  65.461  1.00  0.00    -0.113 S  
HETATM   23  O   UNL     1      -9.412   3.056  64.357  1.00  0.00    -0.136 OA 
HETATM   24  N   UNL     1      -7.050   2.444  64.768  1.00  0.00    -0.052 N  
HETATM   25  H1  UNL     1      -7.187   1.633  64.165  1.00  0.00     0.000 HD 
HETATM   26  O   UNL     1      -8.841   1.529  66.284  1.00  0.00    -0.116 OA 
HETATM   27  H2  UNL     1      -6.196   2.982  64.916  1.00  0.00     0.000 HD 
ENDBRANCH  17  22
ENDBRANCH  12  15
ENDBRANCH  10  11
TORSDOF 3
ENDMDL
MODEL      154
REMARK 921   NORMALIZED FREE ENERGY PREDICTED BY IDOCK:   -3.74 KCAL/MOL
REMARK 922        TOTAL FREE ENERGY PREDICTED BY IDOCK:   -5.06 KCAL/MOL
REMARK 923 INTER-LIGAND FREE ENERGY PREDICTED BY IDOCK:   -4.38 KCAL/MOL
REMARK 924 INTRA-LIGAND FREE ENERGY PREDICTED BY IDOCK:   -0.67 KCAL/MOL
REMARK 927      BINDING AFFINITY PREDICTED BY RF-SCORE:    0.00 PKD
ROOT
HETATM    1  C   UNL     1     -10.853   6.265  68.537  1.00  0.00    -0.394 C  
HETATM    2  C   UNL     1      -9.500   5.657  68.168  1.00  0.00    -0.110 A  
HETATM    3  C   UNL     1      -9.663   4.235  67.563  1.00  0.00    -0.198 A  
HETATM    4  C   UNL     1      -9.150   4.407  66.166  1.00  0.00    -0.130 A  
HETATM    5  C   UNL     1      -9.064   3.449  65.168  1.00  0.00    -0.144 A  
HETATM    6  C   UNL     1      -8.528   3.829  63.938  1.00  0.00    -0.092 A  
HETATM    7  C   UNL     1      -8.112   5.152  63.722  1.00  0.00    -0.115 A  
HETATM    8  C   UNL     1      -8.199   6.104  64.746  1.00  0.00    -0.112 A  
HETATM    9  C   UNL     1      -8.699   5.717  65.979  1.00  0.00    -0.144 A  
HETATM   10  N   UNL     1      -8.760   6.451  67.169  1.00  0.00    -0.110 NA 
ENDROOT
BRANCH  10  11
HETATM   11  N   UNL     1      -8.791   7.832  67.133  1.00  0.00    -0.123 N  
HETATM   12  C   UNL     1      -7.919   8.524  67.964  1.00  0.00    -0.111 C  
HETATM   13  H   UNL     1      -9.435   8.328  66.515  1.00  0.00     0.000 HD 
HETATM   14  O   UNL     1      -7.033   8.019  68.648  1.00  0.00    -0.067 OA 
BRANCH  12  15
HETATM   15  C   UNL     1      -8.180   9.985  68.084  1.00  0.00    -0.109 A  
HETATM   16  C   UNL     1      -9.495  10.413  68.316  1.00  0.00    -0.153 A  
HETATM   17  C   UNL     1      -9.803  11.784  68.298  1.00  0.00    -0.198 A  
HETATM   18  C   UNL     1      -8.795  12.726  68.075  1.00  0.00    -0.195 A  
HETATM   19  C   UNL     1      -7.163  10.929  67.923  1.00  0.00    -0.086 A  
HETATM   20 CL   UNL     1      -9.065  14.427  67.955  1.00  0.00    -0.181 Cl 
HETATM   21  C   UNL     1      -7.473  12.293  67.914  1.00  0.00    -0.121 A  
BRANCH  17  22
HETATM   22  S   UNL     1     -11.487  12.267  68.500  1.00  0.00    -0.327 S  
HETATM   23  O   UNL     1     -12.022  12.659  67.216  1.00  0.00    -0.424 OA 
HETATM   24  N   UNL     1     -12.270  10.829  68.862  1.00  0.00    -0.456 N  
HETATM   25  H1  UNL     1     -13.244  11.108  68.980  1.00  0.00     0.000 HD 
HETATM   26  O   UNL     1     -11.592  13.119  69.660  1.00  0.00    -0.283 OA 
HETATM   27  H2  UNL     1     -11.867   9.896  68.947  1.00  0.00     0.000 HD 
ENDBRANCH  17  22
ENDBRANCH  12  15
ENDBRANCH  10  11
TORSDOF 3
ENDMDL
MODEL      155
REMARK 921   NORMALIZED FREE ENERGY PREDICTED BY IDOCK:   -3.74 KCAL/MOL
REMARK 922        TOTAL FREE ENERGY PREDICTED BY IDOCK:   -5.05 KCAL/MOL
REMARK 923 INTER-LIGAND FREE ENERGY PREDICTED BY IDOCK:   -4.70 KCAL/MOL
REMARK 924 INTRA-LIGAND FREE ENERGY PREDICTED BY IDOCK:   -0.35 KCAL/MOL
REMARK 927      BINDING AFFINITY PREDICTED BY RF-SCORE:    0.00 PKD
ROOT
HETATM    1  C   UNL     1     -11.080  11.036  65.556  1.00  0.00     0.001 C  
HETATM    2  C   UNL     1     -10.068  12.037  65.002  1.00  0.00    -0.264 A  
HETATM    3  C   UNL     1     -10.772  13.189  64.233  1.00  0.00    -0.431 A  
HETATM    4  C   UNL     1     -10.426  14.395  65.050  1.00  0.00    -0.454 A  
HETATM    5  C   UNL     1     -10.798  15.711  64.823  1.00  0.00    -0.377 A  
HETATM    6  C   UNL     1     -10.339  16.685  65.710  1.00  0.00    -0.338 A  
HETATM    7  C   UNL     1      -9.542  16.327  66.809  1.00  0.00    -0.254 A  
HETATM    8  C   UNL     1      -9.170  14.992  67.017  1.00  0.00    -0.246 A  
HETATM    9  C   UNL     1      -9.597  14.031  66.115  1.00  0.00    -0.241 A  
HETATM   10  N   UNL     1      -9.250  12.677  66.049  1.00  0.00    -0.062 NA 
ENDROOT
BRANCH  10  11
HETATM   11  N   UNL     1      -8.828  12.012  67.185  1.00  0.00    -0.181 N  
HETATM   12  C   UNL     1      -7.760  11.130  67.063  1.00  0.00    -0.139 C  
HETATM   13  H   UNL     1      -9.285  12.163  68.085  1.00  0.00     0.000 HD 
HETATM   14  O   UNL     1      -7.076  10.973  66.056  1.00  0.00    -0.105 OA 
BRANCH  12  15
HETATM   15  C   UNL     1      -7.527  10.249  68.240  1.00  0.00    -0.086 A  
HETATM   16  C   UNL     1      -8.630   9.854  69.011  1.00  0.00    -0.149 A  
HETATM   17  C   UNL     1      -8.435   9.139  70.204  1.00  0.00    -0.176 A  
HETATM   18  C   UNL     1      -7.144   8.796  70.614  1.00  0.00    -0.063 A  
HETATM   19  C   UNL     1      -6.242   9.852  68.618  1.00  0.00    -0.041 A  
HETATM   20 CL   UNL     1      -6.778   7.988  72.095  1.00  0.00    -0.063 Cl 
HETATM   21  C   UNL     1      -6.053   9.134  69.804  1.00  0.00    -0.038 A  
BRANCH  17  22
HETATM   22  S   UNL     1      -9.848   8.748  71.186  1.00  0.00    -0.270 S  
HETATM   23  O   UNL     1     -11.017   9.355  70.592  1.00  0.00    -0.244 OA 
HETATM   24  N   UNL     1     -10.055   7.102  70.944  1.00  0.00    -0.193 N  
HETATM   25  H1  UNL     1     -10.872   6.876  71.512  1.00  0.00     0.000 HD 
HETATM   26  O   UNL     1      -9.516   8.940  72.578  1.00  0.00    -0.287 OA 
HETATM   27  H2  UNL     1      -9.497   6.475  70.365  1.00  0.00     0.000 HD 
ENDBRANCH  17  22
ENDBRANCH  12  15
ENDBRANCH  10  11
TORSDOF 3
ENDMDL
MODEL      156
REMARK 921   NORMALIZED FREE ENERGY PREDICTED BY IDOCK:   -3.73 KCAL/MOL
REMARK 922        TOTAL FREE ENERGY PREDICTED BY IDOCK:   -5.05 KCAL/MOL
REMARK 923 INTER-LIGAND FREE ENERGY PREDICTED BY IDOCK:   -4.99 KCAL/MOL
REMARK 924 INTRA-LIGAND FREE ENERGY PREDICTED BY IDOCK:   -0.05 KCAL/MOL
REMARK 927      BINDING AFFINITY PREDICTED BY RF-SCORE:    0.00 PKD
ROOT
HETATM    1  C   UNL     1      -8.488  11.299  62.993  1.00  0.00     0.112 C  
HETATM    2  C   UNL     1      -9.296  10.040  63.304  1.00  0.00    -0.256 A  
HETATM    3  C   UNL     1      -8.590   8.765  62.764  1.00  0.00    -0.133 A  
HETATM    4  C   UNL     1      -8.285   7.999  64.014  1.00  0.00    -0.049 A  
HETATM    5  C   UNL     1      -7.650   6.772  64.125  1.00  0.00    -0.105 A  
HETATM    6  C   UNL     1      -7.489   6.230  65.401  1.00  0.00    -0.083 A  
HETATM    7  C   UNL     1      -7.942   6.927  66.532  1.00  0.00    -0.109 A  
HETATM    8  C   UNL     1      -8.588   8.163  66.398  1.00  0.00    -0.150 A  
HETATM    9  C   UNL     1      -8.779   8.684  65.128  1.00  0.00    -0.144 A  
HETATM   10  N   UNL     1      -9.500   9.822  64.748  1.00  0.00    -0.279 NA 
ENDROOT
BRANCH  10  11
HETATM   11  N   UNL     1      -9.691  10.855  65.645  1.00  0.00    -0.219 N  
HETATM   12  C   UNL     1     -10.761  11.715  65.428  1.00  0.00    -0.287 C  
HETATM   13  H   UNL     1      -9.066  10.983  66.442  1.00  0.00     0.000 HD 
HETATM   14  O   UNL     1     -11.629  11.572  64.572  1.00  0.00    -0.211 OA 
BRANCH  12  15
HETATM   15  C   UNL     1     -10.758  12.953  66.255  1.00  0.00    -0.292 A  
HETATM   16  C   UNL     1      -9.526  13.518  66.612  1.00  0.00    -0.271 A  
HETATM   17  C   UNL     1      -9.480  14.603  67.504  1.00  0.00    -0.198 A  
HETATM   18  C   UNL     1     -10.665  15.140  68.017  1.00  0.00    -0.264 A  
HETATM   19  C   UNL     1     -11.944  13.530  66.719  1.00  0.00    -0.453 A  
HETATM   20 CL   UNL     1     -10.729  16.419  69.174  1.00  0.00    -0.295 Cl 
HETATM   21  C   UNL     1     -11.894  14.615  67.600  1.00  0.00    -0.366 A  
BRANCH  17  22
HETATM   22  S   UNL     1      -7.902  15.216  67.997  1.00  0.00    -0.139 S  
HETATM   23  O   UNL     1      -7.948  16.660  68.034  1.00  0.00    -0.165 OA 
HETATM   24  N   UNL     1      -7.783  14.755  69.605  1.00  0.00    -0.386 N  
HETATM   25  H1  UNL     1      -6.870  15.109  69.890  1.00  0.00     0.000 HD 
HETATM   26  O   UNL     1      -6.877  14.507  67.268  1.00  0.00    -0.252 OA 
HETATM   27  H2  UNL     1      -8.463  14.241  70.165  1.00  0.00     0.000 HD 
ENDBRANCH  17  22
ENDBRANCH  12  15
ENDBRANCH  10  11
TORSDOF 3
ENDMDL
MODEL      157
REMARK 921   NORMALIZED FREE ENERGY PREDICTED BY IDOCK:   -3.73 KCAL/MOL
REMARK 922        TOTAL FREE ENERGY PREDICTED BY IDOCK:   -5.04 KCAL/MOL
REMARK 923 INTER-LIGAND FREE ENERGY PREDICTED BY IDOCK:   -4.42 KCAL/MOL
REMARK 924 INTRA-LIGAND FREE ENERGY PREDICTED BY IDOCK:   -0.62 KCAL/MOL
REMARK 927      BINDING AFFINITY PREDICTED BY RF-SCORE:    0.00 PKD
ROOT
HETATM    1  C   UNL     1     -11.774   8.096  72.683  1.00  0.00    -0.419 C  
HETATM    2  C   UNL     1     -10.442   7.355  72.793  1.00  0.00    -0.275 A  
HETATM    3  C   UNL     1     -10.593   6.034  73.599  1.00  0.00    -0.281 A  
HETATM    4  C   UNL     1     -10.262   4.985  72.583  1.00  0.00    -0.236 A  
HETATM    5  C   UNL     1     -10.240   3.610  72.757  1.00  0.00    -0.239 A  
HETATM    6  C   UNL     1      -9.879   2.816  71.667  1.00  0.00    -0.211 A  
HETATM    7  C   UNL     1      -9.570   3.404  70.431  1.00  0.00    -0.227 A  
HETATM    8  C   UNL     1      -9.590   4.797  70.277  1.00  0.00    -0.269 A  
HETATM    9  C   UNL     1      -9.915   5.586  71.369  1.00  0.00    -0.186 A  
HETATM   10  N   UNL     1      -9.875   6.980  71.485  1.00  0.00    -0.173 NA 
ENDROOT
BRANCH  10  11
HETATM   11  N   UNL     1      -9.992   7.774  70.359  1.00  0.00    -0.188 N  
HETATM   12  C   UNL     1      -8.943   8.635  70.060  1.00  0.00    -0.147 C  
HETATM   13  H   UNL     1     -10.822   7.729  69.767  1.00  0.00     0.000 HD 
HETATM   14  O   UNL     1      -7.862   8.672  70.641  1.00  0.00    -0.079 OA 
BRANCH  12  15
HETATM   15  C   UNL     1      -9.233   9.648  69.008  1.00  0.00    -0.156 A  
HETATM   16  C   UNL     1      -9.003   9.307  67.668  1.00  0.00    -0.126 A  
HETATM   17  C   UNL     1      -9.134  10.279  66.661  1.00  0.00    -0.144 A  
HETATM   18  C   UNL     1      -9.521  11.581  66.990  1.00  0.00    -0.183 A  
HETATM   19  C   UNL     1      -9.681  10.932  69.328  1.00  0.00    -0.087 A  
HETATM   20 CL   UNL     1      -9.641  12.874  65.852  1.00  0.00    -0.188 Cl 
HETATM   21  C   UNL     1      -9.818  11.894  68.322  1.00  0.00    -0.199 A  
BRANCH  17  22
HETATM   22  S   UNL     1      -8.739   9.826  65.003  1.00  0.00    -0.190 S  
HETATM   23  O   UNL     1      -7.595  10.592  64.565  1.00  0.00    -0.078 OA 
HETATM   24  N   UNL     1      -8.167   8.256  65.148  1.00  0.00    -0.148 N  
HETATM   25  H1  UNL     1      -7.939   7.994  64.188  1.00  0.00     0.000 HD 
HETATM   26  O   UNL     1      -9.958   9.771  64.231  1.00  0.00     0.006 OA 
HETATM   27  H2  UNL     1      -8.070   7.696  65.994  1.00  0.00     0.000 HD 
ENDBRANCH  17  22
ENDBRANCH  12  15
ENDBRANCH  10  11
TORSDOF 3
ENDMDL
MODEL      158
REMARK 921   NORMALIZED FREE ENERGY PREDICTED BY IDOCK:   -3.73 KCAL/MOL
REMARK 922        TOTAL FREE ENERGY PREDICTED BY IDOCK:   -5.04 KCAL/MOL
REMARK 923 INTER-LIGAND FREE ENERGY PREDICTED BY IDOCK:   -4.38 KCAL/MOL
REMARK 924 INTRA-LIGAND FREE ENERGY PREDICTED BY IDOCK:   -0.66 KCAL/MOL
REMARK 927      BINDING AFFINITY PREDICTED BY RF-SCORE:    0.00 PKD
ROOT
HETATM    1  C   UNL     1      -9.679  10.965  66.825  1.00  0.00    -0.221 C  
HETATM    2  C   UNL     1     -10.104   9.987  65.731  1.00  0.00    -0.250 A  
HETATM    3  C   UNL     1      -9.618  10.456  64.331  1.00  0.00    -0.375 A  
HETATM    4  C   UNL     1      -8.671   9.368  63.926  1.00  0.00    -0.225 A  
HETATM    5  C   UNL     1      -7.939   9.272  62.753  1.00  0.00    -0.135 A  
HETATM    6  C   UNL     1      -7.129   8.149  62.575  1.00  0.00    -0.090 A  
HETATM    7  C   UNL     1      -7.052   7.164  63.572  1.00  0.00    -0.069 A  
HETATM    8  C   UNL     1      -7.806   7.275  64.747  1.00  0.00    -0.126 A  
HETATM    9  C   UNL     1      -8.636   8.373  64.908  1.00  0.00    -0.080 A  
HETATM   10  N   UNL     1      -9.564   8.628  65.924  1.00  0.00    -0.191 NA 
ENDROOT
BRANCH  10  11
HETATM   11  N   UNL     1      -9.406   8.052  67.170  1.00  0.00    -0.143 N  
HETATM   12  C   UNL     1     -10.310   7.067  67.550  1.00  0.00    -0.225 C  
HETATM   13  H   UNL     1      -8.649   8.340  67.791  1.00  0.00     0.000 HD 
HETATM   14  O   UNL     1     -11.173   6.575  66.830  1.00  0.00    -0.387 OA 
BRANCH  12  15
HETATM   15  C   UNL     1     -10.260   6.680  68.987  1.00  0.00    -0.196 A  
HETATM   16  C   UNL     1      -9.036   6.256  69.524  1.00  0.00    -0.134 A  
HETATM   17  C   UNL     1      -8.978   5.754  70.835  1.00  0.00    -0.145 A  
HETATM   18  C   UNL     1     -10.135   5.700  71.617  1.00  0.00    -0.195 A  
HETATM   19  C   UNL     1     -11.403   6.684  69.791  1.00  0.00    -0.412 A  
HETATM   20 CL   UNL     1     -10.200   5.034  73.208  1.00  0.00    -0.192 Cl 
HETATM   21  C   UNL     1     -11.339   6.190  71.098  1.00  0.00    -0.340 A  
BRANCH  17  22
HETATM   22  S   UNL     1      -7.433   5.144  71.431  1.00  0.00    -0.094 S  
HETATM   23  O   UNL     1      -7.485   3.701  71.482  1.00  0.00    -0.049 OA 
HETATM   24  N   UNL     1      -6.366   5.484  70.183  1.00  0.00    -0.029 N  
HETATM   25  H1  UNL     1      -5.473   5.132  70.527  1.00  0.00     0.000 HD 
HETATM   26  O   UNL     1      -7.029   5.931  72.571  1.00  0.00    -0.076 OA 
HETATM   27  H2  UNL     1      -6.563   5.937  69.290  1.00  0.00     0.000 HD 
ENDBRANCH  17  22
ENDBRANCH  12  15
ENDBRANCH  10  11
TORSDOF 3
ENDMDL
MODEL      159
REMARK 921   NORMALIZED FREE ENERGY PREDICTED BY IDOCK:   -3.72 KCAL/MOL
REMARK 922        TOTAL FREE ENERGY PREDICTED BY IDOCK:   -5.03 KCAL/MOL
REMARK 923 INTER-LIGAND FREE ENERGY PREDICTED BY IDOCK:   -4.40 KCAL/MOL
REMARK 924 INTRA-LIGAND FREE ENERGY PREDICTED BY IDOCK:   -0.63 KCAL/MOL
REMARK 927      BINDING AFFINITY PREDICTED BY RF-SCORE:    0.00 PKD
ROOT
HETATM    1  C   UNL     1      -7.542   8.722  67.415  1.00  0.00    -0.090 C  
HETATM    2  C   UNL     1      -7.733  10.077  68.095  1.00  0.00    -0.085 A  
HETATM    3  C   UNL     1      -8.322  11.127  67.112  1.00  0.00    -0.136 A  
HETATM    4  C   UNL     1      -9.650  11.448  67.725  1.00  0.00    -0.177 A  
HETATM    5  C   UNL     1     -10.609  12.335  67.260  1.00  0.00    -0.249 A  
HETATM    6  C   UNL     1     -11.774  12.494  68.010  1.00  0.00    -0.410 A  
HETATM    7  C   UNL     1     -11.967  11.757  69.189  1.00  0.00    -0.356 A  
HETATM    8  C   UNL     1     -10.982  10.872  69.647  1.00  0.00    -0.311 A  
HETATM    9  C   UNL     1      -9.810  10.740  68.920  1.00  0.00    -0.199 A  
HETATM   10  N   UNL     1      -8.652  10.025  69.247  1.00  0.00    -0.155 NA 
ENDROOT
BRANCH  10  11
HETATM   11  N   UNL     1      -8.723   8.944  70.105  1.00  0.00    -0.148 N  
HETATM   12  C   UNL     1      -7.775   8.856  71.118  1.00  0.00    -0.129 C  
HETATM   13  H   UNL     1      -9.448   8.233  69.999  1.00  0.00     0.000 HD 
HETATM   14  O   UNL     1      -6.945   9.717  71.396  1.00  0.00    -0.325 OA 
BRANCH  12  15
HETATM   15  C   UNL     1      -7.731   7.551  71.833  1.00  0.00    -0.088 A  
HETATM   16  C   UNL     1      -8.925   6.836  71.997  1.00  0.00    -0.138 A  
HETATM   17  C   UNL     1      -8.947   5.671  72.783  1.00  0.00    -0.124 A  
HETATM   18  C   UNL     1      -7.773   5.207  73.383  1.00  0.00    -0.099 A  
HETATM   19  C   UNL     1      -6.546   7.052  72.381  1.00  0.00    -0.057 A  
HETATM   20 CL   UNL     1      -7.693   3.837  74.429  1.00  0.00    -0.069 Cl 
HETATM   21  C   UNL     1      -6.571   5.889  73.156  1.00  0.00    -0.069 A  
BRANCH  17  22
HETATM   22  S   UNL     1     -10.494   4.861  73.037  1.00  0.00    -0.215 S  
HETATM   23  O   UNL     1     -10.831   4.921  74.441  1.00  0.00    -0.346 OA 
HETATM   24  N   UNL     1     -11.600   5.879  72.293  1.00  0.00    -0.303 N  
HETATM   25  H1  UNL     1     -12.494   5.410  72.440  1.00  0.00     0.000 HD 
HETATM   26  O   UNL     1     -10.494   3.616  72.307  1.00  0.00    -0.123 OA 
HETATM   27  H2  UNL     1     -11.421   6.757  71.808  1.00  0.00     0.000 HD 
ENDBRANCH  17  22
ENDBRANCH  12  15
ENDBRANCH  10  11
TORSDOF 3
ENDMDL
MODEL      160
REMARK 921   NORMALIZED FREE ENERGY PREDICTED BY IDOCK:   -3.71 KCAL/MOL
REMARK 922        TOTAL FREE ENERGY PREDICTED BY IDOCK:   -5.02 KCAL/MOL
REMARK 923 INTER-LIGAND FREE ENERGY PREDICTED BY IDOCK:   -5.56 KCAL/MOL
REMARK 924 INTRA-LIGAND FREE ENERGY PREDICTED BY IDOCK:    0.55 KCAL/MOL
REMARK 927      BINDING AFFINITY PREDICTED BY RF-SCORE:    0.00 PKD
ROOT
HETATM    1  C   UNL     1      -8.895  13.779  68.218  1.00  0.00    -0.185 C  
HETATM    2  C   UNL     1     -10.398  13.886  67.963  1.00  0.00    -0.245 A  
HETATM    3  C   UNL     1     -10.715  14.961  66.886  1.00  0.00    -0.308 A  
HETATM    4  C   UNL     1     -11.319  14.155  65.778  1.00  0.00    -0.317 A  
HETATM    5  C   UNL     1     -11.789  14.608  64.556  1.00  0.00    -0.442 A  
HETATM    6  C   UNL     1     -12.337  13.674  63.676  1.00  0.00    -0.328 A  
HETATM    7  C   UNL     1     -12.386  12.315  64.022  1.00  0.00    -0.569 A  
HETATM    8  C   UNL     1     -11.914  11.877  65.267  1.00  0.00    -0.084 A  
HETATM    9  C   UNL     1     -11.402  12.810  66.154  1.00  0.00    -0.328 A  
HETATM   10  N   UNL     1     -10.997  12.627  67.481  1.00  0.00    -0.238 NA 
ENDROOT
BRANCH  10  11
HETATM   11  N   UNL     1     -10.582  11.382  67.915  1.00  0.00    -0.181 N  
HETATM   12  C   UNL     1      -9.447  10.834  67.328  1.00  0.00    -0.159 C  
HETATM   13  H   UNL     1     -11.092  10.881  68.643  1.00  0.00     0.000 HD 
HETATM   14  O   UNL     1      -8.705  11.409  66.537  1.00  0.00    -0.172 OA 
BRANCH  12  15
HETATM   15  C   UNL     1      -9.206   9.397  67.633  1.00  0.00    -0.142 A  
HETATM   16  C   UNL     1     -10.008   8.774  68.599  1.00  0.00    -0.197 A  
HETATM   17  C   UNL     1      -9.722   7.462  69.012  1.00  0.00    -0.160 A  
HETATM   18  C   UNL     1      -8.654   6.764  68.442  1.00  0.00    -0.125 A  
HETATM   19  C   UNL     1      -8.178   8.678  67.019  1.00  0.00    -0.106 A  
HETATM   20 CL   UNL     1      -8.162   5.180  68.922  1.00  0.00    -0.088 Cl 
HETATM   21  C   UNL     1      -7.902   7.369  67.427  1.00  0.00    -0.111 A  
BRANCH  17  22
HETATM   22  S   UNL     1     -10.701   6.756  70.299  1.00  0.00    -0.261 S  
HETATM   23  O   UNL     1     -10.013   6.923  71.560  1.00  0.00    -0.178 OA 
HETATM   24  N   UNL     1     -12.022   7.784  70.399  1.00  0.00    -0.480 N  
HETATM   25  H1  UNL     1     -12.588   7.376  71.144  1.00  0.00     0.000 HD 
HETATM   26  O   UNL     1     -11.188   5.469  69.864  1.00  0.00    -0.160 OA 
HETATM   27  H2  UNL     1     -12.215   8.619  69.847  1.00  0.00     0.000 HD 
ENDBRANCH  17  22
ENDBRANCH  12  15
ENDBRANCH  10  11
TORSDOF 3
ENDMDL
MODEL      161
REMARK 921   NORMALIZED FREE ENERGY PREDICTED BY IDOCK:   -3.70 KCAL/MOL
REMARK 922        TOTAL FREE ENERGY PREDICTED BY IDOCK:   -5.00 KCAL/MOL
REMARK 923 INTER-LIGAND FREE ENERGY PREDICTED BY IDOCK:   -4.65 KCAL/MOL
REMARK 924 INTRA-LIGAND FREE ENERGY PREDICTED BY IDOCK:   -0.36 KCAL/MOL
REMARK 927      BINDING AFFINITY PREDICTED BY RF-SCORE:    0.00 PKD
ROOT
HETATM    1  C   UNL     1      -8.692   6.860  65.867  1.00  0.00    -0.146 C  
HETATM    2  C   UNL     1      -8.268   8.328  65.858  1.00  0.00    -0.119 A  
HETATM    3  C   UNL     1      -8.630   9.015  64.511  1.00  0.00    -0.181 A  
HETATM    4  C   UNL     1      -9.622  10.058  64.926  1.00  0.00    -0.375 A  
HETATM    5  C   UNL     1     -10.283  10.971  64.119  1.00  0.00    -0.419 A  
HETATM    6  C   UNL     1     -11.155  11.873  64.728  1.00  0.00    -0.367 A  
HETATM    7  C   UNL     1     -11.365  11.833  66.115  1.00  0.00    -0.342 A  
HETATM    8  C   UNL     1     -10.681  10.908  66.915  1.00  0.00    -0.318 A  
HETATM    9  C   UNL     1      -9.788  10.035  66.314  1.00  0.00    -0.236 A  
HETATM   10  N   UNL     1      -8.912   9.126  66.917  1.00  0.00    -0.122 NA 
ENDROOT
BRANCH  10  11
HETATM   11  N   UNL     1      -9.189   8.624  68.174  1.00  0.00    -0.137 N  
HETATM   12  C   UNL     1      -8.342   8.978  69.217  1.00  0.00    -0.122 C  
HETATM   13  H   UNL     1      -9.991   8.012  68.332  1.00  0.00     0.000 HD 
HETATM   14  O   UNL     1      -7.430   9.797  69.149  1.00  0.00    -0.074 OA 
BRANCH  12  15
HETATM   15  C   UNL     1      -8.525   8.202  70.475  1.00  0.00    -0.125 A  
HETATM   16  C   UNL     1      -8.928   6.863  70.383  1.00  0.00    -0.152 A  
HETATM   17  C   UNL     1      -9.243   6.140  71.546  1.00  0.00    -0.146 A  
HETATM   18  C   UNL     1      -9.129   6.746  72.800  1.00  0.00    -0.135 A  
HETATM   19  C   UNL     1      -8.351   8.787  71.732  1.00  0.00    -0.161 A  
HETATM   20 CL   UNL     1      -9.559   5.984  74.288  1.00  0.00    -0.170 Cl 
HETATM   21  C   UNL     1      -8.658   8.061  72.887  1.00  0.00    -0.256 A  
BRANCH  17  22
HETATM   22  S   UNL     1      -9.837   4.488  71.371  1.00  0.00    -0.193 S  
HETATM   23  O   UNL     1     -10.112   4.232  69.975  1.00  0.00    -0.196 OA 
HETATM   24  N   UNL     1      -8.494   3.546  71.718  1.00  0.00    -0.082 N  
HETATM   25  H1  UNL     1      -8.838   2.591  71.617  1.00  0.00     0.000 HD 
HETATM   26  O   UNL     1     -10.819   4.234  72.398  1.00  0.00    -0.073 OA 
HETATM   27  H2  UNL     1      -7.556   3.855  71.970  1.00  0.00     0.000 HD 
ENDBRANCH  17  22
ENDBRANCH  12  15
ENDBRANCH  10  11
TORSDOF 3
ENDMDL
MODEL      162
REMARK 921   NORMALIZED FREE ENERGY PREDICTED BY IDOCK:   -3.69 KCAL/MOL
REMARK 922        TOTAL FREE ENERGY PREDICTED BY IDOCK:   -5.00 KCAL/MOL
REMARK 923 INTER-LIGAND FREE ENERGY PREDICTED BY IDOCK:   -4.60 KCAL/MOL
REMARK 924 INTRA-LIGAND FREE ENERGY PREDICTED BY IDOCK:   -0.40 KCAL/MOL
REMARK 927      BINDING AFFINITY PREDICTED BY RF-SCORE:    0.00 PKD
ROOT
HETATM    1  C   UNL     1      -6.088  10.650  68.078  1.00  0.00    -0.046 C  
HETATM    2  C   UNL     1      -7.482  10.336  67.537  1.00  0.00    -0.090 A  
HETATM    3  C   UNL     1      -7.916   8.887  67.895  1.00  0.00    -0.102 A  
HETATM    4  C   UNL     1      -9.102   9.104  68.782  1.00  0.00    -0.136 A  
HETATM    5  C   UNL     1      -9.890   8.145  69.398  1.00  0.00    -0.182 A  
HETATM    6  C   UNL     1     -10.968   8.578  70.171  1.00  0.00    -0.221 A  
HETATM    7  C   UNL     1     -11.223   9.949  70.330  1.00  0.00    -0.364 A  
HETATM    8  C   UNL     1     -10.420  10.904  69.692  1.00  0.00    -0.133 A  
HETATM    9  C   UNL     1      -9.371  10.472  68.897  1.00  0.00    -0.187 A  
HETATM   10  N   UNL     1      -8.528  11.226  68.073  1.00  0.00    -0.132 NA 
ENDROOT
BRANCH  10  11
HETATM   11  N   UNL     1      -8.311  12.565  68.342  1.00  0.00    -0.252 N  
HETATM   12  C   UNL     1      -8.921  13.500  67.514  1.00  0.00    -0.210 C  
HETATM   13  H   UNL     1      -7.723  12.857  69.122  1.00  0.00     0.000 HD 
HETATM   14  O   UNL     1      -9.735  13.248  66.631  1.00  0.00    -0.255 OA 
BRANCH  12  15
HETATM   15  C   UNL     1      -8.441  14.900  67.678  1.00  0.00    -0.176 A  
HETATM   16  C   UNL     1      -9.391  15.923  67.808  1.00  0.00    -0.207 A  
HETATM   17  C   UNL     1      -8.982  17.267  67.827  1.00  0.00    -0.234 A  
HETATM   18  C   UNL     1      -7.624  17.588  67.742  1.00  0.00    -0.193 A  
HETATM   19  C   UNL     1      -7.081  15.219  67.656  1.00  0.00    -0.206 A  
HETATM   20 CL   UNL     1      -7.010  19.200  67.678  1.00  0.00    -0.232 Cl 
HETATM   21  C   UNL     1      -6.677  16.558  67.682  1.00  0.00    -0.161 A  
BRANCH  17  22
HETATM   22  S   UNL     1     -10.222  18.519  67.896  1.00  0.00    -0.397 S  
HETATM   23  O   UNL     1      -9.814  19.535  68.839  1.00  0.00    -0.424 OA 
HETATM   24  N   UNL     1     -10.113  19.266  66.398  1.00  0.00    -0.395 N  
HETATM   25  H1  UNL     1     -10.831  19.990  66.437  1.00  0.00     0.000 HD 
HETATM   26  O   UNL     1     -11.519  17.890  67.970  1.00  0.00     0.338 OA 
HETATM   27  H2  UNL     1      -9.481  19.047  65.629  1.00  0.00     0.000 HD 
ENDBRANCH  17  22
ENDBRANCH  12  15
ENDBRANCH  10  11
TORSDOF 3
ENDMDL
MODEL      163
REMARK 921   NORMALIZED FREE ENERGY PREDICTED BY IDOCK:   -3.66 KCAL/MOL
REMARK 922        TOTAL FREE ENERGY PREDICTED BY IDOCK:   -4.96 KCAL/MOL
REMARK 923 INTER-LIGAND FREE ENERGY PREDICTED BY IDOCK:   -5.36 KCAL/MOL
REMARK 924 INTRA-LIGAND FREE ENERGY PREDICTED BY IDOCK:    0.40 KCAL/MOL
REMARK 927      BINDING AFFINITY PREDICTED BY RF-SCORE:    0.00 PKD
ROOT
HETATM    1  C   UNL     1     -11.129  11.619  69.626  1.00  0.00    -0.177 C  
HETATM    2  C   UNL     1     -12.024  11.662  68.389  1.00  0.00    -0.196 A  
HETATM    3  C   UNL     1     -12.034  13.076  67.745  1.00  0.00    -0.344 A  
HETATM    4  C   UNL     1     -11.421  12.834  66.400  1.00  0.00    -0.409 A  
HETATM    5  C   UNL     1     -11.180  13.759  65.396  1.00  0.00    -0.306 A  
HETATM    6  C   UNL     1     -10.615  13.303  64.205  1.00  0.00    -0.402 A  
HETATM    7  C   UNL     1     -10.284  11.948  64.048  1.00  0.00    -0.394 A  
HETATM    8  C   UNL     1     -10.543  11.026  65.072  1.00  0.00    -0.315 A  
HETATM    9  C   UNL     1     -11.137  11.474  66.241  1.00  0.00    -0.263 A  
HETATM   10  N   UNL     1     -11.599  10.727  67.331  1.00  0.00    -0.438 NA 
ENDROOT
BRANCH  10  11
HETATM   11  N   UNL     1     -11.059   9.483  67.598  1.00  0.00    -0.462 N  
HETATM   12  C   UNL     1      -9.679   9.389  67.735  1.00  0.00    -0.151 C  
HETATM   13  H   UNL     1     -11.655   8.660  67.693  1.00  0.00     0.000 HD 
HETATM   14  O   UNL     1      -8.898  10.335  67.757  1.00  0.00    -0.125 OA 
BRANCH  12  15
HETATM   15  C   UNL     1      -9.137   8.003  67.751  1.00  0.00    -0.136 A  
HETATM   16  C   UNL     1      -9.386   7.198  68.871  1.00  0.00    -0.139 A  
HETATM   17  C   UNL     1      -8.777   5.937  68.983  1.00  0.00    -0.114 A  
HETATM   18  C   UNL     1      -7.942   5.469  67.965  1.00  0.00    -0.096 A  
HETATM   19  C   UNL     1      -8.352   7.508  66.705  1.00  0.00    -0.126 A  
HETATM   20 CL   UNL     1      -7.082   3.974  68.025  1.00  0.00    -0.058 Cl 
HETATM   21  C   UNL     1      -7.754   6.249  66.817  1.00  0.00    -0.100 A  
BRANCH  17  22
HETATM   22  S   UNL     1      -9.046   5.004  70.456  1.00  0.00    -0.144 S  
HETATM   23  O   UNL     1      -7.790   4.853  71.154  1.00  0.00    -0.083 OA 
HETATM   24  N   UNL     1      -9.945   6.040  71.421  1.00  0.00    -0.183 N  
HETATM   25  H1  UNL     1     -10.101   5.500  72.273  1.00  0.00     0.000 HD 
HETATM   26  O   UNL     1      -9.883   3.870  70.144  1.00  0.00    -0.200 OA 
HETATM   27  H2  UNL     1     -10.262   6.985  71.207  1.00  0.00     0.000 HD 
ENDBRANCH  17  22
ENDBRANCH  12  15
ENDBRANCH  10  11
TORSDOF 3
ENDMDL
MODEL      164
REMARK 921   NORMALIZED FREE ENERGY PREDICTED BY IDOCK:   -3.65 KCAL/MOL
REMARK 922        TOTAL FREE ENERGY PREDICTED BY IDOCK:   -4.95 KCAL/MOL
REMARK 923 INTER-LIGAND FREE ENERGY PREDICTED BY IDOCK:   -4.63 KCAL/MOL
REMARK 924 INTRA-LIGAND FREE ENERGY PREDICTED BY IDOCK:   -0.31 KCAL/MOL
REMARK 927      BINDING AFFINITY PREDICTED BY RF-SCORE:    0.00 PKD
ROOT
HETATM    1  C   UNL     1     -10.975  10.349  66.567  1.00  0.00    -0.016 C  
HETATM    2  C   UNL     1      -9.717  11.201  66.399  1.00  0.00    -0.204 A  
HETATM    3  C   UNL     1      -9.934  12.332  65.356  1.00  0.00    -0.264 A  
HETATM    4  C   UNL     1      -9.788  13.576  66.178  1.00  0.00    -0.292 A  
HETATM    5  C   UNL     1      -9.888  14.892  65.755  1.00  0.00    -0.380 A  
HETATM    6  C   UNL     1      -9.692  15.901  66.698  1.00  0.00    -0.270 A  
HETATM    7  C   UNL     1      -9.423  15.580  68.037  1.00  0.00    -0.194 A  
HETATM    8  C   UNL     1      -9.318  14.243  68.444  1.00  0.00    -0.208 A  
HETATM    9  C   UNL     1      -9.478  13.242  67.500  1.00  0.00    -0.220 A  
HETATM   10  N   UNL     1      -9.293  11.862  67.646  1.00  0.00    -0.178 NA 
ENDROOT
BRANCH  10  11
HETATM   11  N   UNL     1      -9.418  11.273  68.891  1.00  0.00    -0.364 N  
HETATM   12  C   UNL     1      -8.393  10.439  69.320  1.00  0.00    -0.155 C  
HETATM   13  H   UNL     1     -10.237  11.445  69.475  1.00  0.00     0.000 HD 
HETATM   14  O   UNL     1      -7.323  10.267  68.743  1.00  0.00    -0.078 OA 
BRANCH  12  15
HETATM   15  C   UNL     1      -8.700   9.627  70.530  1.00  0.00    -0.158 A  
HETATM   16  C   UNL     1      -7.659   8.913  71.140  1.00  0.00    -0.143 A  
HETATM   17  C   UNL     1      -7.935   8.030  72.197  1.00  0.00    -0.121 A  
HETATM   18  C   UNL     1      -9.244   7.882  72.663  1.00  0.00    -0.208 A  
HETATM   19  C   UNL     1      -9.998   9.526  71.037  1.00  0.00    -0.269 A  
HETATM   20 CL   UNL     1      -9.714   6.774  73.901  1.00  0.00    -0.254 Cl 
HETATM   21  C   UNL     1     -10.267   8.651  72.095  1.00  0.00    -0.394 A  
BRANCH  17  22
HETATM   22  S   UNL     1      -6.606   7.083  72.867  1.00  0.00    -0.065 S  
HETATM   23  O   UNL     1      -5.357   7.742  72.560  1.00  0.00    -0.036 OA 
HETATM   24  N   UNL     1      -6.786   7.267  74.524  1.00  0.00    -0.092 N  
HETATM   25  H1  UNL     1      -6.017   6.718  74.911  1.00  0.00     0.000 HD 
HETATM   26  O   UNL     1      -6.826   5.690  72.561  1.00  0.00    -0.073 OA 
HETATM   27  H2  UNL     1      -7.495   7.799  75.026  1.00  0.00     0.000 HD 
ENDBRANCH  17  22
ENDBRANCH  12  15
ENDBRANCH  10  11
TORSDOF 3
ENDMDL
MODEL      165
REMARK 921   NORMALIZED FREE ENERGY PREDICTED BY IDOCK:   -3.64 KCAL/MOL
REMARK 922        TOTAL FREE ENERGY PREDICTED BY IDOCK:   -4.94 KCAL/MOL
REMARK 923 INTER-LIGAND FREE ENERGY PREDICTED BY IDOCK:   -5.57 KCAL/MOL
REMARK 924 INTRA-LIGAND FREE ENERGY PREDICTED BY IDOCK:    0.63 KCAL/MOL
REMARK 927      BINDING AFFINITY PREDICTED BY RF-SCORE:    0.00 PKD
ROOT
HETATM    1  C   UNL     1     -11.302  16.333  68.403  1.00  0.00    -0.312 C  
HETATM    2  C   UNL     1     -10.587  17.338  67.501  1.00  0.00    -0.329 A  
HETATM    3  C   UNL     1     -10.282  18.661  68.257  1.00  0.00    -0.423 A  
HETATM    4  C   UNL     1      -8.785  18.703  68.264  1.00  0.00    -0.349 A  
HETATM    5  C   UNL     1      -7.964  19.674  68.815  1.00  0.00    -0.314 A  
HETATM    6  C   UNL     1      -6.584  19.518  68.684  1.00  0.00    -0.318 A  
HETATM    7  C   UNL     1      -6.054  18.395  68.030  1.00  0.00    -0.184 A  
HETATM    8  C   UNL     1      -6.901  17.428  67.472  1.00  0.00    -0.173 A  
HETATM    9  C   UNL     1      -8.272  17.601  67.572  1.00  0.00    -0.216 A  
HETATM   10  N   UNL     1      -9.295  16.844  66.990  1.00  0.00    -0.230 NA 
ENDROOT
BRANCH  10  11
HETATM   11  N   UNL     1      -9.075  15.522  66.653  1.00  0.00    -0.255 N  
HETATM   12  C   UNL     1      -8.602  14.669  67.643  1.00  0.00    -0.176 C  
HETATM   13  H   UNL     1      -9.254  15.183  65.707  1.00  0.00     0.000 HD 
HETATM   14  O   UNL     1      -8.472  14.956  68.830  1.00  0.00    -0.158 OA 
BRANCH  12  15
HETATM   15  C   UNL     1      -8.130  13.341  67.164  1.00  0.00    -0.099 A  
HETATM   16  C   UNL     1      -9.042  12.502  66.510  1.00  0.00    -0.177 A  
HETATM   17  C   UNL     1      -8.673  11.191  66.166  1.00  0.00    -0.186 A  
HETATM   18  C   UNL     1      -7.385  10.727  66.452  1.00  0.00    -0.142 A  
HETATM   19  C   UNL     1      -6.824  12.898  67.392  1.00  0.00    -0.133 A  
HETATM   20 CL   UNL     1      -6.844   9.117  66.147  1.00  0.00    -0.083 Cl 
HETATM   21  C   UNL     1      -6.458  11.595  67.042  1.00  0.00    -0.148 A  
BRANCH  17  22
HETATM   22  S   UNL     1      -9.887  10.143  65.432  1.00  0.00    -0.309 S  
HETATM   23  O   UNL     1     -10.968  10.958  64.924  1.00  0.00    -0.160 OA 
HETATM   24  N   UNL     1      -9.123   9.553  64.060  1.00  0.00    -0.398 N  
HETATM   25  H1  UNL     1      -9.825   8.947  63.635  1.00  0.00     0.000 HD 
HETATM   26  O   UNL     1     -10.127   9.021  66.307  1.00  0.00    -0.295 OA 
HETATM   27  H2  UNL     1      -8.179   9.753  63.730  1.00  0.00     0.000 HD 
ENDBRANCH  17  22
ENDBRANCH  12  15
ENDBRANCH  10  11
TORSDOF 3
ENDMDL
MODEL      166
REMARK 921   NORMALIZED FREE ENERGY PREDICTED BY IDOCK:   -3.61 KCAL/MOL
REMARK 922        TOTAL FREE ENERGY PREDICTED BY IDOCK:   -4.90 KCAL/MOL
REMARK 923 INTER-LIGAND FREE ENERGY PREDICTED BY IDOCK:   -4.56 KCAL/MOL
REMARK 924 INTRA-LIGAND FREE ENERGY PREDICTED BY IDOCK:   -0.34 KCAL/MOL
REMARK 927      BINDING AFFINITY PREDICTED BY RF-SCORE:    0.00 PKD
ROOT
HETATM    1  C   UNL     1      -6.703   9.296  69.687  1.00  0.00    -0.047 C  
HETATM    2  C   UNL     1      -8.056   9.987  69.527  1.00  0.00    -0.161 A  
HETATM    3  C   UNL     1      -7.918  11.331  68.759  1.00  0.00    -0.137 A  
HETATM    4  C   UNL     1      -8.713  11.086  67.514  1.00  0.00    -0.128 A  
HETATM    5  C   UNL     1      -8.931  11.958  66.458  1.00  0.00    -0.199 A  
HETATM    6  C   UNL     1      -9.730  11.521  65.401  1.00  0.00    -0.262 A  
HETATM    7  C   UNL     1     -10.273  10.227  65.407  1.00  0.00    -0.312 A  
HETATM    8  C   UNL     1     -10.048   9.363  66.487  1.00  0.00    -0.332 A  
HETATM    9  C   UNL     1      -9.284   9.810  67.553  1.00  0.00    -0.130 A  
HETATM   10  N   UNL     1      -9.036   9.179  68.778  1.00  0.00    -0.136 NA 
ENDROOT
BRANCH  10  11
HETATM   11  N   UNL     1      -9.110   7.803  68.878  1.00  0.00    -0.141 N  
HETATM   12  C   UNL     1     -10.182   7.259  69.575  1.00  0.00    -0.198 C  
HETATM   13  H   UNL     1      -8.400   7.205  68.453  1.00  0.00     0.000 HD 
HETATM   14  O   UNL     1     -11.141   7.887  70.014  1.00  0.00    -0.241 OA 
BRANCH  12  15
HETATM   15  C   UNL     1     -10.068   5.806  69.882  1.00  0.00    -0.273 A  
HETATM   16  C   UNL     1     -10.266   5.383  71.204  1.00  0.00    -0.287 A  
HETATM   17  C   UNL     1     -10.033   4.043  71.557  1.00  0.00    -0.150 A  
HETATM   18  C   UNL     1      -9.628   3.122  70.587  1.00  0.00    -0.142 A  
HETATM   19  C   UNL     1      -9.725   4.872  68.901  1.00  0.00    -0.242 A  
HETATM   20 CL   UNL     1      -9.239   1.473  70.916  1.00  0.00    -0.138 Cl 
HETATM   21  C   UNL     1      -9.501   3.538  69.256  1.00  0.00    -0.233 A  
BRANCH  17  22
HETATM   22  S   UNL     1     -10.202   3.582  73.251  1.00  0.00    -0.162 S  
HETATM   23  O   UNL     1      -9.005   3.963  73.966  1.00  0.00    -0.091 OA 
HETATM   24  N   UNL     1     -11.387   4.620  73.827  1.00  0.00    -0.282 N  
HETATM   25  H1  UNL     1     -11.485   4.353  74.806  1.00  0.00     0.000 HD 
HETATM   26  O   UNL     1     -10.733   2.241  73.319  1.00  0.00    -0.142 OA 
HETATM   27  H2  UNL     1     -11.891   5.346  73.318  1.00  0.00     0.000 HD 
ENDBRANCH  17  22
ENDBRANCH  12  15
ENDBRANCH  10  11
TORSDOF 3
ENDMDL
MODEL      167
REMARK 921   NORMALIZED FREE ENERGY PREDICTED BY IDOCK:   -3.60 KCAL/MOL
REMARK 922        TOTAL FREE ENERGY PREDICTED BY IDOCK:   -4.89 KCAL/MOL
REMARK 923 INTER-LIGAND FREE ENERGY PREDICTED BY IDOCK:   -4.40 KCAL/MOL
REMARK 924 INTRA-LIGAND FREE ENERGY PREDICTED BY IDOCK:   -0.49 KCAL/MOL
REMARK 927      BINDING AFFINITY PREDICTED BY RF-SCORE:    0.00 PKD
ROOT
HETATM    1  C   UNL     1     -11.111   6.961  72.962  1.00  0.00    -0.267 C  
HETATM    2  C   UNL     1      -9.886   6.053  73.066  1.00  0.00    -0.168 A  
HETATM    3  C   UNL     1     -10.275   4.633  73.565  1.00  0.00    -0.219 A  
HETATM    4  C   UNL     1      -9.918   3.762  72.399  1.00  0.00    -0.232 A  
HETATM    5  C   UNL     1     -10.057   2.387  72.291  1.00  0.00    -0.225 A  
HETATM    6  C   UNL     1      -9.635   1.776  71.110  1.00  0.00    -0.206 A  
HETATM    7  C   UNL     1      -9.106   2.545  70.062  1.00  0.00    -0.182 A  
HETATM    8  C   UNL     1      -8.966   3.933  70.193  1.00  0.00    -0.168 A  
HETATM    9  C   UNL     1      -9.353   4.534  71.380  1.00  0.00    -0.147 A  
HETATM   10  N   UNL     1      -9.190   5.866  71.780  1.00  0.00    -0.148 NA 
ENDROOT
BRANCH  10  11
HETATM   11  N   UNL     1      -9.075   6.867  70.834  1.00  0.00    -0.153 N  
HETATM   12  C   UNL     1      -7.902   7.611  70.814  1.00  0.00    -0.096 C  
HETATM   13  H   UNL     1      -9.828   7.053  70.171  1.00  0.00     0.000 HD 
HETATM   14  O   UNL     1      -6.901   7.383  71.488  1.00  0.00    -0.053 OA 
BRANCH  12  15
HETATM   15  C   UNL     1      -7.941   8.835  69.969  1.00  0.00    -0.108 A  
HETATM   16  C   UNL     1      -9.146   9.545  69.873  1.00  0.00    -0.237 A  
HETATM   17  C   UNL     1      -9.259  10.624  68.980  1.00  0.00    -0.167 A  
HETATM   18  C   UNL     1      -8.163  11.009  68.203  1.00  0.00    -0.124 A  
HETATM   19  C   UNL     1      -6.828   9.260  69.238  1.00  0.00    -0.049 A  
HETATM   20 CL   UNL     1      -8.206  12.265  67.019  1.00  0.00    -0.175 Cl 
HETATM   21  C   UNL     1      -6.944  10.339  68.355  1.00  0.00    -0.069 A  
BRANCH  17  22
HETATM   22  S   UNL     1     -10.824  11.424  68.827  1.00  0.00    -0.221 S  
HETATM   23  O   UNL     1     -11.664  11.032  69.936  1.00  0.00    -0.283 OA 
HETATM   24  N   UNL     1     -10.472  13.038  69.113  1.00  0.00    -0.437 N  
HETATM   25  H1  UNL     1     -11.377  13.501  69.024  1.00  0.00     0.000 HD 
HETATM   26  O   UNL     1     -11.272  11.316  67.459  1.00  0.00    -0.265 OA 
HETATM   27  H2  UNL     1      -9.567  13.458  69.324  1.00  0.00     0.000 HD 
ENDBRANCH  17  22
ENDBRANCH  12  15
ENDBRANCH  10  11
TORSDOF 3
ENDMDL
MODEL      168
REMARK 921   NORMALIZED FREE ENERGY PREDICTED BY IDOCK:   -3.54 KCAL/MOL
REMARK 922        TOTAL FREE ENERGY PREDICTED BY IDOCK:   -4.82 KCAL/MOL
REMARK 923 INTER-LIGAND FREE ENERGY PREDICTED BY IDOCK:   -5.11 KCAL/MOL
REMARK 924 INTRA-LIGAND FREE ENERGY PREDICTED BY IDOCK:    0.29 KCAL/MOL
REMARK 927      BINDING AFFINITY PREDICTED BY RF-SCORE:    0.00 PKD
ROOT
HETATM    1  C   UNL     1     -10.643  14.143  66.722  1.00  0.00    -0.277 C  
HETATM    2  C   UNL     1     -10.277  14.428  68.178  1.00  0.00    -0.232 A  
HETATM    3  C   UNL     1     -11.029  15.675  68.718  1.00  0.00    -0.281 A  
HETATM    4  C   UNL     1     -11.886  15.103  69.805  1.00  0.00    -0.364 A  
HETATM    5  C   UNL     1     -12.774  15.774  70.630  1.00  0.00    -0.336 A  
HETATM    6  C   UNL     1     -13.457  15.037  71.598  1.00  0.00    -0.504 A  
HETATM    7  C   UNL     1     -13.257  13.652  71.708  1.00  0.00    -0.477 A  
HETATM    8  C   UNL     1     -12.348  12.992  70.870  1.00  0.00    -0.376 A  
HETATM    9  C   UNL     1     -11.644  13.732  69.933  1.00  0.00    -0.228 A  
HETATM   10  N   UNL     1     -10.608  13.317  69.089  1.00  0.00    -0.057 NA 
ENDROOT
BRANCH  10  11
HETATM   11  N   UNL     1     -10.499  11.987  68.725  1.00  0.00    -0.318 N  
HETATM   12  C   UNL     1      -9.233  11.498  68.425  1.00  0.00    -0.190 C  
HETATM   13  H   UNL     1     -11.321  11.384  68.680  1.00  0.00     0.000 HD 
HETATM   14  O   UNL     1      -8.179  12.111  68.566  1.00  0.00    -0.153 OA 
BRANCH  12  15
HETATM   15  C   UNL     1      -9.208  10.155  67.785  1.00  0.00    -0.146 A  
HETATM   16  C   UNL     1      -8.234   9.234  68.198  1.00  0.00    -0.119 A  
HETATM   17  C   UNL     1      -8.092   8.009  67.524  1.00  0.00    -0.123 A  
HETATM   18  C   UNL     1      -8.937   7.693  66.457  1.00  0.00    -0.158 A  
HETATM   19  C   UNL     1     -10.092   9.812  66.759  1.00  0.00    -0.295 A  
HETATM   20 CL   UNL     1      -8.807   6.257  65.508  1.00  0.00    -0.096 Cl 
HETATM   21  C   UNL     1      -9.951   8.588  66.096  1.00  0.00    -0.160 A  
BRANCH  17  22
HETATM   22  S   UNL     1      -6.790   6.927  68.021  1.00  0.00    -0.080 S  
HETATM   23  O   UNL     1      -6.875   5.705  67.252  1.00  0.00    -0.060 OA 
HETATM   24  N   UNL     1      -5.407   7.687  67.456  1.00  0.00    -0.029 N  
HETATM   25  H1  UNL     1      -4.654   7.061  67.743  1.00  0.00     0.000 HD 
HETATM   26  O   UNL     1      -6.717   6.914  69.462  1.00  0.00    -0.047 OA 
HETATM   27  H2  UNL     1      -5.334   8.568  66.946  1.00  0.00     0.000 HD 
ENDBRANCH  17  22
ENDBRANCH  12  15
ENDBRANCH  10  11
TORSDOF 3
ENDMDL
MODEL      169
REMARK 921   NORMALIZED FREE ENERGY PREDICTED BY IDOCK:   -3.51 KCAL/MOL
REMARK 922        TOTAL FREE ENERGY PREDICTED BY IDOCK:   -4.79 KCAL/MOL
REMARK 923 INTER-LIGAND FREE ENERGY PREDICTED BY IDOCK:   -5.38 KCAL/MOL
REMARK 924 INTRA-LIGAND FREE ENERGY PREDICTED BY IDOCK:    0.59 KCAL/MOL
REMARK 927      BINDING AFFINITY PREDICTED BY RF-SCORE:    0.00 PKD
ROOT
HETATM    1  C   UNL     1     -11.883  13.400  70.382  1.00  0.00    -0.283 C  
HETATM    2  C   UNL     1     -12.389  14.169  69.162  1.00  0.00    -0.138 A  
HETATM    3  C   UNL     1     -12.088  15.688  69.285  1.00  0.00    -0.263 A  
HETATM    4  C   UNL     1     -11.149  15.935  68.144  1.00  0.00    -0.338 A  
HETATM    5  C   UNL     1     -10.553  17.131  67.776  1.00  0.00    -0.360 A  
HETATM    6  C   UNL     1      -9.723  17.133  66.656  1.00  0.00    -0.285 A  
HETATM    7  C   UNL     1      -9.488  15.948  65.942  1.00  0.00    -0.372 A  
HETATM    8  C   UNL     1     -10.106  14.750  66.325  1.00  0.00    -0.299 A  
HETATM    9  C   UNL     1     -10.958  14.756  67.417  1.00  0.00    -0.313 A  
HETATM   10  N   UNL     1     -11.773  13.724  67.898  1.00  0.00    -0.340 NA 
ENDROOT
BRANCH  10  11
HETATM   11  N   UNL     1     -11.447  12.406  67.643  1.00  0.00    -0.315 N  
HETATM   12  C   UNL     1     -10.163  11.980  67.964  1.00  0.00    -0.198 C  
HETATM   13  H   UNL     1     -12.127  11.765  67.233  1.00  0.00     0.000 HD 
HETATM   14  O   UNL     1      -9.322  12.640  68.566  1.00  0.00    -0.178 OA 
BRANCH  12  15
HETATM   15  C   UNL     1      -9.785  10.645  67.425  1.00  0.00    -0.192 A  
HETATM   16  C   UNL     1      -8.591  10.530  66.698  1.00  0.00    -0.133 A  
HETATM   17  C   UNL     1      -8.269   9.321  66.059  1.00  0.00    -0.111 A  
HETATM   18  C   UNL     1      -9.124   8.221  66.167  1.00  0.00    -0.189 A  
HETATM   19  C   UNL     1     -10.607   9.527  67.584  1.00  0.00    -0.329 A  
HETATM   20 CL   UNL     1      -8.873   6.713  65.365  1.00  0.00    -0.010 Cl 
HETATM   21  C   UNL     1     -10.279   8.323  66.952  1.00  0.00    -0.388 A  
BRANCH  17  22
HETATM   22  S   UNL     1      -6.804   9.256  65.078  1.00  0.00    -0.088 S  
HETATM   23  O   UNL     1      -6.094  10.508  65.208  1.00  0.00    -0.128 OA 
HETATM   24  N   UNL     1      -5.842   8.139  65.878  1.00  0.00    -0.037 N  
HETATM   25  H1  UNL     1      -4.995   8.101  65.310  1.00  0.00     0.000 HD 
HETATM   26  O   UNL     1      -7.131   8.698  63.787  1.00  0.00    -0.090 OA 
HETATM   27  H2  UNL     1      -6.054   7.620  66.729  1.00  0.00     0.000 HD 
ENDBRANCH  17  22
ENDBRANCH  12  15
ENDBRANCH  10  11
TORSDOF 3
ENDMDL
MODEL      170
REMARK 921   NORMALIZED FREE ENERGY PREDICTED BY IDOCK:   -3.45 KCAL/MOL
REMARK 922        TOTAL FREE ENERGY PREDICTED BY IDOCK:   -4.71 KCAL/MOL
REMARK 923 INTER-LIGAND FREE ENERGY PREDICTED BY IDOCK:   -4.47 KCAL/MOL
REMARK 924 INTRA-LIGAND FREE ENERGY PREDICTED BY IDOCK:   -0.25 KCAL/MOL
REMARK 927      BINDING AFFINITY PREDICTED BY RF-SCORE:    0.00 PKD
ROOT
HETATM    1  C   UNL     1     -11.436   8.979  71.108  1.00  0.00    -0.376 C  
HETATM    2  C   UNL     1      -9.925   8.746  71.106  1.00  0.00    -0.248 A  
HETATM    3  C   UNL     1      -9.573   7.307  71.574  1.00  0.00    -0.164 A  
HETATM    4  C   UNL     1      -8.935   6.709  70.358  1.00  0.00    -0.152 A  
HETATM    5  C   UNL     1      -8.426   5.428  70.208  1.00  0.00    -0.119 A  
HETATM    6  C   UNL     1      -7.852   5.090  68.982  1.00  0.00    -0.080 A  
HETATM    7  C   UNL     1      -7.816   6.021  67.933  1.00  0.00    -0.105 A  
HETATM    8  C   UNL     1      -8.328   7.314  68.106  1.00  0.00    -0.124 A  
HETATM    9  C   UNL     1      -8.867   7.660  69.335  1.00  0.00    -0.139 A  
HETATM   10  N   UNL     1      -9.314   8.911  69.774  1.00  0.00    -0.161 NA 
ENDROOT
BRANCH  10  11
HETATM   11  N   UNL     1      -9.745   9.854  68.860  1.00  0.00    -0.168 N  
HETATM   12  C   UNL     1      -9.038  11.049  68.777  1.00  0.00    -0.157 C  
HETATM   13  H   UNL     1     -10.555   9.680  68.265  1.00  0.00     0.000 HD 
HETATM   14  O   UNL     1      -7.988  11.298  69.362  1.00  0.00     0.010 OA 
BRANCH  12  15
HETATM   15  C   UNL     1      -9.697  12.122  67.984  1.00  0.00    -0.203 A  
HETATM   16  C   UNL     1     -10.325  11.775  66.779  1.00  0.00    -0.251 A  
HETATM   17  C   UNL     1     -10.837  12.777  65.937  1.00  0.00    -0.269 A  
HETATM   18  C   UNL     1     -10.746  14.121  66.311  1.00  0.00    -0.293 A  
HETATM   19  C   UNL     1      -9.663  13.460  68.386  1.00  0.00    -0.201 A  
HETATM   20 CL   UNL     1     -11.269  15.439  65.327  1.00  0.00    -0.337 Cl 
HETATM   21  C   UNL     1     -10.181  14.453  67.548  1.00  0.00    -0.240 A  
BRANCH  17  22
HETATM   22  S   UNL     1     -11.531  12.296  64.389  1.00  0.00    -0.375 S  
HETATM   23  O   UNL     1     -12.469  13.308  63.958  1.00  0.00    -0.618 OA 
HETATM   24  N   UNL     1     -10.245  12.430  63.321  1.00  0.00    -0.399 N  
HETATM   25  H1  UNL     1     -10.646  12.152  62.425  1.00  0.00     0.000 HD 
HETATM   26  O   UNL     1     -11.894  10.901  64.453  1.00  0.00     0.703 OA 
HETATM   27  H2  UNL     1      -9.287  12.720  63.520  1.00  0.00     0.000 HD 
ENDBRANCH  17  22
ENDBRANCH  12  15
ENDBRANCH  10  11
TORSDOF 3
ENDMDL
MODEL      171
REMARK 921   NORMALIZED FREE ENERGY PREDICTED BY IDOCK:   -3.37 KCAL/MOL
REMARK 922        TOTAL FREE ENERGY PREDICTED BY IDOCK:   -4.62 KCAL/MOL
REMARK 923 INTER-LIGAND FREE ENERGY PREDICTED BY IDOCK:   -4.04 KCAL/MOL
REMARK 924 INTRA-LIGAND FREE ENERGY PREDICTED BY IDOCK:   -0.58 KCAL/MOL
REMARK 927      BINDING AFFINITY PREDICTED BY RF-SCORE:    0.00 PKD
ROOT
HETATM    1  C   UNL     1     -11.271  11.144  63.771  1.00  0.00    -0.046 C  
HETATM    2  C   UNL     1     -10.487  12.102  64.667  1.00  0.00    -0.299 A  
HETATM    3  C   UNL     1     -11.342  13.339  65.059  1.00  0.00    -0.326 A  
HETATM    4  C   UNL     1     -11.463  13.201  66.546  1.00  0.00    -0.378 A  
HETATM    5  C   UNL     1     -12.131  14.039  67.425  1.00  0.00    -0.384 A  
HETATM    6  C   UNL     1     -12.093  13.727  68.784  1.00  0.00    -0.344 A  
HETATM    7  C   UNL     1     -11.413  12.584  69.233  1.00  0.00    -0.353 A  
HETATM    8  C   UNL     1     -10.737  11.754  68.329  1.00  0.00    -0.246 A  
HETATM    9  C   UNL     1     -10.745  12.084  66.983  1.00  0.00    -0.242 A  
HETATM   10  N   UNL     1     -10.044  11.485  65.931  1.00  0.00    -0.222 NA 
ENDROOT
BRANCH  10  11
HETATM   11  N   UNL     1      -9.645  10.165  66.024  1.00  0.00    -0.195 N  
HETATM   12  C   UNL     1      -8.332   9.909  66.401  1.00  0.00    -0.125 C  
HETATM   13  H   UNL     1     -10.293   9.403  65.824  1.00  0.00     0.000 HD 
HETATM   14  O   UNL     1      -7.520  10.750  66.774  1.00  0.00    -0.115 OA 
BRANCH  12  15
HETATM   15  C   UNL     1      -7.884   8.500  66.223  1.00  0.00    -0.098 A  
HETATM   16  C   UNL     1      -7.347   8.119  64.986  1.00  0.00    -0.082 A  
HETATM   17  C   UNL     1      -7.042   6.770  64.735  1.00  0.00    -0.060 A  
HETATM   18  C   UNL     1      -7.248   5.808  65.729  1.00  0.00    -0.075 A  
HETATM   19  C   UNL     1      -8.030   7.549  67.236  1.00  0.00    -0.118 A  
HETATM   20 CL   UNL     1      -6.983   4.117  65.512  1.00  0.00    -0.060 Cl 
HETATM   21  C   UNL     1      -7.718   6.209  66.985  1.00  0.00    -0.100 A  
BRANCH  17  22
HETATM   22  S   UNL     1      -6.460   6.326  63.131  1.00  0.00    -0.033 S  
HETATM   23  O   UNL     1      -7.538   5.709  62.392  1.00  0.00    -0.053 OA 
HETATM   24  N   UNL     1      -6.221   7.804  62.375  1.00  0.00    -0.075 N  
HETATM   25  H1  UNL     1      -5.883   7.548  61.446  1.00  0.00     0.000 HD 
HETATM   26  O   UNL     1      -5.168   5.695  63.261  1.00  0.00    -0.013 OA 
HETATM   27  H2  UNL     1      -6.375   8.738  62.753  1.00  0.00     0.000 HD 
ENDBRANCH  17  22
ENDBRANCH  12  15
ENDBRANCH  10  11
TORSDOF 3
ENDMDL
MODEL      172
REMARK 921   NORMALIZED FREE ENERGY PREDICTED BY IDOCK:   -3.35 KCAL/MOL
REMARK 922        TOTAL FREE ENERGY PREDICTED BY IDOCK:   -4.60 KCAL/MOL
REMARK 923 INTER-LIGAND FREE ENERGY PREDICTED BY IDOCK:   -4.43 KCAL/MOL
REMARK 924 INTRA-LIGAND FREE ENERGY PREDICTED BY IDOCK:   -0.16 KCAL/MOL
REMARK 927      BINDING AFFINITY PREDICTED BY RF-SCORE:    0.00 PKD
ROOT
HETATM    1  C   UNL     1     -11.281   8.884  70.982  1.00  0.00    -0.342 C  
HETATM    2  C   UNL     1      -9.763   8.876  71.158  1.00  0.00    -0.274 A  
HETATM    3  C   UNL     1      -9.252   7.480  71.613  1.00  0.00    -0.152 A  
HETATM    4  C   UNL     1      -8.393   7.050  70.464  1.00  0.00    -0.132 A  
HETATM    5  C   UNL     1      -7.681   5.868  70.331  1.00  0.00    -0.096 A  
HETATM    6  C   UNL     1      -6.923   5.686  69.174  1.00  0.00    -0.063 A  
HETATM    7  C   UNL     1      -6.907   6.669  68.173  1.00  0.00    -0.074 A  
HETATM    8  C   UNL     1      -7.627   7.861  68.329  1.00  0.00    -0.116 A  
HETATM    9  C   UNL     1      -8.351   8.056  69.494  1.00  0.00    -0.127 A  
HETATM   10  N   UNL     1      -9.032   9.202  69.920  1.00  0.00    -0.160 NA 
ENDROOT
BRANCH  10  11
HETATM   11  N   UNL     1      -9.492  10.121  68.995  1.00  0.00    -0.180 N  
HETATM   12  C   UNL     1      -8.650  11.172  68.650  1.00  0.00    -0.151 C  
HETATM   13  H   UNL     1     -10.419  10.031  68.579  1.00  0.00     0.000 HD 
HETATM   14  O   UNL     1      -7.482  11.296  69.004  1.00  0.00    -0.121 OA 
BRANCH  12  15
HETATM   15  C   UNL     1      -9.289  12.266  67.869  1.00  0.00    -0.190 A  
HETATM   16  C   UNL     1      -8.537  13.414  67.585  1.00  0.00    -0.193 A  
HETATM   17  C   UNL     1      -9.145  14.522  66.971  1.00  0.00    -0.239 A  
HETATM   18  C   UNL     1     -10.497  14.473  66.617  1.00  0.00    -0.274 A  
HETATM   19  C   UNL     1     -10.623  12.194  67.458  1.00  0.00    -0.240 A  
HETATM   20 CL   UNL     1     -11.369  15.795  65.931  1.00  0.00     0.009 Cl 
HETATM   21  C   UNL     1     -11.223  13.297  66.841  1.00  0.00    -0.332 A  
BRANCH  17  22
HETATM   22  S   UNL     1      -8.181  15.977  66.723  1.00  0.00    -0.293 S  
HETATM   23  O   UNL     1      -8.623  16.636  65.515  1.00  0.00    -0.235 OA 
HETATM   24  N   UNL     1      -8.673  16.994  67.963  1.00  0.00    -0.213 N  
HETATM   25  H1  UNL     1      -8.114  17.836  67.819  1.00  0.00     0.000 HD 
HETATM   26  O   UNL     1      -6.791  15.661  66.951  1.00  0.00    -0.245 OA 
HETATM   27  H2  UNL     1      -9.365  16.813  68.689  1.00  0.00     0.000 HD 
ENDBRANCH  17  22
ENDBRANCH  12  15
ENDBRANCH  10  11
TORSDOF 3
ENDMDL
MODEL      173
REMARK 921   NORMALIZED FREE ENERGY PREDICTED BY IDOCK:   -3.33 KCAL/MOL
REMARK 922        TOTAL FREE ENERGY PREDICTED BY IDOCK:   -4.57 KCAL/MOL
REMARK 923 INTER-LIGAND FREE ENERGY PREDICTED BY IDOCK:   -4.34 KCAL/MOL
REMARK 924 INTRA-LIGAND FREE ENERGY PREDICTED BY IDOCK:   -0.23 KCAL/MOL
REMARK 927      BINDING AFFINITY PREDICTED BY RF-SCORE:    0.00 PKD
ROOT
HETATM    1  C   UNL     1      -7.729  10.845  68.969  1.00  0.00    -0.135 C  
HETATM    2  C   UNL     1      -9.117  11.447  68.752  1.00  0.00    -0.089 A  
HETATM    3  C   UNL     1      -9.027  12.890  68.183  1.00  0.00    -0.202 A  
HETATM    4  C   UNL     1      -9.672  12.757  66.837  1.00  0.00    -0.234 A  
HETATM    5  C   UNL     1      -9.863  13.746  65.885  1.00  0.00    -0.279 A  
HETATM    6  C   UNL     1     -10.512  13.399  64.700  1.00  0.00    -0.428 A  
HETATM    7  C   UNL     1     -10.935  12.079  64.482  1.00  0.00    -0.369 A  
HETATM    8  C   UNL     1     -10.740  11.095  65.460  1.00  0.00    -0.251 A  
HETATM    9  C   UNL     1     -10.126  11.449  66.651  1.00  0.00    -0.212 A  
HETATM   10  N   UNL     1      -9.943  10.677  67.804  1.00  0.00    -0.164 NA 
ENDROOT
BRANCH  10  11
HETATM   11  N   UNL     1      -9.903   9.298  67.718  1.00  0.00    -0.164 N  
HETATM   12  C   UNL     1     -10.528   8.566  68.721  1.00  0.00    -0.184 C  
HETATM   13  H   UNL     1      -9.429   8.832  66.944  1.00  0.00     0.000 HD 
HETATM   14  O   UNL     1     -11.219   9.035  69.621  1.00  0.00    -0.132 OA 
BRANCH  12  15
HETATM   15  C   UNL     1     -10.224   7.109  68.726  1.00  0.00    -0.184 A  
HETATM   16  C   UNL     1      -9.459   6.588  69.779  1.00  0.00    -0.155 A  
HETATM   17  C   UNL     1      -9.036   5.248  69.747  1.00  0.00    -0.116 A  
HETATM   18  C   UNL     1      -9.401   4.423  68.679  1.00  0.00    -0.147 A  
HETATM   19  C   UNL     1     -10.640   6.268  67.691  1.00  0.00    -0.339 A  
HETATM   20 CL   UNL     1      -8.880   2.788  68.494  1.00  0.00    -0.142 Cl 
HETATM   21  C   UNL     1     -10.224   4.932  67.667  1.00  0.00    -0.135 A  
BRANCH  17  22
HETATM   22  S   UNL     1      -7.995   4.667  71.046  1.00  0.00    -0.084 S  
HETATM   23  O   UNL     1      -8.285   3.273  71.294  1.00  0.00    -0.061 OA 
HETATM   24  N   UNL     1      -6.466   4.665  70.357  1.00  0.00    -0.033 N  
HETATM   25  H1  UNL     1      -5.864   4.329  71.109  1.00  0.00     0.000 HD 
HETATM   26  O   UNL     1      -7.987   5.642  72.110  1.00  0.00    -0.105 OA 
HETATM   27  H2  UNL     1      -6.201   4.936  69.410  1.00  0.00     0.000 HD 
ENDBRANCH  17  22
ENDBRANCH  12  15
ENDBRANCH  10  11
TORSDOF 3
ENDMDL
MODEL      174
REMARK 921   NORMALIZED FREE ENERGY PREDICTED BY IDOCK:   -3.30 KCAL/MOL
REMARK 922        TOTAL FREE ENERGY PREDICTED BY IDOCK:   -4.54 KCAL/MOL
REMARK 923 INTER-LIGAND FREE ENERGY PREDICTED BY IDOCK:   -4.10 KCAL/MOL
REMARK 924 INTRA-LIGAND FREE ENERGY PREDICTED BY IDOCK:   -0.44 KCAL/MOL
REMARK 927      BINDING AFFINITY PREDICTED BY RF-SCORE:    0.00 PKD
ROOT
HETATM    1  C   UNL     1     -11.745   8.627  70.716  1.00  0.00    -0.239 C  
HETATM    2  C   UNL     1     -11.049   8.153  71.991  1.00  0.00    -0.306 A  
HETATM    3  C   UNL     1     -11.898   7.087  72.738  1.00  0.00     0.007 A  
HETATM    4  C   UNL     1     -11.030   5.868  72.678  1.00  0.00    -0.305 A  
HETATM    5  C   UNL     1     -11.296   4.609  73.192  1.00  0.00    -0.355 A  
HETATM    6  C   UNL     1     -10.325   3.619  73.038  1.00  0.00    -0.242 A  
HETATM    7  C   UNL     1      -9.127   3.897  72.363  1.00  0.00    -0.142 A  
HETATM    8  C   UNL     1      -8.872   5.180  71.857  1.00  0.00    -0.143 A  
HETATM    9  C   UNL     1      -9.823   6.171  72.041  1.00  0.00    -0.155 A  
HETATM   10  N   UNL     1      -9.734   7.535  71.741  1.00  0.00    -0.159 NA 
ENDROOT
BRANCH  10  11
HETATM   11  N   UNL     1      -8.872   7.974  70.754  1.00  0.00    -0.137 N  
HETATM   12  C   UNL     1      -7.807   8.782  71.133  1.00  0.00    -0.134 C  
HETATM   13  H   UNL     1      -9.013   7.714  69.777  1.00  0.00     0.000 HD 
HETATM   14  O   UNL     1      -7.489   9.048  72.289  1.00  0.00    -0.340 OA 
BRANCH  12  15
HETATM   15  C   UNL     1      -7.079   9.441  70.014  1.00  0.00    -0.083 A  
HETATM   16  C   UNL     1      -7.648  10.578  69.422  1.00  0.00    -0.145 A  
HETATM   17  C   UNL     1      -7.062  11.144  68.277  1.00  0.00    -0.073 A  
HETATM   18  C   UNL     1      -5.896  10.592  67.741  1.00  0.00    -0.043 A  
HETATM   19  C   UNL     1      -5.879   8.929  69.514  1.00  0.00    -0.033 A  
HETATM   20 CL   UNL     1      -5.131  11.154  66.298  1.00  0.00    -0.115 Cl 
HETATM   21  C   UNL     1      -5.295   9.500  68.379  1.00  0.00    -0.036 A  
BRANCH  17  22
HETATM   22  S   UNL     1      -7.869  12.514  67.514  1.00  0.00    -0.179 S  
HETATM   23  O   UNL     1      -6.889  13.536  67.223  1.00  0.00    -0.166 OA 
HETATM   24  N   UNL     1      -8.320  11.920  66.012  1.00  0.00    -0.376 N  
HETATM   25  H1  UNL     1      -8.787  12.713  65.570  1.00  0.00     0.000 HD 
HETATM   26  O   UNL     1      -9.080  12.808  68.242  1.00  0.00    -0.199 OA 
HETATM   27  H2  UNL     1      -8.165  10.988  65.630  1.00  0.00     0.000 HD 
ENDBRANCH  17  22
ENDBRANCH  12  15
ENDBRANCH  10  11
TORSDOF 3
ENDMDL
MODEL      175
REMARK 921   NORMALIZED FREE ENERGY PREDICTED BY IDOCK:   -3.22 KCAL/MOL
REMARK 922        TOTAL FREE ENERGY PREDICTED BY IDOCK:   -4.44 KCAL/MOL
REMARK 923 INTER-LIGAND FREE ENERGY PREDICTED BY IDOCK:   -3.98 KCAL/MOL
REMARK 924 INTRA-LIGAND FREE ENERGY PREDICTED BY IDOCK:   -0.47 KCAL/MOL
REMARK 927      BINDING AFFINITY PREDICTED BY RF-SCORE:    0.00 PKD
ROOT
HETATM    1  C   UNL     1      -6.685   9.694  70.299  1.00  0.00    -0.099 C  
HETATM    2  C   UNL     1      -8.001  10.299  69.813  1.00  0.00    -0.126 A  
HETATM    3  C   UNL     1      -7.766  11.318  68.663  1.00  0.00    -0.136 A  
HETATM    4  C   UNL     1      -8.470  10.681  67.505  1.00  0.00    -0.121 A  
HETATM    5  C   UNL     1      -8.581  11.161  66.209  1.00  0.00    -0.180 A  
HETATM    6  C   UNL     1      -9.309  10.406  65.290  1.00  0.00    -0.263 A  
HETATM    7  C   UNL     1      -9.889   9.187  65.673  1.00  0.00    -0.164 A  
HETATM    8  C   UNL     1      -9.773   8.722  66.990  1.00  0.00    -0.258 A  
HETATM    9  C   UNL     1      -9.079   9.490  67.911  1.00  0.00    -0.125 A  
HETATM   10  N   UNL     1      -8.944   9.294  69.290  1.00  0.00    -0.142 NA 
ENDROOT
BRANCH  10  11
HETATM   11  N   UNL     1      -9.066   8.026  69.826  1.00  0.00    -0.149 N  
HETATM   12  C   UNL     1     -10.230   7.725  70.525  1.00  0.00    -0.201 C  
HETATM   13  H   UNL     1      -8.326   7.333  69.713  1.00  0.00     0.000 HD 
HETATM   14  O   UNL     1     -11.218   8.448  70.610  1.00  0.00    -0.256 OA 
BRANCH  12  15
HETATM   15  C   UNL     1     -10.192   6.456  71.302  1.00  0.00    -0.232 A  
HETATM   16  C   UNL     1      -9.228   5.494  70.970  1.00  0.00    -0.174 A  
HETATM   17  C   UNL     1      -9.250   4.232  71.587  1.00  0.00    -0.132 A  
HETATM   18  C   UNL     1     -10.215   3.941  72.555  1.00  0.00    -0.164 A  
HETATM   19  C   UNL     1     -11.118   6.186  72.314  1.00  0.00    -0.320 A  
HETATM   20 CL   UNL     1     -10.386   2.405  73.323  1.00  0.00    -0.198 Cl 
HETATM   21  C   UNL     1     -11.130   4.931  72.932  1.00  0.00    -0.329 A  
BRANCH  17  22
HETATM   22  S   UNL     1      -8.076   3.024  71.064  1.00  0.00    -0.054 S  
HETATM   23  O   UNL     1      -7.516   2.376  72.229  1.00  0.00    -0.041 OA 
HETATM   24  N   UNL     1      -9.020   1.844  70.337  1.00  0.00    -0.071 N  
HETATM   25  H1  UNL     1      -8.340   1.145  70.035  1.00  0.00     0.000 HD 
HETATM   26  O   UNL     1      -7.238   3.599  70.039  1.00  0.00    -0.041 OA 
HETATM   27  H2  UNL     1     -10.033   1.829  70.223  1.00  0.00     0.000 HD 
ENDBRANCH  17  22
ENDBRANCH  12  15
ENDBRANCH  10  11
TORSDOF 3
ENDMDL
MODEL      176
REMARK 921   NORMALIZED FREE ENERGY PREDICTED BY IDOCK:   -3.22 KCAL/MOL
REMARK 922        TOTAL FREE ENERGY PREDICTED BY IDOCK:   -4.44 KCAL/MOL
REMARK 923 INTER-LIGAND FREE ENERGY PREDICTED BY IDOCK:   -4.46 KCAL/MOL
REMARK 924 INTRA-LIGAND FREE ENERGY PREDICTED BY IDOCK:    0.02 KCAL/MOL
REMARK 927      BINDING AFFINITY PREDICTED BY RF-SCORE:    0.00 PKD
ROOT
HETATM    1  C   UNL     1      -9.881   7.825  66.890  1.00  0.00    -0.305 C  
HETATM    2  C   UNL     1     -10.701   6.978  67.861  1.00  0.00    -0.210 A  
HETATM    3  C   UNL     1     -10.239   5.494  67.849  1.00  0.00    -0.231 A  
HETATM    4  C   UNL     1      -9.729   5.294  69.243  1.00  0.00    -0.235 A  
HETATM    5  C   UNL     1      -9.188   4.142  69.793  1.00  0.00    -0.213 A  
HETATM    6  C   UNL     1      -8.794   4.176  71.131  1.00  0.00    -0.149 A  
HETATM    7  C   UNL     1      -8.928   5.354  71.882  1.00  0.00    -0.144 A  
HETATM    8  C   UNL     1      -9.485   6.506  71.310  1.00  0.00    -0.172 A  
HETATM    9  C   UNL     1      -9.907   6.461  69.991  1.00  0.00    -0.168 A  
HETATM   10  N   UNL     1     -10.599   7.433  69.260  1.00  0.00    -0.220 NA 
ENDROOT
BRANCH  10  11
HETATM   11  N   UNL     1     -10.502   8.767  69.611  1.00  0.00    -0.217 N  
HETATM   12  C   UNL     1     -11.673   9.438  69.940  1.00  0.00     0.151 C  
HETATM   13  H   UNL     1      -9.599   9.243  69.629  1.00  0.00     0.000 HD 
HETATM   14  O   UNL     1     -12.781   8.923  70.063  1.00  0.00     0.925 OA 
BRANCH  12  15
HETATM   15  C   UNL     1     -11.548  10.918  70.044  1.00  0.00    -0.424 A  
HETATM   16  C   UNL     1     -12.255  11.581  71.058  1.00  0.00    -0.368 A  
HETATM   17  C   UNL     1     -12.271  12.985  71.103  1.00  0.00    -0.042 A  
HETATM   18  C   UNL     1     -11.562  13.726  70.153  1.00  0.00    -0.160 A  
HETATM   19  C   UNL     1     -10.789  11.658  69.134  1.00  0.00    -0.231 A  
HETATM   20 CL   UNL     1     -11.570  15.449  70.063  1.00  0.00    -0.308 Cl 
HETATM   21  C   UNL     1     -10.802  13.055  69.187  1.00  0.00    -0.133 A  
BRANCH  17  22
HETATM   22  S   UNL     1     -13.252  13.772  72.340  1.00  0.00    -0.477 S  
HETATM   23  O   UNL     1     -12.384  14.279  73.378  1.00  0.00    -0.186 OA 
HETATM   24  N   UNL     1     -13.834  15.143  71.569  1.00  0.00    -0.469 N  
HETATM   25  H1  UNL     1     -14.402  15.598  72.284  1.00  0.00     0.000 HD 
HETATM   26  O   UNL     1     -14.387  12.932  72.640  1.00  0.00    -0.471 OA 
HETATM   27  H2  UNL     1     -13.662  15.449  70.612  1.00  0.00     0.000 HD 
ENDBRANCH  17  22
ENDBRANCH  12  15
ENDBRANCH  10  11
TORSDOF 3
ENDMDL
MODEL      177
REMARK 921   NORMALIZED FREE ENERGY PREDICTED BY IDOCK:   -3.21 KCAL/MOL
REMARK 922        TOTAL FREE ENERGY PREDICTED BY IDOCK:   -4.44 KCAL/MOL
REMARK 923 INTER-LIGAND FREE ENERGY PREDICTED BY IDOCK:   -3.71 KCAL/MOL
REMARK 924 INTRA-LIGAND FREE ENERGY PREDICTED BY IDOCK:   -0.72 KCAL/MOL
REMARK 927      BINDING AFFINITY PREDICTED BY RF-SCORE:    0.00 PKD
ROOT
HETATM    1  C   UNL     1     -10.935  12.008  67.617  1.00  0.00    -0.287 C  
HETATM    2  C   UNL     1      -9.750  12.253  66.683  1.00  0.00    -0.222 A  
HETATM    3  C   UNL     1      -9.547  13.770  66.412  1.00  0.00    -0.285 A  
HETATM    4  C   UNL     1      -8.199  14.037  67.008  1.00  0.00    -0.078 A  
HETATM    5  C   UNL     1      -7.513  15.240  67.052  1.00  0.00    -0.125 A  
HETATM    6  C   UNL     1      -6.249  15.254  67.643  1.00  0.00    -0.155 A  
HETATM    7  C   UNL     1      -5.709  14.080  68.191  1.00  0.00    -0.128 A  
HETATM    8  C   UNL     1      -6.415  12.871  68.129  1.00  0.00    -0.096 A  
HETATM    9  C   UNL     1      -7.655  12.852  67.511  1.00  0.00    -0.164 A  
HETATM   10  N   UNL     1      -8.472  11.753  67.222  1.00  0.00    -0.153 NA 
ENDROOT
BRANCH  10  11
HETATM   11  N   UNL     1      -8.373  10.597  67.973  1.00  0.00    -0.116 N  
HETATM   12  C   UNL     1      -7.955   9.438  67.329  1.00  0.00    -0.106 C  
HETATM   13  H   UNL     1      -8.599  10.594  68.968  1.00  0.00     0.000 HD 
HETATM   14  O   UNL     1      -7.550   9.371  66.172  1.00  0.00    -0.095 OA 
BRANCH  12  15
HETATM   15  C   UNL     1      -8.126   8.182  68.110  1.00  0.00    -0.128 A  
HETATM   16  C   UNL     1      -9.129   8.132  69.088  1.00  0.00    -0.148 A  
HETATM   17  C   UNL     1      -9.232   7.017  69.937  1.00  0.00    -0.144 A  
HETATM   18  C   UNL     1      -8.350   5.942  69.791  1.00  0.00    -0.124 A  
HETATM   19  C   UNL     1      -7.286   7.081  67.924  1.00  0.00    -0.091 A  
HETATM   20 CL   UNL     1      -8.331   4.557  70.821  1.00  0.00    -0.087 Cl 
HETATM   21  C   UNL     1      -7.396   5.970  68.767  1.00  0.00    -0.085 A  
BRANCH  17  22
HETATM   22  S   UNL     1     -10.449   7.044  71.213  1.00  0.00    -0.206 S  
HETATM   23  O   UNL     1      -9.788   7.178  72.491  1.00  0.00    -0.152 OA 
HETATM   24  N   UNL     1     -11.228   8.512  70.985  1.00  0.00    -0.260 N  
HETATM   25  H1  UNL     1     -11.932   8.527  71.723  1.00  0.00     0.000 HD 
HETATM   26  O   UNL     1     -11.413   6.000  70.961  1.00  0.00    -0.280 OA 
HETATM   27  H2  UNL     1     -11.043   9.220  70.275  1.00  0.00     0.000 HD 
ENDBRANCH  17  22
ENDBRANCH  12  15
ENDBRANCH  10  11
TORSDOF 3
ENDMDL
MODEL      178
REMARK 921   NORMALIZED FREE ENERGY PREDICTED BY IDOCK:   -3.21 KCAL/MOL
REMARK 922        TOTAL FREE ENERGY PREDICTED BY IDOCK:   -4.44 KCAL/MOL
REMARK 923 INTER-LIGAND FREE ENERGY PREDICTED BY IDOCK:   -4.10 KCAL/MOL
REMARK 924 INTRA-LIGAND FREE ENERGY PREDICTED BY IDOCK:   -0.33 KCAL/MOL
REMARK 927      BINDING AFFINITY PREDICTED BY RF-SCORE:    0.00 PKD
ROOT
HETATM    1  C   UNL     1      -6.526  10.659  67.072  1.00  0.00    -0.079 C  
HETATM    2  C   UNL     1      -7.172  11.675  68.013  1.00  0.00    -0.083 A  
HETATM    3  C   UNL     1      -7.690  12.918  67.236  1.00  0.00    -0.122 A  
HETATM    4  C   UNL     1      -9.169  12.857  67.461  1.00  0.00    -0.192 A  
HETATM    5  C   UNL     1     -10.138  13.730  66.989  1.00  0.00    -0.256 A  
HETATM    6  C   UNL     1     -11.465  13.491  67.344  1.00  0.00    -0.366 A  
HETATM    7  C   UNL     1     -11.801  12.384  68.139  1.00  0.00    -0.372 A  
HETATM    8  C   UNL     1     -10.807  11.518  68.614  1.00  0.00    -0.253 A  
HETATM    9  C   UNL     1      -9.484  11.776  68.290  1.00  0.00    -0.193 A  
HETATM   10  N   UNL     1      -8.329  11.133  68.749  1.00  0.00    -0.152 NA 
ENDROOT
BRANCH  10  11
HETATM   11  N   UNL     1      -8.392   9.827  69.195  1.00  0.00    -0.127 N  
HETATM   12  C   UNL     1      -7.584   9.467  70.268  1.00  0.00    -0.155 C  
HETATM   13  H   UNL     1      -9.012   9.148  68.752  1.00  0.00     0.000 HD 
HETATM   14  O   UNL     1      -6.901  10.237  70.936  1.00  0.00    -0.339 OA 
BRANCH  12  15
HETATM   15  C   UNL     1      -7.490   8.004  70.528  1.00  0.00    -0.071 A  
HETATM   16  C   UNL     1      -8.643   7.221  70.378  1.00  0.00    -0.144 A  
HETATM   17  C   UNL     1      -8.627   5.866  70.747  1.00  0.00    -0.130 A  
HETATM   18  C   UNL     1      -7.453   5.286  71.238  1.00  0.00    -0.091 A  
HETATM   19  C   UNL     1      -6.301   7.409  70.960  1.00  0.00    -0.036 A  
HETATM   20 CL   UNL     1      -7.334   3.656  71.792  1.00  0.00    -0.050 Cl 
HETATM   21  C   UNL     1      -6.288   6.057  71.318  1.00  0.00    -0.044 A  
BRANCH  17  22
HETATM   22  S   UNL     1     -10.129   4.948  70.630  1.00  0.00    -0.214 S  
HETATM   23  O   UNL     1     -11.111   5.740  69.926  1.00  0.00    -0.360 OA 
HETATM   24  N   UNL     1      -9.750   3.704  69.572  1.00  0.00    -0.129 N  
HETATM   25  H1  UNL     1     -10.619   3.173  69.504  1.00  0.00     0.000 HD 
HETATM   26  O   UNL     1     -10.412   4.351  71.914  1.00  0.00    -0.142 OA 
HETATM   27  H2  UNL     1      -8.862   3.520  69.106  1.00  0.00     0.000 HD 
ENDBRANCH  17  22
ENDBRANCH  12  15
ENDBRANCH  10  11
TORSDOF 3
ENDMDL
MODEL      179
REMARK 921   NORMALIZED FREE ENERGY PREDICTED BY IDOCK:   -3.17 KCAL/MOL
REMARK 922        TOTAL FREE ENERGY PREDICTED BY IDOCK:   -4.39 KCAL/MOL
REMARK 923 INTER-LIGAND FREE ENERGY PREDICTED BY IDOCK:   -4.02 KCAL/MOL
REMARK 924 INTRA-LIGAND FREE ENERGY PREDICTED BY IDOCK:   -0.37 KCAL/MOL
REMARK 927      BINDING AFFINITY PREDICTED BY RF-SCORE:    0.00 PKD
ROOT
HETATM    1  C   UNL     1      -5.716  12.851  67.460  1.00  0.00    -0.100 C  
HETATM    2  C   UNL     1      -6.797  11.951  66.861  1.00  0.00    -0.075 A  
HETATM    3  C   UNL     1      -6.378  10.455  66.905  1.00  0.00    -0.071 A  
HETATM    4  C   UNL     1      -7.401   9.849  67.816  1.00  0.00    -0.089 A  
HETATM    5  C   UNL     1      -7.507   8.526  68.215  1.00  0.00    -0.096 A  
HETATM    6  C   UNL     1      -8.562   8.178  69.059  1.00  0.00    -0.133 A  
HETATM    7  C   UNL     1      -9.470   9.152  69.501  1.00  0.00    -0.170 A  
HETATM    8  C   UNL     1      -9.351  10.484  69.080  1.00  0.00    -0.200 A  
HETATM    9  C   UNL     1      -8.323  10.822  68.214  1.00  0.00    -0.125 A  
HETATM   10  N   UNL     1      -8.087  12.042  67.570  1.00  0.00    -0.150 NA 
ENDROOT
BRANCH  10  11
HETATM   11  N   UNL     1      -8.565  13.219  68.115  1.00  0.00    -0.173 N  
HETATM   12  C   UNL     1      -9.502  13.939  67.383  1.00  0.00    -0.226 C  
HETATM   13  H   UNL     1      -8.241  13.548  69.025  1.00  0.00     0.000 HD 
HETATM   14  O   UNL     1     -10.036  13.565  66.343  1.00  0.00    -0.280 OA 
BRANCH  12  15
HETATM   15  C   UNL     1      -9.774  15.315  67.882  1.00  0.00    -0.211 A  
HETATM   16  C   UNL     1     -10.076  16.318  66.951  1.00  0.00    -0.278 A  
HETATM   17  C   UNL     1     -10.204  17.653  67.369  1.00  0.00    -0.345 A  
HETATM   18  C   UNL     1     -10.057  17.982  68.720  1.00  0.00    -0.381 A  
HETATM   19  C   UNL     1      -9.690  15.635  69.240  1.00  0.00    -0.271 A  
HETATM   20 CL   UNL     1     -10.116  19.592  69.339  1.00  0.00    -0.335 Cl 
HETATM   21  C   UNL     1      -9.826  16.964  69.653  1.00  0.00     0.174 A  
BRANCH  17  22
HETATM   22  S   UNL     1     -10.488  18.892  66.146  1.00  0.00    -0.406 S  
HETATM   23  O   UNL     1     -11.002  18.263  64.950  1.00  0.00    -0.660 OA 
HETATM   24  N   UNL     1     -11.785  19.761  66.757  1.00  0.00     0.957 N  
HETATM   25  H1  UNL     1     -11.949  20.478  66.050  1.00  0.00     0.000 HD 
HETATM   26  O   UNL     1      -9.352  19.781  66.109  1.00  0.00    -0.379 OA 
HETATM   27  H2  UNL     1     -12.290  19.610  67.630  1.00  0.00     0.000 HD 
ENDBRANCH  17  22
ENDBRANCH  12  15
ENDBRANCH  10  11
TORSDOF 3
ENDMDL
MODEL      180
REMARK 921   NORMALIZED FREE ENERGY PREDICTED BY IDOCK:   -3.06 KCAL/MOL
REMARK 922        TOTAL FREE ENERGY PREDICTED BY IDOCK:   -4.25 KCAL/MOL
REMARK 923 INTER-LIGAND FREE ENERGY PREDICTED BY IDOCK:   -4.68 KCAL/MOL
REMARK 924 INTRA-LIGAND FREE ENERGY PREDICTED BY IDOCK:    0.42 KCAL/MOL
REMARK 927      BINDING AFFINITY PREDICTED BY RF-SCORE:    0.00 PKD
ROOT
HETATM    1  C   UNL     1     -11.476   9.331  70.275  1.00  0.00    -0.198 C  
HETATM    2  C   UNL     1     -10.480   8.763  71.286  1.00  0.00    -0.256 A  
HETATM    3  C   UNL     1     -11.205   7.981  72.417  1.00  0.00    -0.432 A  
HETATM    4  C   UNL     1     -10.702   6.583  72.230  1.00  0.00    -0.252 A  
HETATM    5  C   UNL     1     -11.025   5.457  72.971  1.00  0.00    -0.348 A  
HETATM    6  C   UNL     1     -10.415   4.250  72.631  1.00  0.00    -0.241 A  
HETATM    7  C   UNL     1      -9.518   4.186  71.553  1.00  0.00    -0.221 A  
HETATM    8  C   UNL     1      -9.197   5.337  70.821  1.00  0.00    -0.191 A  
HETATM    9  C   UNL     1      -9.777   6.542  71.182  1.00  0.00    -0.174 A  
HETATM   10  N   UNL     1      -9.514   7.824  70.686  1.00  0.00    -0.162 NA 
ENDROOT
BRANCH  10  11
HETATM   11  N   UNL     1      -9.001   7.984  69.412  1.00  0.00    -0.148 N  
HETATM   12  C   UNL     1      -9.704   7.422  68.353  1.00  0.00    -0.153 C  
HETATM   13  H   UNL     1      -8.134   8.499  69.255  1.00  0.00     0.000 HD 
HETATM   14  O   UNL     1     -10.809   6.893  68.431  1.00  0.00    -0.215 OA 
BRANCH  12  15
HETATM   15  C   UNL     1      -8.977   7.390  67.055  1.00  0.00    -0.142 A  
HETATM   16  C   UNL     1      -8.978   8.543  66.257  1.00  0.00    -0.207 A  
HETATM   17  C   UNL     1      -8.421   8.508  64.968  1.00  0.00    -0.164 A  
HETATM   18  C   UNL     1      -7.840   7.332  64.486  1.00  0.00    -0.121 A  
HETATM   19  C   UNL     1      -8.341   6.233  66.597  1.00  0.00    -0.112 A  
HETATM   20 CL   UNL     1      -7.195   7.148  62.896  1.00  0.00    -0.067 Cl 
HETATM   21  C   UNL     1      -7.781   6.205  65.316  1.00  0.00    -0.095 A  
BRANCH  17  22
HETATM   22  S   UNL     1      -8.533   9.957  63.968  1.00  0.00    -0.197 S  
HETATM   23  O   UNL     1      -9.619   9.798  63.028  1.00  0.00    -0.114 OA 
HETATM   24  N   UNL     1      -9.067  11.134  65.036  1.00  0.00    -0.331 N  
HETATM   25  H1  UNL     1      -9.131  11.972  64.457  1.00  0.00     0.000 HD 
HETATM   26  O   UNL     1      -7.206  10.332  63.540  1.00  0.00    -0.138 OA 
HETATM   27  H2  UNL     1      -9.277  11.036  66.029  1.00  0.00     0.000 HD 
ENDBRANCH  17  22
ENDBRANCH  12  15
ENDBRANCH  10  11
TORSDOF 3
ENDMDL
MODEL      181
REMARK 921   NORMALIZED FREE ENERGY PREDICTED BY IDOCK:   -3.05 KCAL/MOL
REMARK 922        TOTAL FREE ENERGY PREDICTED BY IDOCK:   -4.25 KCAL/MOL
REMARK 923 INTER-LIGAND FREE ENERGY PREDICTED BY IDOCK:   -4.19 KCAL/MOL
REMARK 924 INTRA-LIGAND FREE ENERGY PREDICTED BY IDOCK:   -0.06 KCAL/MOL
REMARK 927      BINDING AFFINITY PREDICTED BY RF-SCORE:    0.00 PKD
ROOT
HETATM    1  C   UNL     1      -7.591   4.952  65.523  1.00  0.00    -0.085 C  
HETATM    2  C   UNL     1      -8.935   4.485  66.079  1.00  0.00    -0.122 A  
HETATM    3  C   UNL     1      -8.907   2.972  66.434  1.00  0.00    -0.148 A  
HETATM    4  C   UNL     1      -9.116   2.974  67.917  1.00  0.00    -0.225 A  
HETATM    5  C   UNL     1      -9.178   1.882  68.768  1.00  0.00    -0.215 A  
HETATM    6  C   UNL     1      -9.405   2.119  70.124  1.00  0.00    -0.173 A  
HETATM    7  C   UNL     1      -9.544   3.431  70.603  1.00  0.00    -0.238 A  
HETATM    8  C   UNL     1      -9.486   4.521  69.725  1.00  0.00    -0.247 A  
HETATM    9  C   UNL     1      -9.296   4.283  68.374  1.00  0.00    -0.153 A  
HETATM   10  N   UNL     1      -9.332   5.192  67.310  1.00  0.00    -0.118 NA 
ENDROOT
BRANCH  10  11
HETATM   11  N   UNL     1      -9.061   6.530  67.531  1.00  0.00    -0.116 N  
HETATM   12  C   UNL     1     -10.071   7.449  67.275  1.00  0.00    -0.228 C  
HETATM   13  H   UNL     1      -8.147   6.833  67.870  1.00  0.00     0.000 HD 
HETATM   14  O   UNL     1     -11.230   7.171  66.981  1.00  0.00    -0.277 OA 
BRANCH  12  15
HETATM   15  C   UNL     1      -9.645   8.875  67.267  1.00  0.00    -0.212 A  
HETATM   16  C   UNL     1      -8.540   9.248  68.045  1.00  0.00    -0.121 A  
HETATM   17  C   UNL     1      -8.193  10.604  68.172  1.00  0.00    -0.116 A  
HETATM   18  C   UNL     1      -8.931  11.582  67.501  1.00  0.00    -0.159 A  
HETATM   19  C   UNL     1     -10.344   9.848  66.547  1.00  0.00    -0.259 A  
HETATM   20 CL   UNL     1      -8.647  13.279  67.641  1.00  0.00    -0.183 Cl 
HETATM   21  C   UNL     1      -9.990  11.195  66.670  1.00  0.00    -0.244 A  
BRANCH  17  22
HETATM   22  S   UNL     1      -6.854  11.030  69.238  1.00  0.00    -0.122 S  
HETATM   23  O   UNL     1      -7.061  10.407  70.526  1.00  0.00    -0.301 OA 
HETATM   24  N   UNL     1      -5.547  10.212  68.578  1.00  0.00    -0.038 N  
HETATM   25  H1  UNL     1      -4.773  10.458  69.195  1.00  0.00     0.000 HD 
HETATM   26  O   UNL     1      -6.587  12.442  69.111  1.00  0.00    -0.093 OA 
HETATM   27  H2  UNL     1      -5.530   9.610  67.755  1.00  0.00     0.000 HD 
ENDBRANCH  17  22
ENDBRANCH  12  15
ENDBRANCH  10  11
TORSDOF 3
ENDMDL
MODEL      182
REMARK 921   NORMALIZED FREE ENERGY PREDICTED BY IDOCK:   -2.88 KCAL/MOL
REMARK 922        TOTAL FREE ENERGY PREDICTED BY IDOCK:   -4.04 KCAL/MOL
REMARK 923 INTER-LIGAND FREE ENERGY PREDICTED BY IDOCK:   -3.74 KCAL/MOL
REMARK 924 INTRA-LIGAND FREE ENERGY PREDICTED BY IDOCK:   -0.31 KCAL/MOL
REMARK 927      BINDING AFFINITY PREDICTED BY RF-SCORE:    0.00 PKD
ROOT
HETATM    1  C   UNL     1      -9.580   4.349  64.676  1.00  0.00    -0.128 C  
HETATM    2  C   UNL     1      -9.499   3.905  66.136  1.00  0.00    -0.184 A  
HETATM    3  C   UNL     1      -8.927   2.465  66.260  1.00  0.00    -0.120 A  
HETATM    4  C   UNL     1      -7.649   2.679  67.012  1.00  0.00    -0.070 A  
HETATM    5  C   UNL     1      -6.722   1.725  67.401  1.00  0.00    -0.032 A  
HETATM    6  C   UNL     1      -5.604   2.151  68.119  1.00  0.00    -0.018 A  
HETATM    7  C   UNL     1      -5.424   3.512  68.413  1.00  0.00    -0.013 A  
HETATM    8  C   UNL     1      -6.377   4.460  68.017  1.00  0.00    -0.037 A  
HETATM    9  C   UNL     1      -7.504   4.031  67.335  1.00  0.00    -0.068 A  
HETATM   10  N   UNL     1      -8.633   4.768  66.959  1.00  0.00    -0.105 NA 
ENDROOT
BRANCH  10  11
HETATM   11  N   UNL     1      -8.541   6.135  66.775  1.00  0.00    -0.110 N  
HETATM   12  C   UNL     1      -8.946   6.960  67.818  1.00  0.00    -0.117 C  
HETATM   13  H   UNL     1      -8.186   6.527  65.902  1.00  0.00     0.000 HD 
HETATM   14  O   UNL     1      -9.271   6.584  68.940  1.00  0.00    -0.130 OA 
BRANCH  12  15
HETATM   15  C   UNL     1      -9.081   8.401  67.471  1.00  0.00    -0.145 A  
HETATM   16  C   UNL     1     -10.062   9.159  68.125  1.00  0.00    -0.225 A  
HETATM   17  C   UNL     1     -10.311  10.484  67.728  1.00  0.00    -0.212 A  
HETATM   18  C   UNL     1      -9.563  11.059  66.697  1.00  0.00    -0.189 A  
HETATM   19  C   UNL     1      -8.291   8.997  66.484  1.00  0.00    -0.115 A  
HETATM   20 CL   UNL     1      -9.829  12.647  66.074  1.00  0.00    -0.261 Cl 
HETATM   21  C   UNL     1      -8.537  10.319  66.097  1.00  0.00    -0.146 A  
BRANCH  17  22
HETATM   22  S   UNL     1     -11.621  11.363  68.517  1.00  0.00    -0.321 S  
HETATM   23  O   UNL     1     -12.294  10.478  69.440  1.00  0.00    -0.206 OA 
HETATM   24  N   UNL     1     -10.823  12.467  69.495  1.00  0.00    -0.452 N  
HETATM   25  H1  UNL     1     -11.581  12.976  69.951  1.00  0.00     0.000 HD 
HETATM   26  O   UNL     1     -12.345  12.115  67.521  1.00  0.00    -0.332 OA 
HETATM   27  H2  UNL     1      -9.818  12.599  69.607  1.00  0.00     0.000 HD 
ENDBRANCH  17  22
ENDBRANCH  12  15
ENDBRANCH  10  11
TORSDOF 3
ENDMDL
MODEL      183
REMARK 921   NORMALIZED FREE ENERGY PREDICTED BY IDOCK:   -2.87 KCAL/MOL
REMARK 922        TOTAL FREE ENERGY PREDICTED BY IDOCK:   -4.03 KCAL/MOL
REMARK 923 INTER-LIGAND FREE ENERGY PREDICTED BY IDOCK:   -3.58 KCAL/MOL
REMARK 924 INTRA-LIGAND FREE ENERGY PREDICTED BY IDOCK:   -0.45 KCAL/MOL
REMARK 927      BINDING AFFINITY PREDICTED BY RF-SCORE:    0.00 PKD
ROOT
HETATM    1  C   UNL     1      -6.230   9.093  68.223  1.00  0.00    -0.054 C  
HETATM    2  C   UNL     1      -7.135  10.110  68.919  1.00  0.00    -0.069 A  
HETATM    3  C   UNL     1      -7.133  11.474  68.175  1.00  0.00    -0.076 A  
HETATM    4  C   UNL     1      -8.554  11.608  67.721  1.00  0.00    -0.144 A  
HETATM    5  C   UNL     1      -9.122  12.646  67.000  1.00  0.00    -0.215 A  
HETATM    6  C   UNL     1     -10.483  12.571  66.703  1.00  0.00    -0.252 A  
HETATM    7  C   UNL     1     -11.239  11.462  67.110  1.00  0.00    -0.363 A  
HETATM    8  C   UNL     1     -10.649  10.425  67.846  1.00  0.00    -0.273 A  
HETATM    9  C   UNL     1      -9.305  10.517  68.170  1.00  0.00    -0.148 A  
HETATM   10  N   UNL     1      -8.543   9.679  68.993  1.00  0.00    -0.127 NA 
ENDROOT
BRANCH  10  11
HETATM   11  N   UNL     1      -8.919   8.363  69.181  1.00  0.00    -0.146 N  
HETATM   12  C   UNL     1      -8.850   7.845  70.469  1.00  0.00    -0.141 C  
HETATM   13  H   UNL     1      -9.237   7.789  68.399  1.00  0.00     0.000 HD 
HETATM   14  O   UNL     1      -8.596   8.487  71.484  1.00  0.00    -0.149 OA 
BRANCH  12  15
HETATM   15  C   UNL     1      -9.002   6.367  70.568  1.00  0.00    -0.151 A  
HETATM   16  C   UNL     1      -8.539   5.574  69.509  1.00  0.00    -0.105 A  
HETATM   17  C   UNL     1      -8.788   4.191  69.503  1.00  0.00    -0.089 A  
HETATM   18  C   UNL     1      -9.474   3.598  70.567  1.00  0.00    -0.185 A  
HETATM   19  C   UNL     1      -9.632   5.764  71.660  1.00  0.00    -0.178 A  
HETATM   20 CL   UNL     1      -9.903   1.927  70.633  1.00  0.00    -0.081 Cl 
HETATM   21  C   UNL     1      -9.871   4.386  71.653  1.00  0.00    -0.255 A  
BRANCH  17  22
HETATM   22  S   UNL     1      -8.270   3.252  68.103  1.00  0.00    -0.079 S  
HETATM   23  O   UNL     1      -7.507   4.105  67.219  1.00  0.00    -0.071 OA 
HETATM   24  N   UNL     1      -7.142   2.185  68.738  1.00  0.00    -0.043 N  
HETATM   25  H1  UNL     1      -6.843   1.642  67.927  1.00  0.00     0.000 HD 
HETATM   26  O   UNL     1      -9.385   2.468  67.627  1.00  0.00    -0.187 OA 
HETATM   27  H2  UNL     1      -6.830   2.099  69.705  1.00  0.00     0.000 HD 
ENDBRANCH  17  22
ENDBRANCH  12  15
ENDBRANCH  10  11
TORSDOF 3
ENDMDL
MODEL      184
REMARK 921   NORMALIZED FREE ENERGY PREDICTED BY IDOCK:   -2.83 KCAL/MOL
REMARK 922        TOTAL FREE ENERGY PREDICTED BY IDOCK:   -3.99 KCAL/MOL
REMARK 923 INTER-LIGAND FREE ENERGY PREDICTED BY IDOCK:   -3.39 KCAL/MOL
REMARK 924 INTRA-LIGAND FREE ENERGY PREDICTED BY IDOCK:   -0.60 KCAL/MOL
REMARK 927      BINDING AFFINITY PREDICTED BY RF-SCORE:    0.00 PKD
ROOT
HETATM    1  C   UNL     1      -9.752   8.444  72.386  1.00  0.00    -0.376 C  
HETATM    2  C   UNL     1      -8.915   7.268  72.886  1.00  0.00    -0.134 A  
HETATM    3  C   UNL     1      -9.503   6.668  74.193  1.00  0.00    -0.252 A  
HETATM    4  C   UNL     1      -9.886   5.280  73.780  1.00  0.00    -0.172 A  
HETATM    5  C   UNL     1     -10.466   4.290  74.558  1.00  0.00    -0.284 A  
HETATM    6  C   UNL     1     -10.719   3.053  73.965  1.00  0.00    -0.278 A  
HETATM    7  C   UNL     1     -10.409   2.836  72.613  1.00  0.00    -0.220 A  
HETATM    8  C   UNL     1      -9.815   3.846  71.845  1.00  0.00    -0.248 A  
HETATM    9  C   UNL     1      -9.533   5.063  72.444  1.00  0.00    -0.140 A  
HETATM   10  N   UNL     1      -8.837   6.158  71.918  1.00  0.00    -0.137 NA 
ENDROOT
BRANCH  10  11
HETATM   11  N   UNL     1      -8.782   6.354  70.551  1.00  0.00    -0.142 N  
HETATM   12  C   UNL     1      -7.537   6.297  69.936  1.00  0.00    -0.092 C  
HETATM   13  H   UNL     1      -9.629   6.535  70.010  1.00  0.00     0.000 HD 
HETATM   14  O   UNL     1      -6.487   5.970  70.480  1.00  0.00    -0.034 OA 
BRANCH  12  15
HETATM   15  C   UNL     1      -7.503   6.779  68.527  1.00  0.00    -0.092 A  
HETATM   16  C   UNL     1      -7.624   5.839  67.494  1.00  0.00    -0.093 A  
HETATM   17  C   UNL     1      -7.459   6.237  66.157  1.00  0.00    -0.085 A  
HETATM   18  C   UNL     1      -7.201   7.576  65.850  1.00  0.00    -0.066 A  
HETATM   19  C   UNL     1      -7.307   8.127  68.216  1.00  0.00    -0.095 A  
HETATM   20 CL   UNL     1      -6.905   8.166  64.255  1.00  0.00    -0.065 Cl 
HETATM   21  C   UNL     1      -7.151   8.520  66.883  1.00  0.00    -0.075 A  
BRANCH  17  22
HETATM   22  S   UNL     1      -7.526   5.000  64.901  1.00  0.00    -0.078 S  
HETATM   23  O   UNL     1      -6.180   4.685  64.478  1.00  0.00    -0.028 OA 
HETATM   24  N   UNL     1      -8.042   3.631  65.721  1.00  0.00    -0.093 N  
HETATM   25  H1  UNL     1      -8.081   2.916  64.994  1.00  0.00     0.000 HD 
HETATM   26  O   UNL     1      -8.558   5.351  63.954  1.00  0.00    -0.111 OA 
HETATM   27  H2  UNL     1      -8.266   3.536  66.711  1.00  0.00     0.000 HD 
ENDBRANCH  17  22
ENDBRANCH  12  15
ENDBRANCH  10  11
TORSDOF 3
ENDMDL
MODEL      185
REMARK 921   NORMALIZED FREE ENERGY PREDICTED BY IDOCK:   -2.80 KCAL/MOL
REMARK 922        TOTAL FREE ENERGY PREDICTED BY IDOCK:   -3.95 KCAL/MOL
REMARK 923 INTER-LIGAND FREE ENERGY PREDICTED BY IDOCK:   -3.44 KCAL/MOL
REMARK 924 INTRA-LIGAND FREE ENERGY PREDICTED BY IDOCK:   -0.52 KCAL/MOL
REMARK 927      BINDING AFFINITY PREDICTED BY RF-SCORE:    0.00 PKD
ROOT
HETATM    1  C   UNL     1      -9.761   8.447  72.384  1.00  0.00    -0.376 C  
HETATM    2  C   UNL     1      -8.932   7.253  72.855  1.00  0.00    -0.134 A  
HETATM    3  C   UNL     1      -9.511   6.641  74.161  1.00  0.00    -0.252 A  
HETATM    4  C   UNL     1      -9.916   5.264  73.732  1.00  0.00    -0.197 A  
HETATM    5  C   UNL     1     -10.499   4.270  74.503  1.00  0.00    -0.284 A  
HETATM    6  C   UNL     1     -10.773   3.045  73.895  1.00  0.00    -0.284 A  
HETATM    7  C   UNL     1     -10.483   2.844  72.537  1.00  0.00    -0.139 A  
HETATM    8  C   UNL     1      -9.886   3.859  71.776  1.00  0.00    -0.249 A  
HETATM    9  C   UNL     1      -9.582   5.063  72.389  1.00  0.00    -0.145 A  
HETATM   10  N   UNL     1      -8.879   6.157  71.871  1.00  0.00    -0.137 NA 
ENDROOT
BRANCH  10  11
HETATM   11  N   UNL     1      -8.838   6.373  70.506  1.00  0.00    -0.143 N  
HETATM   12  C   UNL     1      -7.773   5.834  69.794  1.00  0.00    -0.084 C  
HETATM   13  H   UNL     1      -9.568   6.910  70.036  1.00  0.00     0.000 HD 
HETATM   14  O   UNL     1      -6.919   5.079  70.250  1.00  0.00    -0.049 OA 
BRANCH  12  15
HETATM   15  C   UNL     1      -7.635   6.320  68.394  1.00  0.00    -0.096 A  
HETATM   16  C   UNL     1      -7.073   7.586  68.176  1.00  0.00    -0.084 A  
HETATM   17  C   UNL     1      -7.052   8.135  66.883  1.00  0.00    -0.078 A  
HETATM   18  C   UNL     1      -7.568   7.409  65.805  1.00  0.00    -0.090 A  
HETATM   19  C   UNL     1      -8.093   5.570  67.307  1.00  0.00    -0.101 A  
HETATM   20 CL   UNL     1      -7.665   8.010  64.190  1.00  0.00    -0.123 Cl 
HETATM   21  C   UNL     1      -8.063   6.118  66.020  1.00  0.00    -0.118 A  
BRANCH  17  22
HETATM   22  S   UNL     1      -6.422   9.769  66.677  1.00  0.00    -0.071 S  
HETATM   23  O   UNL     1      -7.530  10.686  66.530  1.00  0.00    -0.120 OA 
HETATM   24  N   UNL     1      -5.768  10.133  68.177  1.00  0.00    -0.038 N  
HETATM   25  H1  UNL     1      -5.403  11.078  68.058  1.00  0.00     0.000 HD 
HETATM   26  O   UNL     1      -5.334   9.734  65.729  1.00  0.00    -0.041 OA 
HETATM   27  H2  UNL     1      -5.741   9.548  69.012  1.00  0.00     0.000 HD 
ENDBRANCH  17  22
ENDBRANCH  12  15
ENDBRANCH  10  11
TORSDOF 3
ENDMDL
MODEL      186
REMARK 921   NORMALIZED FREE ENERGY PREDICTED BY IDOCK:   -2.73 KCAL/MOL
REMARK 922        TOTAL FREE ENERGY PREDICTED BY IDOCK:   -3.87 KCAL/MOL
REMARK 923 INTER-LIGAND FREE ENERGY PREDICTED BY IDOCK:   -3.43 KCAL/MOL
REMARK 924 INTRA-LIGAND FREE ENERGY PREDICTED BY IDOCK:   -0.44 KCAL/MOL
REMARK 927      BINDING AFFINITY PREDICTED BY RF-SCORE:    0.00 PKD
ROOT
HETATM    1  C   UNL     1      -8.506   4.747  66.311  1.00  0.00    -0.111 C  
HETATM    2  C   UNL     1      -9.332   4.447  67.562  1.00  0.00    -0.154 A  
HETATM    3  C   UNL     1      -8.807   3.184  68.299  1.00  0.00    -0.163 A  
HETATM    4  C   UNL     1      -8.351   3.733  69.616  1.00  0.00    -0.076 A  
HETATM    5  C   UNL     1      -7.787   3.040  70.676  1.00  0.00    -0.044 A  
HETATM    6  C   UNL     1      -7.455   3.757  71.826  1.00  0.00    -0.056 A  
HETATM    7  C   UNL     1      -7.672   5.143  71.887  1.00  0.00    -0.109 A  
HETATM    8  C   UNL     1      -8.251   5.824  70.807  1.00  0.00    -0.123 A  
HETATM    9  C   UNL     1      -8.612   5.105  69.679  1.00  0.00    -0.092 A  
HETATM   10  N   UNL     1      -9.311   5.543  68.549  1.00  0.00    -0.118 NA 
ENDROOT
BRANCH  10  11
HETATM   11  N   UNL     1      -9.286   6.878  68.191  1.00  0.00    -0.125 N  
HETATM   12  C   UNL     1     -10.400   7.652  68.494  1.00  0.00    -0.198 C  
HETATM   13  H   UNL     1      -8.476   7.282  67.719  1.00  0.00     0.000 HD 
HETATM   14  O   UNL     1     -11.363   7.286  69.160  1.00  0.00     0.029 OA 
BRANCH  12  15
HETATM   15  C   UNL     1     -10.432   8.995  67.852  1.00  0.00    -0.291 A  
HETATM   16  C   UNL     1      -9.936   9.127  66.547  1.00  0.00    -0.359 A  
HETATM   17  C   UNL     1      -9.823  10.398  65.961  1.00  0.00    -0.232 A  
HETATM   18  C   UNL     1     -10.230  11.534  66.667  1.00  0.00    -0.219 A  
HETATM   19  C   UNL     1     -10.896  10.124  68.532  1.00  0.00    -0.278 A  
HETATM   20 CL   UNL     1     -10.069  13.150  66.081  1.00  0.00    -0.286 Cl 
HETATM   21  C   UNL     1     -10.789  11.388  67.942  1.00  0.00    -0.274 A  
BRANCH  17  22
HETATM   22  S   UNL     1      -9.104  10.520  64.355  1.00  0.00    -0.241 S  
HETATM   23  O   UNL     1      -9.096   9.211  63.742  1.00  0.00    -0.076 OA 
HETATM   24  N   UNL     1     -10.240  11.389  63.479  1.00  0.00    -0.372 N  
HETATM   25  H1  UNL     1      -9.824  11.459  62.550  1.00  0.00     0.000 HD 
HETATM   26  O   UNL     1      -7.912  11.329  64.437  1.00  0.00     0.538 OA 
HETATM   27  H2  UNL     1     -11.134  11.760  63.799  1.00  0.00     0.000 HD 
ENDBRANCH  17  22
ENDBRANCH  12  15
ENDBRANCH  10  11
TORSDOF 3
ENDMDL
MODEL      187
REMARK 921   NORMALIZED FREE ENERGY PREDICTED BY IDOCK:   -2.70 KCAL/MOL
REMARK 922        TOTAL FREE ENERGY PREDICTED BY IDOCK:   -3.84 KCAL/MOL
REMARK 923 INTER-LIGAND FREE ENERGY PREDICTED BY IDOCK:   -3.74 KCAL/MOL
REMARK 924 INTRA-LIGAND FREE ENERGY PREDICTED BY IDOCK:   -0.10 KCAL/MOL
REMARK 927      BINDING AFFINITY PREDICTED BY RF-SCORE:    0.00 PKD
ROOT
HETATM    1  C   UNL     1     -11.251  14.340  64.843  1.00  0.00    -0.381 C  
HETATM    2  C   UNL     1     -10.014  15.097  65.324  1.00  0.00    -0.290 A  
HETATM    3  C   UNL     1     -10.049  16.585  64.876  1.00  0.00     0.746 A  
HETATM    4  C   UNL     1     -10.113  17.323  66.177  1.00  0.00    -0.312 A  
HETATM    5  C   UNL     1     -10.166  18.694  66.375  1.00  0.00    -0.461 A  
HETATM    6  C   UNL     1     -10.198  19.166  67.688  1.00  0.00    -0.492 A  
HETATM    7  C   UNL     1     -10.197  18.269  68.767  1.00  0.00    -0.342 A  
HETATM    8  C   UNL     1     -10.135  16.886  68.546  1.00  0.00    -0.297 A  
HETATM    9  C   UNL     1     -10.068  16.419  67.243  1.00  0.00    -0.270 A  
HETATM   10  N   UNL     1      -9.873  15.109  66.792  1.00  0.00    -0.235 NA 
ENDROOT
BRANCH  10  11
HETATM   11  N   UNL     1     -10.230  14.039  67.590  1.00  0.00    -0.240 N  
HETATM   12  C   UNL     1      -9.319  12.999  67.729  1.00  0.00    -0.199 C  
HETATM   13  H   UNL     1     -11.134  14.013  68.064  1.00  0.00     0.000 HD 
HETATM   14  O   UNL     1      -8.169  12.996  67.298  1.00  0.00    -0.180 OA 
BRANCH  12  15
HETATM   15  C   UNL     1      -9.855  11.766  68.368  1.00  0.00    -0.199 A  
HETATM   16  C   UNL     1     -11.114  11.823  68.981  1.00  0.00    -0.301 A  
HETATM   17  C   UNL     1     -11.592  10.723  69.713  1.00  0.00    -0.317 A  
HETATM   18  C   UNL     1     -10.826   9.558  69.809  1.00  0.00    -0.243 A  
HETATM   19  C   UNL     1      -9.117  10.580  68.413  1.00  0.00    -0.148 A  
HETATM   20 CL   UNL     1     -11.274   8.175  70.740  1.00  0.00    -0.268 Cl 
HETATM   21  C   UNL     1      -9.600   9.484  69.135  1.00  0.00    -0.170 A  
BRANCH  17  22
HETATM   22  S   UNL     1     -13.140  10.878  70.545  1.00  0.00     0.141 S  
HETATM   23  O   UNL     1     -14.128  10.081  69.856  1.00  0.00     0.941 OA 
HETATM   24  N   UNL     1     -12.889  10.078  71.998  1.00  0.00    -0.408 N  
HETATM   25  H1  UNL     1     -13.784  10.169  72.479  1.00  0.00     0.000 HD 
HETATM   26  O   UNL     1     -13.366  12.270  70.853  1.00  0.00     0.189 OA 
HETATM   27  H2  UNL     1     -12.043   9.612  72.323  1.00  0.00     0.000 HD 
ENDBRANCH  17  22
ENDBRANCH  12  15
ENDBRANCH  10  11
TORSDOF 3
ENDMDL
MODEL      188
REMARK 921   NORMALIZED FREE ENERGY PREDICTED BY IDOCK:   -2.66 KCAL/MOL
REMARK 922        TOTAL FREE ENERGY PREDICTED BY IDOCK:   -3.79 KCAL/MOL
REMARK 923 INTER-LIGAND FREE ENERGY PREDICTED BY IDOCK:   -4.36 KCAL/MOL
REMARK 924 INTRA-LIGAND FREE ENERGY PREDICTED BY IDOCK:    0.57 KCAL/MOL
REMARK 927      BINDING AFFINITY PREDICTED BY RF-SCORE:    0.00 PKD
ROOT
HETATM    1  C   UNL     1     -11.558  13.109  66.228  1.00  0.00    -0.399 C  
HETATM    2  C   UNL     1     -10.262  13.881  65.985  1.00  0.00    -0.310 A  
HETATM    3  C   UNL     1     -10.456  15.404  66.226  1.00  0.00    -0.310 A  
HETATM    4  C   UNL     1      -9.547  15.676  67.385  1.00  0.00    -0.217 A  
HETATM    5  C   UNL     1      -9.325  16.885  68.025  1.00  0.00    -0.238 A  
HETATM    6  C   UNL     1      -8.411  16.911  69.079  1.00  0.00    -0.142 A  
HETATM    7  C   UNL     1      -7.759  15.736  69.483  1.00  0.00    -0.166 A  
HETATM    8  C   UNL     1      -7.991  14.525  68.818  1.00  0.00    -0.142 A  
HETATM    9  C   UNL     1      -8.872  14.507  67.749  1.00  0.00    -0.183 A  
HETATM   10  N   UNL     1      -9.159  13.458  66.868  1.00  0.00    -0.238 NA 
ENDROOT
BRANCH  10  11
HETATM   11  N   UNL     1      -8.973  12.147  67.264  1.00  0.00    -0.177 N  
HETATM   12  C   UNL     1      -9.694  11.692  68.362  1.00  0.00    -0.199 C  
HETATM   13  H   UNL     1      -8.327  11.533  66.767  1.00  0.00     0.000 HD 
HETATM   14  O   UNL     1     -10.575  12.316  68.946  1.00  0.00    -0.211 OA 
BRANCH  12  15
HETATM   15  C   UNL     1      -9.258  10.376  68.905  1.00  0.00    -0.179 A  
HETATM   16  C   UNL     1      -8.122  10.333  69.725  1.00  0.00    -0.125 A  
HETATM   17  C   UNL     1      -7.602   9.096  70.143  1.00  0.00    -0.093 A  
HETATM   18  C   UNL     1      -8.231   7.907  69.765  1.00  0.00    -0.121 A  
HETATM   19  C   UNL     1      -9.922   9.190  68.580  1.00  0.00    -0.192 A  
HETATM   20 CL   UNL     1      -7.641   6.331  70.154  1.00  0.00    -0.094 Cl 
HETATM   21  C   UNL     1      -9.405   7.962  69.005  1.00  0.00    -0.151 A  
BRANCH  17  22
HETATM   22  S   UNL     1      -6.116   9.091  71.094  1.00  0.00    -0.064 S  
HETATM   23  O   UNL     1      -5.805  10.445  71.491  1.00  0.00    -0.302 OA 
HETATM   24  N   UNL     1      -6.560   8.324  72.518  1.00  0.00    -0.082 N  
HETATM   25  H1  UNL     1      -5.700   8.321  73.067  1.00  0.00     0.000 HD 
HETATM   26  O   UNL     1      -5.144   8.250  70.437  1.00  0.00    -0.023 OA 
HETATM   27  H2  UNL     1      -7.473   7.949  72.773  1.00  0.00     0.000 HD 
ENDBRANCH  17  22
ENDBRANCH  12  15
ENDBRANCH  10  11
TORSDOF 3
ENDMDL
MODEL      189
REMARK 921   NORMALIZED FREE ENERGY PREDICTED BY IDOCK:   -2.66 KCAL/MOL
REMARK 922        TOTAL FREE ENERGY PREDICTED BY IDOCK:   -3.78 KCAL/MOL
REMARK 923 INTER-LIGAND FREE ENERGY PREDICTED BY IDOCK:   -4.18 KCAL/MOL
REMARK 924 INTRA-LIGAND FREE ENERGY PREDICTED BY IDOCK:    0.40 KCAL/MOL
REMARK 927      BINDING AFFINITY PREDICTED BY RF-SCORE:    0.00 PKD
ROOT
HETATM    1  C   UNL     1     -11.325  12.342  66.861  1.00  0.00    -0.392 C  
HETATM    2  C   UNL     1     -10.139  12.934  66.102  1.00  0.00    -0.276 A  
HETATM    3  C   UNL     1      -9.909  14.423  66.481  1.00  0.00    -0.298 A  
HETATM    4  C   UNL     1      -8.555  14.399  67.121  1.00  0.00    -0.237 A  
HETATM    5  C   UNL     1      -7.847  15.465  67.653  1.00  0.00    -0.175 A  
HETATM    6  C   UNL     1      -6.582  15.213  68.184  1.00  0.00    -0.132 A  
HETATM    7  C   UNL     1      -6.062  13.910  68.192  1.00  0.00    -0.128 A  
HETATM    8  C   UNL     1      -6.789  12.846  67.642  1.00  0.00    -0.149 A  
HETATM    9  C   UNL     1      -8.031  13.104  67.083  1.00  0.00    -0.073 A  
HETATM   10  N   UNL     1      -8.868  12.236  66.373  1.00  0.00    -0.130 NA 
ENDROOT
BRANCH  10  11
HETATM   11  N   UNL     1      -8.788  10.871  66.576  1.00  0.00    -0.158 N  
HETATM   12  C   UNL     1      -9.335  10.037  65.608  1.00  0.00    -0.204 C  
HETATM   13  H   UNL     1      -8.342  10.489  67.410  1.00  0.00     0.000 HD 
HETATM   14  O   UNL     1      -9.782  10.399  64.524  1.00  0.00    -0.281 OA 
BRANCH  12  15
HETATM   15  C   UNL     1      -9.462   8.607  66.002  1.00  0.00    -0.278 A  
HETATM   16  C   UNL     1      -8.409   7.732  65.701  1.00  0.00    -0.143 A  
HETATM   17  C   UNL     1      -8.549   6.354  65.932  1.00  0.00    -0.148 A  
HETATM   18  C   UNL     1      -9.730   5.853  66.489  1.00  0.00    -0.155 A  
HETATM   19  C   UNL     1     -10.616   8.114  66.616  1.00  0.00    -0.076 A  
HETATM   20 CL   UNL     1     -10.045   4.176  66.747  1.00  0.00    -0.141 Cl 
HETATM   21  C   UNL     1     -10.749   6.741  66.852  1.00  0.00    -0.394 A  
BRANCH  17  22
HETATM   22  S   UNL     1      -7.233   5.284  65.447  1.00  0.00    -0.069 S  
HETATM   23  O   UNL     1      -7.150   5.264  64.004  1.00  0.00    -0.047 OA 
HETATM   24  N   UNL     1      -5.856   6.104  65.939  1.00  0.00    -0.024 N  
HETATM   25  H1  UNL     1      -5.095   5.485  65.658  1.00  0.00     0.000 HD 
HETATM   26  O   UNL     1      -7.310   4.068  66.221  1.00  0.00    -0.076 OA 
HETATM   27  H2  UNL     1      -5.794   7.008  66.408  1.00  0.00     0.000 HD 
ENDBRANCH  17  22
ENDBRANCH  12  15
ENDBRANCH  10  11
TORSDOF 3
ENDMDL
MODEL      190
REMARK 921   NORMALIZED FREE ENERGY PREDICTED BY IDOCK:   -2.64 KCAL/MOL
REMARK 922        TOTAL FREE ENERGY PREDICTED BY IDOCK:   -3.77 KCAL/MOL
REMARK 923 INTER-LIGAND FREE ENERGY PREDICTED BY IDOCK:   -4.30 KCAL/MOL
REMARK 924 INTRA-LIGAND FREE ENERGY PREDICTED BY IDOCK:    0.54 KCAL/MOL
REMARK 927      BINDING AFFINITY PREDICTED BY RF-SCORE:    0.00 PKD
ROOT
HETATM    1  C   UNL     1      -6.890  19.163  70.513  1.00  0.00     0.662 C  
HETATM    2  C   UNL     1      -7.361  19.829  69.221  1.00  0.00    -0.213 A  
HETATM    3  C   UNL     1      -6.199  20.582  68.514  1.00  0.00    -0.357 A  
HETATM    4  C   UNL     1      -6.057  19.837  67.223  1.00  0.00    -0.199 A  
HETATM    5  C   UNL     1      -5.159  20.080  66.195  1.00  0.00    -0.176 A  
HETATM    6  C   UNL     1      -5.220  19.266  65.064  1.00  0.00    -0.197 A  
HETATM    7  C   UNL     1      -6.154  18.221  64.990  1.00  0.00    -0.070 A  
HETATM    8  C   UNL     1      -7.059  17.996  66.035  1.00  0.00    -0.330 A  
HETATM    9  C   UNL     1      -7.021  18.827  67.144  1.00  0.00    -0.200 A  
HETATM   10  N   UNL     1      -7.896  18.872  68.235  1.00  0.00    -0.296 NA 
ENDROOT
BRANCH  10  11
HETATM   11  N   UNL     1      -8.619  17.750  68.592  1.00  0.00    -0.288 N  
HETATM   12  C   UNL     1      -7.932  16.550  68.727  1.00  0.00    -0.236 C  
HETATM   13  H   UNL     1      -9.626  17.801  68.751  1.00  0.00     0.000 HD 
HETATM   14  O   UNL     1      -6.713  16.415  68.674  1.00  0.00    -0.134 OA 
BRANCH  12  15
HETATM   15  C   UNL     1      -8.789  15.338  68.844  1.00  0.00    -0.209 A  
HETATM   16  C   UNL     1      -8.484  14.223  68.050  1.00  0.00    -0.164 A  
HETATM   17  C   UNL     1      -9.347  13.115  68.030  1.00  0.00    -0.219 A  
HETATM   18  C   UNL     1     -10.499  13.108  68.822  1.00  0.00    -0.167 A  
HETATM   19  C   UNL     1      -9.906  15.305  69.682  1.00  0.00    -0.224 A  
HETATM   20 CL   UNL     1     -11.669  11.840  68.823  1.00  0.00    -0.360 Cl 
HETATM   21  C   UNL     1     -10.759  14.196  69.665  1.00  0.00     0.016 A  
BRANCH  17  22
HETATM   22  S   UNL     1      -8.970  11.778  66.943  1.00  0.00    -0.200 S  
HETATM   23  O   UNL     1      -9.702  11.953  65.709  1.00  0.00    -0.233 OA 
HETATM   24  N   UNL     1      -7.368  12.048  66.526  1.00  0.00    -0.369 N  
HETATM   25  H1  UNL     1      -7.150  11.274  65.897  1.00  0.00     0.000 HD 
HETATM   26  O   UNL     1      -9.020  10.542  67.687  1.00  0.00    -0.137 OA 
HETATM   27  H2  UNL     1      -6.757  12.805  66.829  1.00  0.00     0.000 HD 
ENDBRANCH  17  22
ENDBRANCH  12  15
ENDBRANCH  10  11
TORSDOF 3
ENDMDL
MODEL      191
REMARK 921   NORMALIZED FREE ENERGY PREDICTED BY IDOCK:   -2.59 KCAL/MOL
REMARK 922        TOTAL FREE ENERGY PREDICTED BY IDOCK:   -3.71 KCAL/MOL
REMARK 923 INTER-LIGAND FREE ENERGY PREDICTED BY IDOCK:   -3.67 KCAL/MOL
REMARK 924 INTRA-LIGAND FREE ENERGY PREDICTED BY IDOCK:   -0.04 KCAL/MOL
REMARK 927      BINDING AFFINITY PREDICTED BY RF-SCORE:    0.00 PKD
ROOT
HETATM    1  C   UNL     1      -5.255  10.038  69.819  1.00  0.00    -0.037 C  
HETATM    2  C   UNL     1      -6.506  10.860  70.124  1.00  0.00    -0.145 A  
HETATM    3  C   UNL     1      -6.299  12.359  69.774  1.00  0.00    -0.081 A  
HETATM    4  C   UNL     1      -7.300  12.587  68.683  1.00  0.00    -0.099 A  
HETATM    5  C   UNL     1      -7.550  13.762  67.991  1.00  0.00    -0.145 A  
HETATM    6  C   UNL     1      -8.553  13.751  67.021  1.00  0.00    -0.182 A  
HETATM    7  C   UNL     1      -9.265  12.573  66.748  1.00  0.00    -0.217 A  
HETATM    8  C   UNL     1      -9.002  11.397  67.464  1.00  0.00    -0.150 A  
HETATM    9  C   UNL     1      -8.031  11.418  68.452  1.00  0.00    -0.142 A  
HETATM   10  N   UNL     1      -7.692  10.416  69.368  1.00  0.00    -0.145 NA 
ENDROOT
BRANCH  10  11
HETATM   11  N   UNL     1      -7.942   9.090  69.071  1.00  0.00    -0.100 N  
HETATM   12  C   UNL     1      -9.033   8.482  69.680  1.00  0.00    -0.145 C  
HETATM   13  H   UNL     1      -7.344   8.573  68.425  1.00  0.00     0.000 HD 
HETATM   14  O   UNL     1      -9.872   9.051  70.372  1.00  0.00    -0.177 OA 
BRANCH  12  15
HETATM   15  C   UNL     1      -9.095   7.001  69.539  1.00  0.00    -0.146 A  
HETATM   16  C   UNL     1      -9.002   6.446  68.256  1.00  0.00    -0.116 A  
HETATM   17  C   UNL     1      -9.193   5.066  68.069  1.00  0.00    -0.119 A  
HETATM   18  C   UNL     1      -9.451   4.239  69.166  1.00  0.00    -0.175 A  
HETATM   19  C   UNL     1      -9.291   6.166  70.642  1.00  0.00    -0.177 A  
HETATM   20 CL   UNL     1      -9.778   2.548  69.051  1.00  0.00    -0.024 Cl 
HETATM   21  C   UNL     1      -9.473   4.792  70.453  1.00  0.00    -0.241 A  
BRANCH  17  22
HETATM   22  S   UNL     1      -9.161   4.431  66.424  1.00  0.00    -0.135 S  
HETATM   23  O   UNL     1      -9.194   2.987  66.476  1.00  0.00    -0.158 OA 
HETATM   24  N   UNL     1     -10.656   4.866  65.803  1.00  0.00    -0.500 N  
HETATM   25  H1  UNL     1     -10.637   4.499  64.851  1.00  0.00     0.000 HD 
HETATM   26  O   UNL     1      -8.157   5.141  65.669  1.00  0.00    -0.109 OA 
HETATM   27  H2  UNL     1     -11.407   5.378  66.266  1.00  0.00     0.000 HD 
ENDBRANCH  17  22
ENDBRANCH  12  15
ENDBRANCH  10  11
TORSDOF 3
ENDMDL
MODEL      192
REMARK 921   NORMALIZED FREE ENERGY PREDICTED BY IDOCK:   -2.59 KCAL/MOL
REMARK 922        TOTAL FREE ENERGY PREDICTED BY IDOCK:   -3.70 KCAL/MOL
REMARK 923 INTER-LIGAND FREE ENERGY PREDICTED BY IDOCK:   -3.05 KCAL/MOL
REMARK 924 INTRA-LIGAND FREE ENERGY PREDICTED BY IDOCK:   -0.65 KCAL/MOL
REMARK 927      BINDING AFFINITY PREDICTED BY RF-SCORE:    0.00 PKD
ROOT
HETATM    1  C   UNL     1     -11.129  11.102  63.806  1.00  0.00    -0.157 C  
HETATM    2  C   UNL     1     -10.536  12.399  64.353  1.00  0.00    -0.344 A  
HETATM    3  C   UNL     1     -11.619  13.506  64.488  1.00  0.00    -0.410 A  
HETATM    4  C   UNL     1     -11.659  13.754  65.965  1.00  0.00    -0.361 A  
HETATM    5  C   UNL     1     -12.459  14.651  66.655  1.00  0.00     0.140 A  
HETATM    6  C   UNL     1     -12.312  14.730  68.040  1.00  0.00     0.135 A  
HETATM    7  C   UNL     1     -11.392  13.905  68.706  1.00  0.00    -0.310 A  
HETATM    8  C   UNL     1     -10.586  13.010  67.989  1.00  0.00    -0.246 A  
HETATM    9  C   UNL     1     -10.708  12.957  66.610  1.00  0.00    -0.265 A  
HETATM   10  N   UNL     1      -9.932  12.244  65.689  1.00  0.00    -0.253 NA 
ENDROOT
BRANCH  10  11
HETATM   11  N   UNL     1      -9.261  11.102  66.084  1.00  0.00    -0.192 N  
HETATM   12  C   UNL     1      -7.908  11.214  66.383  1.00  0.00    -0.136 C  
HETATM   13  H   UNL     1      -9.743  10.205  66.153  1.00  0.00     0.000 HD 
HETATM   14  O   UNL     1      -7.275  12.264  66.443  1.00  0.00     0.331 OA 
BRANCH  12  15
HETATM   15  C   UNL     1      -7.183   9.923  66.535  1.00  0.00    -0.095 A  
HETATM   16  C   UNL     1      -7.886   8.730  66.316  1.00  0.00    -0.102 A  
HETATM   17  C   UNL     1      -7.275   7.493  66.583  1.00  0.00    -0.083 A  
HETATM   18  C   UNL     1      -5.956   7.447  67.042  1.00  0.00    -0.042 A  
HETATM   19  C   UNL     1      -5.844   9.874  66.933  1.00  0.00    -0.051 A  
HETATM   20 CL   UNL     1      -5.129   5.995  67.474  1.00  0.00    -0.004 Cl 
HETATM   21  C   UNL     1      -5.238   8.640  67.190  1.00  0.00    -0.033 A  
BRANCH  17  22
HETATM   22  S   UNL     1      -8.233   6.025  66.384  1.00  0.00    -0.115 S  
HETATM   23  O   UNL     1      -8.633   5.543  67.687  1.00  0.00    -0.109 OA 
HETATM   24  N   UNL     1      -9.654   6.573  65.682  1.00  0.00    -0.262 N  
HETATM   25  H1  UNL     1     -10.208   5.724  65.567  1.00  0.00     0.000 HD 
HETATM   26  O   UNL     1      -7.580   5.168  65.424  1.00  0.00    -0.082 OA 
HETATM   27  H2  UNL     1      -9.905   7.528  65.429  1.00  0.00     0.000 HD 
ENDBRANCH  17  22
ENDBRANCH  12  15
ENDBRANCH  10  11
TORSDOF 3
ENDMDL
MODEL      193
REMARK 921   NORMALIZED FREE ENERGY PREDICTED BY IDOCK:   -2.56 KCAL/MOL
REMARK 922        TOTAL FREE ENERGY PREDICTED BY IDOCK:   -3.67 KCAL/MOL
REMARK 923 INTER-LIGAND FREE ENERGY PREDICTED BY IDOCK:   -3.31 KCAL/MOL
REMARK 924 INTRA-LIGAND FREE ENERGY PREDICTED BY IDOCK:   -0.36 KCAL/MOL
REMARK 927      BINDING AFFINITY PREDICTED BY RF-SCORE:    0.00 PKD
ROOT
HETATM    1  C   UNL     1      -9.572   4.337  64.652  1.00  0.00    -0.160 C  
HETATM    2  C   UNL     1      -9.599   3.985  66.138  1.00  0.00    -0.197 A  
HETATM    3  C   UNL     1      -9.118   2.529  66.386  1.00  0.00    -0.110 A  
HETATM    4  C   UNL     1      -7.874   2.722  67.198  1.00  0.00    -0.074 A  
HETATM    5  C   UNL     1      -7.026   1.748  67.700  1.00  0.00    -0.039 A  
HETATM    6  C   UNL     1      -5.928   2.159  68.455  1.00  0.00    -0.024 A  
HETATM    7  C   UNL     1      -5.687   3.524  68.674  1.00  0.00    -0.022 A  
HETATM    8  C   UNL     1      -6.560   4.495  68.165  1.00  0.00    -0.042 A  
HETATM    9  C   UNL     1      -7.670   4.083  67.445  1.00  0.00    -0.080 A  
HETATM   10  N   UNL     1      -8.732   4.853  66.956  1.00  0.00    -0.104 NA 
ENDROOT
BRANCH  10  11
HETATM   11  N   UNL     1      -8.552   6.198  66.694  1.00  0.00    -0.115 N  
HETATM   12  C   UNL     1      -9.069   7.113  67.604  1.00  0.00    -0.127 C  
HETATM   13  H   UNL     1      -8.055   6.510  65.859  1.00  0.00     0.000 HD 
HETATM   14  O   UNL     1      -9.572   6.834  68.688  1.00  0.00    -0.133 OA 
BRANCH  12  15
HETATM   15  C   UNL     1      -9.085   8.528  67.141  1.00  0.00    -0.164 A  
HETATM   16  C   UNL     1      -8.110   9.406  67.635  1.00  0.00    -0.106 A  
HETATM   17  C   UNL     1      -8.175  10.776  67.330  1.00  0.00    -0.121 A  
HETATM   18  C   UNL     1      -9.197  11.264  66.510  1.00  0.00    -0.188 A  
HETATM   19  C   UNL     1     -10.069   9.006  66.272  1.00  0.00    -0.311 A  
HETATM   20 CL   UNL     1      -9.423  12.932  66.130  1.00  0.00    -0.207 Cl 
HETATM   21  C   UNL     1     -10.126  10.370  65.964  1.00  0.00    -0.307 A  
BRANCH  17  22
HETATM   22  S   UNL     1      -6.981  11.853  68.054  1.00  0.00    -0.086 S  
HETATM   23  O   UNL     1      -6.342  12.620  67.008  1.00  0.00    -0.212 OA 
HETATM   24  N   UNL     1      -7.912  12.971  68.888  1.00  0.00    -0.335 N  
HETATM   25  H1  UNL     1      -7.221  13.594  69.307  1.00  0.00     0.000 HD 
HETATM   26  O   UNL     1      -6.216  11.115  69.030  1.00  0.00    -0.042 OA 
HETATM   27  H2  UNL     1      -8.928  13.017  68.961  1.00  0.00     0.000 HD 
ENDBRANCH  17  22
ENDBRANCH  12  15
ENDBRANCH  10  11
TORSDOF 3
ENDMDL
MODEL      194
REMARK 921   NORMALIZED FREE ENERGY PREDICTED BY IDOCK:   -2.38 KCAL/MOL
REMARK 922        TOTAL FREE ENERGY PREDICTED BY IDOCK:   -3.46 KCAL/MOL
REMARK 923 INTER-LIGAND FREE ENERGY PREDICTED BY IDOCK:   -4.38 KCAL/MOL
REMARK 924 INTRA-LIGAND FREE ENERGY PREDICTED BY IDOCK:    0.91 KCAL/MOL
REMARK 927      BINDING AFFINITY PREDICTED BY RF-SCORE:    0.00 PKD
ROOT
HETATM    1  C   UNL     1      -7.913  19.727  69.817  1.00  0.00     0.470 C  
HETATM    2  C   UNL     1      -8.075  20.239  68.387  1.00  0.00     0.081 A  
HETATM    3  C   UNL     1      -6.760  20.880  67.862  1.00  0.00    -0.337 A  
HETATM    4  C   UNL     1      -6.382  19.981  66.725  1.00  0.00    -0.214 A  
HETATM    5  C   UNL     1      -5.280  20.082  65.891  1.00  0.00    -0.176 A  
HETATM    6  C   UNL     1      -5.138  19.138  64.874  1.00  0.00    -0.198 A  
HETATM    7  C   UNL     1      -6.079  18.108  64.724  1.00  0.00     0.342 A  
HETATM    8  C   UNL     1      -7.191  18.027  65.572  1.00  0.00     0.090 A  
HETATM    9  C   UNL     1      -7.350  18.986  66.559  1.00  0.00    -0.233 A  
HETATM   10  N   UNL     1      -8.432  19.178  67.427  1.00  0.00    -0.279 NA 
ENDROOT
BRANCH  10  11
HETATM   11  N   UNL     1      -9.261  18.120  67.748  1.00  0.00    -0.260 N  
HETATM   12  C   UNL     1      -8.670  16.945  68.198  1.00  0.00    -0.226 C  
HETATM   13  H   UNL     1     -10.274  18.199  67.659  1.00  0.00     0.000 HD 
HETATM   14  O   UNL     1      -7.478  16.797  68.450  1.00  0.00    -0.183 OA 
BRANCH  12  15
HETATM   15  C   UNL     1      -9.577  15.766  68.269  1.00  0.00    -0.201 A  
HETATM   16  C   UNL     1     -10.467  15.669  69.347  1.00  0.00    -0.253 A  
HETATM   17  C   UNL     1     -11.238  14.508  69.522  1.00  0.00    -0.264 A  
HETATM   18  C   UNL     1     -11.141  13.457  68.605  1.00  0.00    -0.263 A  
HETATM   19  C   UNL     1      -9.526  14.742  67.319  1.00  0.00    -0.217 A  
HETATM   20 CL   UNL     1     -11.980  11.956  68.757  1.00  0.00    -0.348 Cl 
HETATM   21  C   UNL     1     -10.302  13.591  67.492  1.00  0.00    -0.237 A  
BRANCH  17  22
HETATM   22  S   UNL     1     -12.271  14.394  70.947  1.00  0.00    -0.363 S  
HETATM   23  O   UNL     1     -11.808  15.336  71.941  1.00  0.00    -0.353 OA 
HETATM   24  N   UNL     1     -13.737  15.018  70.423  1.00  0.00    -0.425 N  
HETATM   25  H1  UNL     1     -14.335  14.952  71.248  1.00  0.00     0.000 HD 
HETATM   26  O   UNL     1     -12.483  13.001  71.260  1.00  0.00    -0.331 OA 
HETATM   27  H2  UNL     1     -13.975  15.378  69.500  1.00  0.00     0.000 HD 
ENDBRANCH  17  22
ENDBRANCH  12  15
ENDBRANCH  10  11
TORSDOF 3
ENDMDL
MODEL      195
REMARK 921   NORMALIZED FREE ENERGY PREDICTED BY IDOCK:   -2.33 KCAL/MOL
REMARK 922        TOTAL FREE ENERGY PREDICTED BY IDOCK:   -3.40 KCAL/MOL
REMARK 923 INTER-LIGAND FREE ENERGY PREDICTED BY IDOCK:   -4.24 KCAL/MOL
REMARK 924 INTRA-LIGAND FREE ENERGY PREDICTED BY IDOCK:    0.84 KCAL/MOL
REMARK 927      BINDING AFFINITY PREDICTED BY RF-SCORE:    0.00 PKD
ROOT
HETATM    1  C   UNL     1     -10.840   9.976  68.070  1.00  0.00    -0.311 C  
HETATM    2  C   UNL     1     -10.106   9.896  69.408  1.00  0.00    -0.212 A  
HETATM    3  C   UNL     1     -11.095   9.982  70.603  1.00  0.00    -0.408 A  
HETATM    4  C   UNL     1     -10.936   8.647  71.263  1.00  0.00    -0.333 A  
HETATM    5  C   UNL     1     -11.589   8.172  72.390  1.00  0.00    -0.463 A  
HETATM    6  C   UNL     1     -11.266   6.894  72.846  1.00  0.00    -0.254 A  
HETATM    7  C   UNL     1     -10.322   6.113  72.162  1.00  0.00    -0.227 A  
HETATM    8  C   UNL     1      -9.667   6.613  71.028  1.00  0.00    -0.185 A  
HETATM    9  C   UNL     1      -9.963   7.896  70.597  1.00  0.00    -0.186 A  
HETATM   10  N   UNL     1      -9.351   8.642  69.583  1.00  0.00    -0.160 NA 
ENDROOT
BRANCH  10  11
HETATM   11  N   UNL     1      -8.706   8.001  68.542  1.00  0.00    -0.131 N  
HETATM   12  C   UNL     1      -9.454   7.142  67.744  1.00  0.00    -0.126 C  
HETATM   13  H   UNL     1      -7.713   8.152  68.365  1.00  0.00     0.000 HD 
HETATM   14  O   UNL     1     -10.670   6.989  67.806  1.00  0.00    -0.223 OA 
BRANCH  12  15
HETATM   15  C   UNL     1      -8.662   6.282  66.823  1.00  0.00    -0.117 A  
HETATM   16  C   UNL     1      -8.579   4.909  67.094  1.00  0.00    -0.104 A  
HETATM   17  C   UNL     1      -7.732   4.089  66.329  1.00  0.00    -0.090 A  
HETATM   18  C   UNL     1      -6.990   4.635  65.278  1.00  0.00    -0.062 A  
HETATM   19  C   UNL     1      -7.969   6.815  65.733  1.00  0.00    -0.112 A  
HETATM   20 CL   UNL     1      -5.863   3.745  64.321  1.00  0.00    -0.014 Cl 
HETATM   21  C   UNL     1      -7.132   5.994  64.969  1.00  0.00    -0.061 A  
BRANCH  17  22
HETATM   22  S   UNL     1      -7.590   2.388  66.770  1.00  0.00    -0.071 S  
HETATM   23  O   UNL     1      -6.893   2.285  68.032  1.00  0.00    -0.038 OA 
HETATM   24  N   UNL     1      -9.167   1.937  67.120  1.00  0.00    -0.310 N  
HETATM   25  H1  UNL     1      -9.084   0.952  67.375  1.00  0.00     0.000 HD 
HETATM   26  O   UNL     1      -7.174   1.637  65.609  1.00  0.00    -0.049 OA 
HETATM   27  H2  UNL     1     -10.009   2.510  67.085  1.00  0.00     0.000 HD 
ENDBRANCH  17  22
ENDBRANCH  12  15
ENDBRANCH  10  11
TORSDOF 3
ENDMDL
MODEL      196
REMARK 921   NORMALIZED FREE ENERGY PREDICTED BY IDOCK:   -2.25 KCAL/MOL
REMARK 922        TOTAL FREE ENERGY PREDICTED BY IDOCK:   -3.30 KCAL/MOL
REMARK 923 INTER-LIGAND FREE ENERGY PREDICTED BY IDOCK:   -3.89 KCAL/MOL
REMARK 924 INTRA-LIGAND FREE ENERGY PREDICTED BY IDOCK:    0.59 KCAL/MOL
REMARK 927      BINDING AFFINITY PREDICTED BY RF-SCORE:    0.00 PKD
ROOT
HETATM    1  C   UNL     1      -8.668  10.821  67.210  1.00  0.00    -0.130 C  
HETATM    2  C   UNL     1      -9.486   9.987  66.226  1.00  0.00    -0.191 A  
HETATM    3  C   UNL     1      -8.924  10.100  64.781  1.00  0.00    -0.236 A  
HETATM    4  C   UNL     1      -8.488   8.699  64.483  1.00  0.00    -0.128 A  
HETATM    5  C   UNL     1      -7.905   8.219  63.321  1.00  0.00    -0.149 A  
HETATM    6  C   UNL     1      -7.598   6.860  63.254  1.00  0.00    -0.090 A  
HETATM    7  C   UNL     1      -7.857   6.018  64.346  1.00  0.00    -0.113 A  
HETATM    8  C   UNL     1      -8.455   6.520  65.510  1.00  0.00    -0.139 A  
HETATM    9  C   UNL     1      -8.791   7.863  65.562  1.00  0.00    -0.031 A  
HETATM   10  N   UNL     1      -9.501   8.550  66.554  1.00  0.00    -0.200 NA 
ENDROOT
BRANCH  10  11
HETATM   11  N   UNL     1      -9.517   8.075  67.852  1.00  0.00    -0.144 N  
HETATM   12  C   UNL     1      -8.296   7.846  68.475  1.00  0.00    -0.128 C  
HETATM   13  H   UNL     1     -10.398   7.897  68.337  1.00  0.00     0.000 HD 
HETATM   14  O   UNL     1      -7.196   8.141  68.019  1.00  0.00    -0.090 OA 
BRANCH  12  15
HETATM   15  C   UNL     1      -8.369   7.088  69.754  1.00  0.00    -0.132 A  
HETATM   16  C   UNL     1      -9.557   7.141  70.498  1.00  0.00    -0.169 A  
HETATM   17  C   UNL     1      -9.617   6.553  71.772  1.00  0.00    -0.152 A  
HETATM   18  C   UNL     1      -8.501   5.890  72.292  1.00  0.00    -0.121 A  
HETATM   19  C   UNL     1      -7.275   6.372  70.248  1.00  0.00    -0.080 A  
HETATM   20 CL   UNL     1      -8.432   5.198  73.872  1.00  0.00    -0.110 Cl 
HETATM   21  C   UNL     1      -7.342   5.782  71.514  1.00  0.00    -0.088 A  
BRANCH  17  22
HETATM   22  S   UNL     1     -11.102   6.729  72.707  1.00  0.00    -0.235 S  
HETATM   23  O   UNL     1     -12.158   7.185  71.833  1.00  0.00    -0.300 OA 
HETATM   24  N   UNL     1     -11.520   5.150  73.086  1.00  0.00    -0.457 N  
HETATM   25  H1  UNL     1     -12.379   5.252  73.628  1.00  0.00     0.000 HD 
HETATM   26  O   UNL     1     -10.796   7.403  73.947  1.00  0.00    -0.281 OA 
HETATM   27  H2  UNL     1     -11.031   4.291  72.836  1.00  0.00     0.000 HD 
ENDBRANCH  17  22
ENDBRANCH  12  15
ENDBRANCH  10  11
TORSDOF 3
ENDMDL
MODEL      197
REMARK 921   NORMALIZED FREE ENERGY PREDICTED BY IDOCK:   -2.19 KCAL/MOL
REMARK 922        TOTAL FREE ENERGY PREDICTED BY IDOCK:   -3.23 KCAL/MOL
REMARK 923 INTER-LIGAND FREE ENERGY PREDICTED BY IDOCK:   -4.10 KCAL/MOL
REMARK 924 INTRA-LIGAND FREE ENERGY PREDICTED BY IDOCK:    0.87 KCAL/MOL
REMARK 927      BINDING AFFINITY PREDICTED BY RF-SCORE:    0.00 PKD
ROOT
HETATM    1  C   UNL     1     -10.839   9.976  68.070  1.00  0.00    -0.311 C  
HETATM    2  C   UNL     1     -10.106   9.903  69.409  1.00  0.00    -0.212 A  
HETATM    3  C   UNL     1     -11.098   9.984  70.603  1.00  0.00    -0.408 A  
HETATM    4  C   UNL     1     -10.931   8.651  71.265  1.00  0.00    -0.333 A  
HETATM    5  C   UNL     1     -11.582   8.174  72.392  1.00  0.00    -0.463 A  
HETATM    6  C   UNL     1     -11.250   6.898  72.850  1.00  0.00    -0.254 A  
HETATM    7  C   UNL     1     -10.300   6.123  72.169  1.00  0.00    -0.227 A  
HETATM    8  C   UNL     1      -9.646   6.626  71.036  1.00  0.00    -0.178 A  
HETATM    9  C   UNL     1      -9.951   7.906  70.602  1.00  0.00    -0.186 A  
HETATM   10  N   UNL     1      -9.343   8.655  69.588  1.00  0.00    -0.160 NA 
ENDROOT
BRANCH  10  11
HETATM   11  N   UNL     1      -8.691   8.017  68.549  1.00  0.00    -0.131 N  
HETATM   12  C   UNL     1      -9.430   7.149  67.754  1.00  0.00    -0.126 C  
HETATM   13  H   UNL     1      -7.699   8.177  68.371  1.00  0.00     0.000 HD 
HETATM   14  O   UNL     1     -10.645   6.984  67.816  1.00  0.00    -0.201 OA 
BRANCH  12  15
HETATM   15  C   UNL     1      -8.630   6.293  66.835  1.00  0.00    -0.113 A  
HETATM   16  C   UNL     1      -8.219   6.830  65.608  1.00  0.00    -0.134 A  
HETATM   17  C   UNL     1      -7.582   6.013  64.659  1.00  0.00    -0.091 A  
HETATM   18  C   UNL     1      -7.334   4.668  64.946  1.00  0.00    -0.071 A  
HETATM   19  C   UNL     1      -8.325   4.965  67.146  1.00  0.00    -0.106 A  
HETATM   20 CL   UNL     1      -6.630   3.552  63.832  1.00  0.00    -0.037 Cl 
HETATM   21  C   UNL     1      -7.685   4.157  66.201  1.00  0.00    -0.090 A  
BRANCH  17  22
HETATM   22  S   UNL     1      -7.170   6.712  63.092  1.00  0.00    -0.066 S  
HETATM   23  O   UNL     1      -8.387   6.974  62.358  1.00  0.00    -0.101 OA 
HETATM   24  N   UNL     1      -6.576   8.231  63.482  1.00  0.00    -0.079 N  
HETATM   25  H1  UNL     1      -6.337   8.635  62.576  1.00  0.00     0.000 HD 
HETATM   26  O   UNL     1      -6.083   5.958  62.516  1.00  0.00    -0.024 OA 
HETATM   27  H2  UNL     1      -6.475   8.651  64.405  1.00  0.00     0.000 HD 
ENDBRANCH  17  22
ENDBRANCH  12  15
ENDBRANCH  10  11
TORSDOF 3
ENDMDL
MODEL      198
REMARK 921   NORMALIZED FREE ENERGY PREDICTED BY IDOCK:   -2.14 KCAL/MOL
REMARK 922        TOTAL FREE ENERGY PREDICTED BY IDOCK:   -3.18 KCAL/MOL
REMARK 923 INTER-LIGAND FREE ENERGY PREDICTED BY IDOCK:   -2.62 KCAL/MOL
REMARK 924 INTRA-LIGAND FREE ENERGY PREDICTED BY IDOCK:   -0.56 KCAL/MOL
REMARK 927      BINDING AFFINITY PREDICTED BY RF-SCORE:    0.00 PKD
ROOT
HETATM    1  C   UNL     1      -9.555  11.830  67.468  1.00  0.00    -0.179 C  
HETATM    2  C   UNL     1      -8.063  12.139  67.346  1.00  0.00    -0.171 A  
HETATM    3  C   UNL     1      -7.782  13.657  67.523  1.00  0.00    -0.183 A  
HETATM    4  C   UNL     1      -6.947  13.698  68.766  1.00  0.00    -0.106 A  
HETATM    5  C   UNL     1      -6.411  14.812  69.393  1.00  0.00    -0.131 A  
HETATM    6  C   UNL     1      -5.640  14.612  70.538  1.00  0.00    -0.145 A  
HETATM    7  C   UNL     1      -5.438  13.318  71.042  1.00  0.00    -0.196 A  
HETATM    8  C   UNL     1      -5.981  12.204  70.389  1.00  0.00    -0.103 A  
HETATM    9  C   UNL     1      -6.718  12.400  69.232  1.00  0.00    -0.067 A  
HETATM   10  N   UNL     1      -7.241  11.444  68.354  1.00  0.00    -0.081 NA 
ENDROOT
BRANCH  10  11
HETATM   11  N   UNL     1      -7.521  10.168  68.804  1.00  0.00    -0.082 N  
HETATM   12  C   UNL     1      -7.157   9.099  67.993  1.00  0.00    -0.078 C  
HETATM   13  H   UNL     1      -7.981  10.015  69.702  1.00  0.00     0.000 HD 
HETATM   14  O   UNL     1      -6.498   9.178  66.961  1.00  0.00    -0.062 OA 
BRANCH  12  15
HETATM   15  C   UNL     1      -7.719   7.779  68.393  1.00  0.00    -0.119 A  
HETATM   16  C   UNL     1      -7.086   6.615  67.936  1.00  0.00    -0.085 A  
HETATM   17  C   UNL     1      -7.664   5.357  68.177  1.00  0.00    -0.085 A  
HETATM   18  C   UNL     1      -8.858   5.261  68.896  1.00  0.00    -0.092 A  
HETATM   19  C   UNL     1      -8.879   7.678  69.165  1.00  0.00    -0.139 A  
HETATM   20 CL   UNL     1      -9.699   3.782  69.187  1.00  0.00    -0.190 Cl 
HETATM   21  C   UNL     1      -9.447   6.423  69.409  1.00  0.00    -0.146 A  
BRANCH  17  22
HETATM   22  S   UNL     1      -6.879   3.931  67.498  1.00  0.00    -0.055 S  
HETATM   23  O   UNL     1      -7.749   3.342  66.505  1.00  0.00    -0.079 OA 
HETATM   24  N   UNL     1      -5.600   4.564  66.618  1.00  0.00    -0.013 N  
HETATM   25  H1  UNL     1      -5.146   3.739  66.226  1.00  0.00     0.000 HD 
HETATM   26  O   UNL     1      -6.317   3.150  68.575  1.00  0.00    -0.028 OA 
HETATM   27  H2  UNL     1      -5.338   5.543  66.502  1.00  0.00     0.000 HD 
ENDBRANCH  17  22
ENDBRANCH  12  15
ENDBRANCH  10  11
TORSDOF 3
ENDMDL
MODEL      199
REMARK 921   NORMALIZED FREE ENERGY PREDICTED BY IDOCK:   -2.12 KCAL/MOL
REMARK 922        TOTAL FREE ENERGY PREDICTED BY IDOCK:   -3.15 KCAL/MOL
REMARK 923 INTER-LIGAND FREE ENERGY PREDICTED BY IDOCK:   -3.86 KCAL/MOL
REMARK 924 INTRA-LIGAND FREE ENERGY PREDICTED BY IDOCK:    0.71 KCAL/MOL
REMARK 927      BINDING AFFINITY PREDICTED BY RF-SCORE:    0.00 PKD
ROOT
HETATM    1  C   UNL     1     -11.728   6.714  70.041  1.00  0.00    -0.378 C  
HETATM    2  C   UNL     1     -10.587   7.348  70.834  1.00  0.00    -0.223 A  
HETATM    3  C   UNL     1     -10.828   7.233  72.365  1.00  0.00    -0.293 A  
HETATM    4  C   UNL     1      -9.692   6.367  72.817  1.00  0.00    -0.163 A  
HETATM    5  C   UNL     1      -9.412   5.935  74.104  1.00  0.00    -0.150 A  
HETATM    6  C   UNL     1      -8.279   5.146  74.299  1.00  0.00    -0.106 A  
HETATM    7  C   UNL     1      -7.465   4.789  73.212  1.00  0.00    -0.087 A  
HETATM    8  C   UNL     1      -7.760   5.243  71.919  1.00  0.00    -0.110 A  
HETATM    9  C   UNL     1      -8.867   6.055  71.732  1.00  0.00    -0.138 A  
HETATM   10  N   UNL     1      -9.278   6.722  70.572  1.00  0.00    -0.156 NA 
ENDROOT
BRANCH  10  11
HETATM   11  N   UNL     1      -8.908   6.244  69.329  1.00  0.00    -0.123 N  
HETATM   12  C   UNL     1      -9.324   4.966  68.974  1.00  0.00    -0.129 C  
HETATM   13  H   UNL     1      -8.348   6.811  68.692  1.00  0.00     0.000 HD 
HETATM   14  O   UNL     1     -10.095   4.262  69.619  1.00  0.00    -0.168 OA 
BRANCH  12  15
HETATM   15  C   UNL     1      -8.679   4.405  67.756  1.00  0.00    -0.115 A  
HETATM   16  C   UNL     1      -9.463   4.216  66.608  1.00  0.00    -0.206 A  
HETATM   17  C   UNL     1      -8.924   3.563  65.487  1.00  0.00    -0.141 A  
HETATM   18  C   UNL     1      -7.598   3.123  65.501  1.00  0.00    -0.077 A  
HETATM   19  C   UNL     1      -7.335   4.021  67.746  1.00  0.00    -0.067 A  
HETATM   20 CL   UNL     1      -6.853   2.244  64.215  1.00  0.00    -0.038 Cl 
HETATM   21  C   UNL     1      -6.801   3.378  66.624  1.00  0.00    -0.053 A  
BRANCH  17  22
HETATM   22  S   UNL     1      -9.979   3.264  64.105  1.00  0.00    -0.173 S  
HETATM   23  O   UNL     1      -9.214   3.413  62.888  1.00  0.00    -0.092 OA 
HETATM   24  N   UNL     1     -10.303   1.622  64.203  1.00  0.00    -0.340 N  
HETATM   25  H1  UNL     1     -10.914   1.449  63.404  1.00  0.00     0.000 HD 
HETATM   26  O   UNL     1     -11.226   3.963  64.309  1.00  0.00    -0.335 OA 
HETATM   27  H2  UNL     1      -9.970   0.954  64.898  1.00  0.00     0.000 HD 
ENDBRANCH  17  22
ENDBRANCH  12  15
ENDBRANCH  10  11
TORSDOF 3
ENDMDL
MODEL      200
REMARK 921   NORMALIZED FREE ENERGY PREDICTED BY IDOCK:   -1.90 KCAL/MOL
REMARK 922        TOTAL FREE ENERGY PREDICTED BY IDOCK:   -2.90 KCAL/MOL
REMARK 923 INTER-LIGAND FREE ENERGY PREDICTED BY IDOCK:   -3.31 KCAL/MOL
REMARK 924 INTRA-LIGAND FREE ENERGY PREDICTED BY IDOCK:    0.42 KCAL/MOL
REMARK 927      BINDING AFFINITY PREDICTED BY RF-SCORE:    0.00 PKD
ROOT
HETATM    1  C   UNL     1      -8.043  11.567  66.854  1.00  0.00    -0.164 C  
HETATM    2  C   UNL     1      -6.632  12.039  67.200  1.00  0.00    -0.143 A  
HETATM    3  C   UNL     1      -6.611  13.553  67.553  1.00  0.00    -0.130 A  
HETATM    4  C   UNL     1      -6.180  13.555  68.987  1.00  0.00    -0.095 A  
HETATM    5  C   UNL     1      -5.994  14.649  69.818  1.00  0.00    -0.122 A  
HETATM    6  C   UNL     1      -5.565  14.415  71.124  1.00  0.00    -0.183 A  
HETATM    7  C   UNL     1      -5.351  13.104  71.579  1.00  0.00    -0.143 A  
HETATM    8  C   UNL     1      -5.536  12.012  70.721  1.00  0.00    -0.146 A  
HETATM    9  C   UNL     1      -5.929  12.247  69.414  1.00  0.00    -0.100 A  
HETATM   10  N   UNL     1      -6.051  11.336  68.358  1.00  0.00    -0.046 NA 
ENDROOT
BRANCH  10  11
HETATM   11  N   UNL     1      -6.281   9.998  68.619  1.00  0.00    -0.045 N  
HETATM   12  C   UNL     1      -7.419   9.664  69.345  1.00  0.00    -0.093 C  
HETATM   13  H   UNL     1      -5.637   9.278  68.289  1.00  0.00     0.000 HD 
HETATM   14  O   UNL     1      -8.306  10.443  69.678  1.00  0.00    -0.152 OA 
BRANCH  12  15
HETATM   15  C   UNL     1      -7.474   8.256  69.825  1.00  0.00    -0.077 A  
HETATM   16  C   UNL     1      -8.692   7.567  69.742  1.00  0.00    -0.140 A  
HETATM   17  C   UNL     1      -8.819   6.288  70.308  1.00  0.00    -0.153 A  
HETATM   18  C   UNL     1      -7.723   5.686  70.934  1.00  0.00    -0.096 A  
HETATM   19  C   UNL     1      -6.363   7.629  70.394  1.00  0.00    -0.038 A  
HETATM   20 CL   UNL     1      -7.780   4.156  71.730  1.00  0.00    -0.072 Cl 
HETATM   21  C   UNL     1      -6.491   6.352  70.951  1.00  0.00    -0.049 A  
BRANCH  17  22
HETATM   22  S   UNL     1     -10.398   5.503  70.262  1.00  0.00    -0.290 S  
HETATM   23  O   UNL     1     -10.993   5.563  71.578  1.00  0.00    -0.230 OA 
HETATM   24  N   UNL     1     -11.328   6.542  69.330  1.00  0.00    -0.563 N  
HETATM   25  H1  UNL     1     -12.242   6.088  69.303  1.00  0.00     0.000 HD 
HETATM   26  O   UNL     1     -10.281   4.261  69.536  1.00  0.00    -0.047 OA 
HETATM   27  H2  UNL     1     -11.047   7.420  68.894  1.00  0.00     0.000 HD 
ENDBRANCH  17  22
ENDBRANCH  12  15
ENDBRANCH  10  11
TORSDOF 3
ENDMDL
MODEL      201
REMARK 921   NORMALIZED FREE ENERGY PREDICTED BY IDOCK:   -1.89 KCAL/MOL
REMARK 922        TOTAL FREE ENERGY PREDICTED BY IDOCK:   -2.88 KCAL/MOL
REMARK 923 INTER-LIGAND FREE ENERGY PREDICTED BY IDOCK:   -2.89 KCAL/MOL
REMARK 924 INTRA-LIGAND FREE ENERGY PREDICTED BY IDOCK:    0.00 KCAL/MOL
REMARK 927      BINDING AFFINITY PREDICTED BY RF-SCORE:    0.00 PKD
ROOT
HETATM    1  C   UNL     1      -5.611   9.496  69.757  1.00  0.00    -0.033 C  
HETATM    2  C   UNL     1      -6.930  10.227  70.003  1.00  0.00    -0.151 A  
HETATM    3  C   UNL     1      -6.764  11.765  69.849  1.00  0.00     0.081 A  
HETATM    4  C   UNL     1      -7.646  12.079  68.680  1.00  0.00    -0.112 A  
HETATM    5  C   UNL     1      -7.878  13.316  68.099  1.00  0.00    -0.145 A  
HETATM    6  C   UNL     1      -8.764  13.379  67.022  1.00  0.00    -0.195 A  
HETATM    7  C   UNL     1      -9.378  12.214  66.538  1.00  0.00    -0.229 A  
HETATM    8  C   UNL     1      -9.137  10.974  67.145  1.00  0.00    -0.151 A  
HETATM    9  C   UNL     1      -8.285  10.918  68.236  1.00  0.00    -0.127 A  
HETATM   10  N   UNL     1      -7.999   9.830  69.069  1.00  0.00    -0.091 NA 
ENDROOT
BRANCH  10  11
HETATM   11  N   UNL     1      -8.145   8.538  68.598  1.00  0.00    -0.120 N  
HETATM   12  C   UNL     1      -9.277   7.830  68.986  1.00  0.00    -0.143 C  
HETATM   13  H   UNL     1      -7.445   8.118  67.987  1.00  0.00     0.000 HD 
HETATM   14  O   UNL     1     -10.224   8.289  69.616  1.00  0.00    -0.199 OA 
BRANCH  12  15
HETATM   15  C   UNL     1      -9.249   6.374  68.678  1.00  0.00    -0.125 A  
HETATM   16  C   UNL     1      -9.226   5.464  69.745  1.00  0.00    -0.169 A  
HETATM   17  C   UNL     1      -9.062   4.091  69.497  1.00  0.00    -0.126 A  
HETATM   18  C   UNL     1      -8.948   3.624  68.184  1.00  0.00    -0.130 A  
HETATM   19  C   UNL     1      -9.199   5.900  67.365  1.00  0.00    -0.108 A  
HETATM   20 CL   UNL     1      -8.668   1.974  67.762  1.00  0.00    -0.112 Cl 
HETATM   21  C   UNL     1      -9.043   4.531  67.122  1.00  0.00    -0.136 A  
BRANCH  17  22
HETATM   22  S   UNL     1      -8.942   2.998  70.876  1.00  0.00    -0.108 S  
HETATM   23  O   UNL     1      -8.940   1.634  70.399  1.00  0.00    -0.062 OA 
HETATM   24  N   UNL     1      -7.384   3.249  71.445  1.00  0.00    -0.036 N  
HETATM   25  H1  UNL     1      -7.315   2.618  72.243  1.00  0.00     0.000 HD 
HETATM   26  O   UNL     1      -9.853   3.443  71.904  1.00  0.00    -0.159 OA 
HETATM   27  H2  UNL     1      -6.674   3.884  71.080  1.00  0.00     0.000 HD 
ENDBRANCH  17  22
ENDBRANCH  12  15
ENDBRANCH  10  11
TORSDOF 3
ENDMDL
MODEL      202
REMARK 921   NORMALIZED FREE ENERGY PREDICTED BY IDOCK:   -1.74 KCAL/MOL
REMARK 922        TOTAL FREE ENERGY PREDICTED BY IDOCK:   -2.70 KCAL/MOL
REMARK 923 INTER-LIGAND FREE ENERGY PREDICTED BY IDOCK:   -2.19 KCAL/MOL
REMARK 924 INTRA-LIGAND FREE ENERGY PREDICTED BY IDOCK:   -0.52 KCAL/MOL
REMARK 927      BINDING AFFINITY PREDICTED BY RF-SCORE:    0.00 PKD
ROOT
HETATM    1  C   UNL     1      -6.364  12.276  68.945  1.00  0.00    -0.084 C  
HETATM    2  C   UNL     1      -6.227  10.973  68.159  1.00  0.00    -0.049 A  
HETATM    3  C   UNL     1      -5.416   9.913  68.954  1.00  0.00    -0.035 A  
HETATM    4  C   UNL     1      -6.420   8.824  69.178  1.00  0.00    -0.043 A  
HETATM    5  C   UNL     1      -6.237   7.623  69.844  1.00  0.00    -0.027 A  
HETATM    6  C   UNL     1      -7.316   6.740  69.914  1.00  0.00    -0.089 A  
HETATM    7  C   UNL     1      -8.550   7.080  69.340  1.00  0.00    -0.134 A  
HETATM    8  C   UNL     1      -8.713   8.297  68.663  1.00  0.00    -0.133 A  
HETATM    9  C   UNL     1      -7.632   9.157  68.565  1.00  0.00    -0.085 A  
HETATM   10  N   UNL     1      -7.524  10.349  67.839  1.00  0.00    -0.087 NA 
ENDROOT
BRANCH  10  11
HETATM   11  N   UNL     1      -8.657  11.081  67.534  1.00  0.00    -0.127 N  
HETATM   12  C   UNL     1      -9.323  10.784  66.351  1.00  0.00    -0.174 C  
HETATM   13  H   UNL     1      -8.993  11.816  68.157  1.00  0.00     0.000 HD 
HETATM   14  O   UNL     1      -9.065   9.845  65.603  1.00  0.00    -0.156 OA 
BRANCH  12  15
HETATM   15  C   UNL     1     -10.362  11.769  65.943  1.00  0.00    -0.280 A  
HETATM   16  C   UNL     1     -10.191  13.112  66.308  1.00  0.00    -0.294 A  
HETATM   17  C   UNL     1     -11.213  14.044  66.062  1.00  0.00    -0.310 A  
HETATM   18  C   UNL     1     -12.392  13.642  65.427  1.00  0.00    -0.476 A  
HETATM   19  C   UNL     1     -11.513  11.381  65.253  1.00  0.00     0.013 A  
HETATM   20 CL   UNL     1     -13.742  14.678  65.142  1.00  0.00     1.269 Cl 
HETATM   21  C   UNL     1     -12.525  12.314  65.003  1.00  0.00    -0.257 A  
BRANCH  17  22
HETATM   22  S   UNL     1     -10.990  15.700  66.627  1.00  0.00    -0.143 S  
HETATM   23  O   UNL     1     -11.898  15.950  67.723  1.00  0.00    -0.046 OA 
HETATM   24  N   UNL     1      -9.470  15.675  67.335  1.00  0.00    -0.214 N  
HETATM   25  H1  UNL     1      -9.341  16.633  67.661  1.00  0.00     0.000 HD 
HETATM   26  O   UNL     1     -10.919  16.578  65.484  1.00  0.00    -0.224 OA 
HETATM   27  H2  UNL     1      -8.826  14.889  67.418  1.00  0.00     0.000 HD 
ENDBRANCH  17  22
ENDBRANCH  12  15
ENDBRANCH  10  11
TORSDOF 3
ENDMDL
MODEL      203
REMARK 921   NORMALIZED FREE ENERGY PREDICTED BY IDOCK:   -1.65 KCAL/MOL
REMARK 922        TOTAL FREE ENERGY PREDICTED BY IDOCK:   -2.61 KCAL/MOL
REMARK 923 INTER-LIGAND FREE ENERGY PREDICTED BY IDOCK:   -3.54 KCAL/MOL
REMARK 924 INTRA-LIGAND FREE ENERGY PREDICTED BY IDOCK:    0.94 KCAL/MOL
REMARK 927      BINDING AFFINITY PREDICTED BY RF-SCORE:    0.00 PKD
ROOT
HETATM    1  C   UNL     1     -10.504   7.916  72.064  1.00  0.00    -0.289 C  
HETATM    2  C   UNL     1      -9.054   7.719  72.503  1.00  0.00    -0.169 A  
HETATM    3  C   UNL     1      -8.872   6.381  73.272  1.00  0.00    -0.129 A  
HETATM    4  C   UNL     1      -7.945   5.610  72.383  1.00  0.00    -0.103 A  
HETATM    5  C   UNL     1      -7.443   4.333  72.582  1.00  0.00    -0.074 A  
HETATM    6  C   UNL     1      -6.570   3.815  71.625  1.00  0.00    -0.019 A  
HETATM    7  C   UNL     1      -6.234   4.567  70.488  1.00  0.00    -0.022 A  
HETATM    8  C   UNL     1      -6.745   5.860  70.310  1.00  0.00    -0.048 A  
HETATM    9  C   UNL     1      -7.585   6.386  71.278  1.00  0.00    -0.094 A  
HETATM   10  N   UNL     1      -8.105   7.682  71.375  1.00  0.00    -0.094 NA 
ENDROOT
BRANCH  10  11
HETATM   11  N   UNL     1      -8.255   8.457  70.241  1.00  0.00    -0.117 N  
HETATM   12  C   UNL     1      -8.820   7.864  69.118  1.00  0.00    -0.142 C  
HETATM   13  H   UNL     1      -7.959   9.434  70.227  1.00  0.00     0.000 HD 
HETATM   14  O   UNL     1      -9.311   6.740  69.076  1.00  0.00    -0.136 OA 
BRANCH  12  15
HETATM   15  C   UNL     1      -8.708   8.652  67.860  1.00  0.00    -0.137 A  
HETATM   16  C   UNL     1      -9.537   9.770  67.694  1.00  0.00    -0.169 A  
HETATM   17  C   UNL     1      -9.558  10.456  66.467  1.00  0.00    -0.179 A  
HETATM   18  C   UNL     1      -8.733  10.041  65.418  1.00  0.00    -0.159 A  
HETATM   19  C   UNL     1      -7.839   8.277  66.832  1.00  0.00    -0.096 A  
HETATM   20 CL   UNL     1      -8.729  10.756  63.847  1.00  0.00    -0.124 Cl 
HETATM   21  C   UNL     1      -7.858   8.967  65.616  1.00  0.00    -0.096 A  
BRANCH  17  22
HETATM   22  S   UNL     1     -10.688  11.797  66.277  1.00  0.00    -0.280 S  
HETATM   23  O   UNL     1      -9.943  13.007  66.011  1.00  0.00    -0.272 OA 
HETATM   24  N   UNL     1     -11.468  11.454  64.832  1.00  0.00    -0.048 N  
HETATM   25  H1  UNL     1     -12.122  12.230  64.722  1.00  0.00     0.000 HD 
HETATM   26  O   UNL     1     -11.676  11.728  67.327  1.00  0.00    -0.546 OA 
HETATM   27  H2  UNL     1     -11.324  10.658  64.211  1.00  0.00     0.000 HD 
ENDBRANCH  17  22
ENDBRANCH  12  15
ENDBRANCH  10  11
TORSDOF 3
ENDMDL
MODEL      204
REMARK 921   NORMALIZED FREE ENERGY PREDICTED BY IDOCK:   -1.43 KCAL/MOL
REMARK 922        TOTAL FREE ENERGY PREDICTED BY IDOCK:   -2.34 KCAL/MOL
REMARK 923 INTER-LIGAND FREE ENERGY PREDICTED BY IDOCK:   -3.36 KCAL/MOL
REMARK 924 INTRA-LIGAND FREE ENERGY PREDICTED BY IDOCK:    1.01 KCAL/MOL
REMARK 927      BINDING AFFINITY PREDICTED BY RF-SCORE:    0.00 PKD
ROOT
HETATM    1  C   UNL     1     -10.285   5.182  69.386  1.00  0.00    -0.293 C  
HETATM    2  C   UNL     1     -10.295   5.254  70.913  1.00  0.00    -0.232 A  
HETATM    3  C   UNL     1      -9.854   3.905  71.546  1.00  0.00    -0.247 A  
HETATM    4  C   UNL     1      -8.590   4.271  72.262  1.00  0.00    -0.114 A  
HETATM    5  C   UNL     1      -7.764   3.444  73.005  1.00  0.00    -0.061 A  
HETATM    6  C   UNL     1      -6.639   4.009  73.608  1.00  0.00    -0.047 A  
HETATM    7  C   UNL     1      -6.353   5.372  73.441  1.00  0.00    -0.061 A  
HETATM    8  C   UNL     1      -7.206   6.195  72.692  1.00  0.00    -0.085 A  
HETATM    9  C   UNL     1      -8.341   5.640  72.123  1.00  0.00    -0.115 A  
HETATM   10  N   UNL     1      -9.388   6.283  71.452  1.00  0.00    -0.152 NA 
ENDROOT
BRANCH  10  11
HETATM   11  N   UNL     1      -9.171   7.497  70.829  1.00  0.00    -0.158 N  
HETATM   12  C   UNL     1      -8.145   7.573  69.894  1.00  0.00    -0.129 C  
HETATM   13  H   UNL     1      -9.746   8.311  71.047  1.00  0.00     0.000 HD 
HETATM   14  O   UNL     1      -7.483   6.625  69.482  1.00  0.00    -0.088 OA 
BRANCH  12  15
HETATM   15  C   UNL     1      -7.783   8.951  69.460  1.00  0.00    -0.088 A  
HETATM   16  C   UNL     1      -8.812   9.826  69.083  1.00  0.00    -0.160 A  
HETATM   17  C   UNL     1      -8.502  11.084  68.539  1.00  0.00    -0.153 A  
HETATM   18  C   UNL     1      -7.169  11.478  68.396  1.00  0.00    -0.089 A  
HETATM   19  C   UNL     1      -6.453   9.370  69.376  1.00  0.00    -0.044 A  
HETATM   20 CL   UNL     1      -6.667  12.962  67.673  1.00  0.00    -0.140 Cl 
HETATM   21  C   UNL     1      -6.150  10.626  68.841  1.00  0.00    -0.040 A  
BRANCH  17  22
HETATM   22  S   UNL     1      -9.829  12.109  67.990  1.00  0.00    -0.206 S  
HETATM   23  O   UNL     1      -9.291  13.365  67.521  1.00  0.00    -0.202 OA 
HETATM   24  N   UNL     1     -10.376  11.340  66.604  1.00  0.00    -0.229 N  
HETATM   25  H1  UNL     1     -11.144  11.932  66.287  1.00  0.00     0.000 HD 
HETATM   26  O   UNL     1     -10.894  12.054  68.963  1.00  0.00    -0.221 OA 
HETATM   27  H2  UNL     1     -10.025  10.482  66.179  1.00  0.00     0.000 HD 
ENDBRANCH  17  22
ENDBRANCH  12  15
ENDBRANCH  10  11
TORSDOF 3
ENDMDL
MODEL      205
REMARK 921   NORMALIZED FREE ENERGY PREDICTED BY IDOCK:   -1.28 KCAL/MOL
REMARK 922        TOTAL FREE ENERGY PREDICTED BY IDOCK:   -2.16 KCAL/MOL
REMARK 923 INTER-LIGAND FREE ENERGY PREDICTED BY IDOCK:   -2.55 KCAL/MOL
REMARK 924 INTRA-LIGAND FREE ENERGY PREDICTED BY IDOCK:    0.39 KCAL/MOL
REMARK 927      BINDING AFFINITY PREDICTED BY RF-SCORE:    0.00 PKD
ROOT
HETATM    1  C   UNL     1      -7.983  11.442  66.839  1.00  0.00    -0.158 C  
HETATM    2  C   UNL     1      -6.566  11.892  67.191  1.00  0.00    -0.148 A  
HETATM    3  C   UNL     1      -6.522  13.405  67.544  1.00  0.00    -0.129 A  
HETATM    4  C   UNL     1      -6.096  13.399  68.980  1.00  0.00    -0.087 A  
HETATM    5  C   UNL     1      -5.896  14.490  69.812  1.00  0.00    -0.111 A  
HETATM    6  C   UNL     1      -5.475  14.249  71.120  1.00  0.00    -0.181 A  
HETATM    7  C   UNL     1      -5.284  12.935  71.574  1.00  0.00    -0.131 A  
HETATM    8  C   UNL     1      -5.484  11.845  70.715  1.00  0.00    -0.142 A  
HETATM    9  C   UNL     1      -5.868  12.087  69.407  1.00  0.00    -0.085 A  
HETATM   10  N   UNL     1      -6.001  11.179  68.350  1.00  0.00    -0.046 NA 
ENDROOT
BRANCH  10  11
HETATM   11  N   UNL     1      -6.254   9.845  68.610  1.00  0.00    -0.042 N  
HETATM   12  C   UNL     1      -7.414   9.527  69.306  1.00  0.00    -0.078 C  
HETATM   13  H   UNL     1      -5.610   9.116  68.300  1.00  0.00     0.000 HD 
HETATM   14  O   UNL     1      -8.301  10.318  69.613  1.00  0.00    -0.169 OA 
BRANCH  12  15
HETATM   15  C   UNL     1      -7.499   8.121  69.789  1.00  0.00    -0.084 A  
HETATM   16  C   UNL     1      -7.680   7.894  71.161  1.00  0.00    -0.085 A  
HETATM   17  C   UNL     1      -7.627   6.586  71.672  1.00  0.00    -0.094 A  
HETATM   18  C   UNL     1      -7.421   5.505  70.810  1.00  0.00    -0.088 A  
HETATM   19  C   UNL     1      -7.356   7.035  68.922  1.00  0.00    -0.093 A  
HETATM   20 CL   UNL     1      -7.262   3.867  71.330  1.00  0.00    -0.035 Cl 
HETATM   21  C   UNL     1      -7.312   5.734  69.433  1.00  0.00    -0.071 A  
BRANCH  17  22
HETATM   22  S   UNL     1      -7.764   6.362  73.416  1.00  0.00    -0.092 S  
HETATM   23  O   UNL     1      -6.464   6.027  73.951  1.00  0.00    -0.068 OA 
HETATM   24  N   UNL     1      -8.073   7.907  73.990  1.00  0.00    -0.203 N  
HETATM   25  H1  UNL     1      -8.152   7.777  74.999  1.00  0.00     0.000 HD 
HETATM   26  O   UNL     1      -8.930   5.558  73.693  1.00  0.00    -0.125 OA 
HETATM   27  H2  UNL     1      -8.161   8.772  73.457  1.00  0.00     0.000 HD 
ENDBRANCH  17  22
ENDBRANCH  12  15
ENDBRANCH  10  11
TORSDOF 3
ENDMDL
MODEL      206
REMARK 921   NORMALIZED FREE ENERGY PREDICTED BY IDOCK:   -1.16 KCAL/MOL
REMARK 922        TOTAL FREE ENERGY PREDICTED BY IDOCK:   -2.02 KCAL/MOL
REMARK 923 INTER-LIGAND FREE ENERGY PREDICTED BY IDOCK:   -1.56 KCAL/MOL
REMARK 924 INTRA-LIGAND FREE ENERGY PREDICTED BY IDOCK:   -0.46 KCAL/MOL
REMARK 927      BINDING AFFINITY PREDICTED BY RF-SCORE:    0.00 PKD
ROOT
HETATM    1  C   UNL     1     -10.188  12.277  67.530  1.00  0.00    -0.212 C  
HETATM    2  C   UNL     1      -8.762  12.811  67.408  1.00  0.00    -0.196 A  
HETATM    3  C   UNL     1      -8.508  13.981  68.398  1.00  0.00    -0.166 A  
HETATM    4  C   UNL     1      -7.449  13.429  69.302  1.00  0.00     0.253 A  
HETATM    5  C   UNL     1      -6.841  14.052  70.380  1.00  0.00     0.327 A  
HETATM    6  C   UNL     1      -5.854  13.351  71.073  1.00  0.00    -0.093 A  
HETATM    7  C   UNL     1      -5.511  12.045  70.692  1.00  0.00    -0.159 A  
HETATM    8  C   UNL     1      -6.130  11.434  69.593  1.00  0.00    -0.110 A  
HETATM    9  C   UNL     1      -7.085  12.145  68.884  1.00  0.00    -0.098 A  
HETATM   10  N   UNL     1      -7.734  11.794  67.695  1.00  0.00    -0.128 NA 
ENDROOT
BRANCH  10  11
HETATM   11  N   UNL     1      -7.874  10.463  67.347  1.00  0.00    -0.102 N  
HETATM   12  C   UNL     1      -6.868   9.882  66.585  1.00  0.00    -0.084 C  
HETATM   13  H   UNL     1      -8.690   9.925  67.641  1.00  0.00     0.000 HD 
HETATM   14  O   UNL     1      -5.801  10.411  66.288  1.00  0.00    -0.062 OA 
BRANCH  12  15
HETATM   15  C   UNL     1      -7.195   8.545  66.016  1.00  0.00    -0.077 A  
HETATM   16  C   UNL     1      -6.884   7.403  66.767  1.00  0.00    -0.066 A  
HETATM   17  C   UNL     1      -7.051   6.125  66.208  1.00  0.00    -0.068 A  
HETATM   18  C   UNL     1      -7.552   5.987  64.911  1.00  0.00    -0.092 A  
HETATM   19  C   UNL     1      -7.755   8.405  64.744  1.00  0.00    -0.109 A  
HETATM   20 CL   UNL     1      -7.728   4.477  64.094  1.00  0.00    -0.075 Cl 
HETATM   21  C   UNL     1      -7.926   7.130  64.194  1.00  0.00    -0.085 A  
BRANCH  17  22
HETATM   22  S   UNL     1      -6.555   4.724  67.158  1.00  0.00    -0.051 S  
HETATM   23  O   UNL     1      -5.333   4.186  66.602  1.00  0.00    -0.012 OA 
HETATM   24  N   UNL     1      -6.095   5.386  68.628  1.00  0.00    -0.021 N  
HETATM   25  H1  UNL     1      -5.808   4.575  69.178  1.00  0.00     0.000 HD 
HETATM   26  O   UNL     1      -7.709   3.892  67.401  1.00  0.00    -0.078 OA 
HETATM   27  H2  UNL     1      -6.101   6.366  68.908  1.00  0.00     0.000 HD 
ENDBRANCH  17  22
ENDBRANCH  12  15
ENDBRANCH  10  11
TORSDOF 3
ENDMDL
MODEL      207
REMARK 921   NORMALIZED FREE ENERGY PREDICTED BY IDOCK:   -0.75 KCAL/MOL
REMARK 922        TOTAL FREE ENERGY PREDICTED BY IDOCK:   -1.55 KCAL/MOL
REMARK 923 INTER-LIGAND FREE ENERGY PREDICTED BY IDOCK:   -2.17 KCAL/MOL
REMARK 924 INTRA-LIGAND FREE ENERGY PREDICTED BY IDOCK:    0.62 KCAL/MOL
REMARK 927      BINDING AFFINITY PREDICTED BY RF-SCORE:    0.00 PKD
ROOT
HETATM    1  C   UNL     1      -7.913  19.727  69.817  1.00  0.00     0.470 C  
HETATM    2  C   UNL     1      -8.083  20.213  68.378  1.00  0.00    -0.031 A  
HETATM    3  C   UNL     1      -6.768  20.833  67.830  1.00  0.00    -0.381 A  
HETATM    4  C   UNL     1      -6.407  19.909  66.707  1.00  0.00    -0.199 A  
HETATM    5  C   UNL     1      -5.311  19.986  65.862  1.00  0.00    -0.176 A  
HETATM    6  C   UNL     1      -5.185  19.021  64.862  1.00  0.00    -0.218 A  
HETATM    7  C   UNL     1      -6.135  17.996  64.740  1.00  0.00     0.541 A  
HETATM    8  C   UNL     1      -7.241  17.940  65.599  1.00  0.00    -0.048 A  
HETATM    9  C   UNL     1      -7.384  18.919  66.569  1.00  0.00    -0.235 A  
HETATM   10  N   UNL     1      -8.456  19.137  67.442  1.00  0.00    -0.279 NA 
ENDROOT
BRANCH  10  11
HETATM   11  N   UNL     1      -9.291  18.092  67.791  1.00  0.00    -0.260 N  
HETATM   12  C   UNL     1      -8.706  16.922  68.262  1.00  0.00    -0.235 C  
HETATM   13  H   UNL     1     -10.305  18.176  67.706  1.00  0.00     0.000 HD 
HETATM   14  O   UNL     1      -7.514  16.771  68.510  1.00  0.00    -0.191 OA 
BRANCH  12  15
HETATM   15  C   UNL     1      -9.620  15.752  68.363  1.00  0.00    -0.200 A  
HETATM   16  C   UNL     1     -10.345  15.368  67.226  1.00  0.00    -0.271 A  
HETATM   17  C   UNL     1     -11.317  14.358  67.318  1.00  0.00    -0.342 A  
HETATM   18  C   UNL     1     -11.547  13.714  68.537  1.00  0.00    -0.335 A  
HETATM   19  C   UNL     1      -9.806  15.065  69.566  1.00  0.00    -0.136 A  
HETATM   20 CL   UNL     1     -12.763  12.516  68.788  1.00  0.00     0.882 Cl 
HETATM   21  C   UNL     1     -10.770  14.055  69.651  1.00  0.00     0.066 A  
BRANCH  17  22
HETATM   22  S   UNL     1     -12.269  13.977  65.882  1.00  0.00    -0.462 S  
HETATM   23  O   UNL     1     -11.603  14.518  64.719  1.00  0.00    -0.377 OA 
HETATM   24  N   UNL     1     -12.106  12.315  65.729  1.00  0.00    -0.324 N  
HETATM   25  H1  UNL     1     -12.657  12.096  64.898  1.00  0.00     0.000 HD 
HETATM   26  O   UNL     1     -13.659  14.251  66.158  1.00  0.00     0.572 OA 
HETATM   27  H2  UNL     1     -11.581  11.676  66.325  1.00  0.00     0.000 HD 
ENDBRANCH  17  22
ENDBRANCH  12  15
ENDBRANCH  10  11
TORSDOF 3
ENDMDL
MODEL      208
REMARK 921   NORMALIZED FREE ENERGY PREDICTED BY IDOCK:    0.15 KCAL/MOL
REMARK 922        TOTAL FREE ENERGY PREDICTED BY IDOCK:   -0.48 KCAL/MOL
REMARK 923 INTER-LIGAND FREE ENERGY PREDICTED BY IDOCK:   -2.18 KCAL/MOL
REMARK 924 INTRA-LIGAND FREE ENERGY PREDICTED BY IDOCK:    1.70 KCAL/MOL
REMARK 927      BINDING AFFINITY PREDICTED BY RF-SCORE:    0.00 PKD
ROOT
HETATM    1  C   UNL     1     -10.312   4.674  69.260  1.00  0.00     0.100 C  
HETATM    2  C   UNL     1      -9.714   4.674  70.667  1.00  0.00    -0.207 A  
HETATM    3  C   UNL     1      -9.566   3.230  71.220  1.00  0.00    -0.229 A  
HETATM    4  C   UNL     1      -8.084   3.084  71.377  1.00  0.00    -0.062 A  
HETATM    5  C   UNL     1      -7.382   1.981  71.838  1.00  0.00    -0.039 A  
HETATM    6  C   UNL     1      -5.992   2.076  71.922  1.00  0.00    -0.013 A  
HETATM    7  C   UNL     1      -5.335   3.252  71.529  1.00  0.00    -0.004 A  
HETATM    8  C   UNL     1      -6.063   4.360  71.073  1.00  0.00    -0.018 A  
HETATM    9  C   UNL     1      -7.445   4.276  71.023  1.00  0.00    -0.048 A  
HETATM   10  N   UNL     1      -8.373   5.282  70.728  1.00  0.00    -0.112 NA 
ENDROOT
BRANCH  10  11
HETATM   11  N   UNL     1      -8.001   6.365  69.953  1.00  0.00    -0.114 N  
HETATM   12  C   UNL     1      -7.997   6.205  68.573  1.00  0.00    -0.108 C  
HETATM   13  H   UNL     1      -7.738   7.253  70.381  1.00  0.00     0.000 HD 
HETATM   14  O   UNL     1      -8.409   5.220  67.968  1.00  0.00    -0.099 OA 
BRANCH  12  15
HETATM   15  C   UNL     1      -7.336   7.299  67.809  1.00  0.00    -0.093 A  
HETATM   16  C   UNL     1      -7.934   8.567  67.803  1.00  0.00    -0.107 A  
HETATM   17  C   UNL     1      -7.417   9.585  66.985  1.00  0.00    -0.091 A  
HETATM   18  C   UNL     1      -6.289   9.346  66.195  1.00  0.00    -0.068 A  
HETATM   19  C   UNL     1      -6.173   7.079  67.068  1.00  0.00    -0.041 A  
HETATM   20 CL   UNL     1      -5.611  10.492  65.097  1.00  0.00    -0.135 Cl 
HETATM   21  C   UNL     1      -5.657   8.098  66.260  1.00  0.00    -0.032 A  
BRANCH  17  22
HETATM   22  S   UNL     1      -8.261  11.134  66.940  1.00  0.00    -0.154 S  
HETATM   23  O   UNL     1      -9.135  11.160  65.789  1.00  0.00    -0.200 OA 
HETATM   24  N   UNL     1      -9.297  11.057  68.256  1.00  0.00    -0.166 N  
HETATM   25  H1  UNL     1      -9.785  11.953  68.230  1.00  0.00     0.000 HD 
HETATM   26  O   UNL     1      -7.312  12.191  67.198  1.00  0.00    -0.148 OA 
HETATM   27  H2  UNL     1      -9.411  10.296  68.925  1.00  0.00     0.000 HD 
ENDBRANCH  17  22
ENDBRANCH  12  15
ENDBRANCH  10  11
TORSDOF 3
ENDMDL
MODEL      209
REMARK 921   NORMALIZED FREE ENERGY PREDICTED BY IDOCK:    1.22 KCAL/MOL
REMARK 922        TOTAL FREE ENERGY PREDICTED BY IDOCK:    0.77 KCAL/MOL
REMARK 923 INTER-LIGAND FREE ENERGY PREDICTED BY IDOCK:   -1.69 KCAL/MOL
REMARK 924 INTRA-LIGAND FREE ENERGY PREDICTED BY IDOCK:    2.46 KCAL/MOL
REMARK 927      BINDING AFFINITY PREDICTED BY RF-SCORE:    0.00 PKD
ROOT
HETATM    1  C   UNL     1      -6.276   9.500  64.368  1.00  0.00    -0.084 C  
HETATM    2  C   UNL     1      -6.560  10.189  65.702  1.00  0.00    -0.112 A  
HETATM    3  C   UNL     1      -7.390  11.488  65.504  1.00  0.00     0.885 A  
HETATM    4  C   UNL     1      -8.668  11.178  66.221  1.00  0.00    -0.183 A  
HETATM    5  C   UNL     1      -9.781  11.992  66.364  1.00  0.00    -0.239 A  
HETATM    6  C   UNL     1     -10.862  11.502  67.098  1.00  0.00    -0.314 A  
HETATM    7  C   UNL     1     -10.819  10.214  67.652  1.00  0.00    -0.346 A  
HETATM    8  C   UNL     1      -9.681   9.409  67.504  1.00  0.00    -0.198 A  
HETATM    9  C   UNL     1      -8.595   9.910  66.805  1.00  0.00    -0.128 A  
HETATM   10  N   UNL     1      -7.324   9.347  66.641  1.00  0.00    -0.089 NA 
ENDROOT
BRANCH  10  11
HETATM   11  N   UNL     1      -7.154   7.978  66.733  1.00  0.00    -0.079 N  
HETATM   12  C   UNL     1      -7.782   7.315  67.780  1.00  0.00    -0.112 C  
HETATM   13  H   UNL     1      -6.585   7.471  66.055  1.00  0.00     0.000 HD 
HETATM   14  O   UNL     1      -8.576   7.818  68.569  1.00  0.00    -0.128 OA 
BRANCH  12  15
HETATM   15  C   UNL     1      -7.349   5.906  67.989  1.00  0.00    -0.080 A  
HETATM   16  C   UNL     1      -7.180   5.083  66.866  1.00  0.00    -0.077 A  
HETATM   17  C   UNL     1      -6.907   3.715  67.029  1.00  0.00    -0.050 A  
HETATM   18  C   UNL     1      -6.777   3.174  68.312  1.00  0.00    -0.045 A  
HETATM   19  C   UNL     1      -7.157   5.377  69.268  1.00  0.00    -0.060 A  
HETATM   20 CL   UNL     1      -6.519   1.498  68.636  1.00  0.00    -0.025 Cl 
HETATM   21  C   UNL     1      -6.878   4.015  69.426  1.00  0.00    -0.045 A  
BRANCH  17  22
HETATM   22  S   UNL     1      -6.798   2.704  65.588  1.00  0.00    -0.048 S  
HETATM   23  O   UNL     1      -8.070   2.053  65.372  1.00  0.00    -0.077 OA 
HETATM   24  N   UNL     1      -6.673   3.814  64.336  1.00  0.00    -0.043 N  
HETATM   25  H1  UNL     1      -6.610   3.229  63.502  1.00  0.00     0.000 HD 
HETATM   26  O   UNL     1      -5.561   1.962  65.630  1.00  0.00    -0.012 OA 
HETATM   27  H2  UNL     1      -6.663   4.832  64.395  1.00  0.00     0.000 HD 
ENDBRANCH  17  22
ENDBRANCH  12  15
ENDBRANCH  10  11
TORSDOF 3
ENDMDL
MODEL      210
REMARK 921   NORMALIZED FREE ENERGY PREDICTED BY IDOCK:    1.24 KCAL/MOL
REMARK 922        TOTAL FREE ENERGY PREDICTED BY IDOCK:    0.80 KCAL/MOL
REMARK 923 INTER-LIGAND FREE ENERGY PREDICTED BY IDOCK:   -1.93 KCAL/MOL
REMARK 924 INTRA-LIGAND FREE ENERGY PREDICTED BY IDOCK:    2.73 KCAL/MOL
REMARK 927      BINDING AFFINITY PREDICTED BY RF-SCORE:    0.00 PKD
ROOT
HETATM    1  C   UNL     1      -6.291   9.481  64.379  1.00  0.00    -0.093 C  
HETATM    2  C   UNL     1      -6.644  10.111  65.726  1.00  0.00    -0.109 A  
HETATM    3  C   UNL     1      -7.483  11.406  65.543  1.00  0.00     0.628 A  
HETATM    4  C   UNL     1      -8.788  11.051  66.188  1.00  0.00    -0.197 A  
HETATM    5  C   UNL     1      -9.918  11.844  66.313  1.00  0.00    -0.245 A  
HETATM    6  C   UNL     1     -11.023  11.311  66.977  1.00  0.00    -0.352 A  
HETATM    7  C   UNL     1     -10.987  10.002  67.480  1.00  0.00    -0.276 A  
HETATM    8  C   UNL     1      -9.832   9.218  67.351  1.00  0.00    -0.229 A  
HETATM    9  C   UNL     1      -8.723   9.761  66.722  1.00  0.00    -0.131 A  
HETATM   10  N   UNL     1      -7.438   9.221  66.593  1.00  0.00    -0.093 NA 
ENDROOT
BRANCH  10  11
HETATM   11  N   UNL     1      -7.252   7.852  66.638  1.00  0.00    -0.082 N  
HETATM   12  C   UNL     1      -7.957   7.132  67.595  1.00  0.00    -0.114 C  
HETATM   13  H   UNL     1      -6.618   7.385  65.989  1.00  0.00     0.000 HD 
HETATM   14  O   UNL     1      -8.825   7.586  68.334  1.00  0.00    -0.127 OA 
BRANCH  12  15
HETATM   15  C   UNL     1      -7.519   5.720  67.776  1.00  0.00    -0.078 A  
HETATM   16  C   UNL     1      -7.456   5.200  69.076  1.00  0.00    -0.069 A  
HETATM   17  C   UNL     1      -6.919   3.920  69.298  1.00  0.00    -0.046 A  
HETATM   18  C   UNL     1      -6.470   3.152  68.220  1.00  0.00    -0.036 A  
HETATM   19  C   UNL     1      -7.128   4.927  66.694  1.00  0.00    -0.068 A  
HETATM   20 CL   UNL     1      -5.723   1.604  68.377  1.00  0.00    -0.018 Cl 
HETATM   21  C   UNL     1      -6.601   3.651  66.919  1.00  0.00    -0.042 A  
BRANCH  17  22
HETATM   22  S   UNL     1      -6.773   3.350  70.961  1.00  0.00    -0.032 S  
HETATM   23  O   UNL     1      -5.425   3.589  71.424  1.00  0.00    -0.007 OA 
HETATM   24  N   UNL     1      -7.718   4.427  71.833  1.00  0.00    -0.081 N  
HETATM   25  H1  UNL     1      -7.633   4.096  72.794  1.00  0.00     0.000 HD 
HETATM   26  O   UNL     1      -7.393   2.050  71.064  1.00  0.00    -0.033 OA 
HETATM   27  H2  UNL     1      -8.251   5.223  71.484  1.00  0.00     0.000 HD 
ENDBRANCH  17  22
ENDBRANCH  12  15
ENDBRANCH  10  11
TORSDOF 3
ENDMDL
MODEL      211
REMARK 921   NORMALIZED FREE ENERGY PREDICTED BY IDOCK:    1.84 KCAL/MOL
REMARK 922        TOTAL FREE ENERGY PREDICTED BY IDOCK:    1.51 KCAL/MOL
REMARK 923 INTER-LIGAND FREE ENERGY PREDICTED BY IDOCK:    1.42 KCAL/MOL
REMARK 924 INTRA-LIGAND FREE ENERGY PREDICTED BY IDOCK:    0.08 KCAL/MOL
REMARK 927      BINDING AFFINITY PREDICTED BY RF-SCORE:    0.00 PKD
ROOT
HETATM    1  C   UNL     1      -5.350   9.894  70.289  1.00  0.00    -0.043 C  
HETATM    2  C   UNL     1      -6.579  10.684  70.737  1.00  0.00     0.297 A  
HETATM    3  C   UNL     1      -6.224  12.171  71.019  1.00  0.00     0.974 A  
HETATM    4  C   UNL     1      -7.028  12.905  69.990  1.00  0.00     0.683 A  
HETATM    5  C   UNL     1      -7.093  14.274  69.780  1.00  0.00     0.045 A  
HETATM    6  C   UNL     1      -7.932  14.743  68.769  1.00  0.00    -0.152 A  
HETATM    7  C   UNL     1      -8.667  13.844  67.981  1.00  0.00    -0.183 A  
HETATM    8  C   UNL     1      -8.595  12.465  68.215  1.00  0.00    -0.172 A  
HETATM    9  C   UNL     1      -7.788  12.002  69.242  1.00  0.00     0.387 A  
HETATM   10  N   UNL     1      -7.659  10.698  69.734  1.00  0.00    -0.104 NA 
ENDROOT
BRANCH  10  11
HETATM   11  N   UNL     1      -7.945   9.617  68.922  1.00  0.00    -0.087 N  
HETATM   12  C   UNL     1      -9.244   9.121  68.933  1.00  0.00    -0.139 C  
HETATM   13  H   UNL     1      -7.226   9.196  68.332  1.00  0.00     0.000 HD 
HETATM   14  O   UNL     1     -10.197   9.632  69.513  1.00  0.00    -0.193 OA 
BRANCH  12  15
HETATM   15  C   UNL     1      -9.427   7.807  68.257  1.00  0.00    -0.150 A  
HETATM   16  C   UNL     1      -8.903   7.638  66.968  1.00  0.00    -0.135 A  
HETATM   17  C   UNL     1      -9.174   6.463  66.246  1.00  0.00    -0.139 A  
HETATM   18  C   UNL     1      -9.943   5.448  66.822  1.00  0.00    -0.192 A  
HETATM   19  C   UNL     1     -10.143   6.767  68.855  1.00  0.00    -0.170 A  
HETATM   20 CL   UNL     1     -10.404   3.998  66.006  1.00  0.00    -0.005 Cl 
HETATM   21  C   UNL     1     -10.404   5.596  68.136  1.00  0.00    -0.254 A  
BRANCH  17  22
HETATM   22  S   UNL     1      -8.573   6.339  64.593  1.00  0.00     0.254 S  
HETATM   23  O   UNL     1      -9.060   7.464  63.828  1.00  0.00     1.094 OA 
HETATM   24  N   UNL     1      -6.926   6.614  64.749  1.00  0.00    -0.053 N  
HETATM   25  H1  UNL     1      -6.579   6.542  63.792  1.00  0.00     0.000 HD 
HETATM   26  O   UNL     1      -8.741   4.980  64.136  1.00  0.00    -0.143 OA 
HETATM   27  H2  UNL     1      -6.397   6.808  65.599  1.00  0.00     0.000 HD 
ENDBRANCH  17  22
ENDBRANCH  12  15
ENDBRANCH  10  11
TORSDOF 3
ENDMDL
MODEL      212
REMARK 921   NORMALIZED FREE ENERGY PREDICTED BY IDOCK:    9.51 KCAL/MOL
REMARK 922        TOTAL FREE ENERGY PREDICTED BY IDOCK:   10.51 KCAL/MOL
REMARK 923 INTER-LIGAND FREE ENERGY PREDICTED BY IDOCK:   10.64 KCAL/MOL
REMARK 924 INTRA-LIGAND FREE ENERGY PREDICTED BY IDOCK:   -0.13 KCAL/MOL
REMARK 927      BINDING AFFINITY PREDICTED BY RF-SCORE:    0.00 PKD
ROOT
HETATM    1  C   UNL     1     -12.142  10.880  72.857  1.00  0.00     4.812 C  
HETATM    2  C   UNL     1     -11.021   9.981  72.337  1.00  0.00     2.874 A  
HETATM    3  C   UNL     1     -11.314   8.483  72.629  1.00  0.00    -0.248 A  
HETATM    4  C   UNL     1     -11.437   7.894  71.258  1.00  0.00    -0.293 A  
HETATM    5  C   UNL     1     -11.700   6.576  70.919  1.00  0.00    -0.416 A  
HETATM    6  C   UNL     1     -11.750   6.244  69.565  1.00  0.00    -0.013 A  
HETATM    7  C   UNL     1     -11.558   7.229  68.584  1.00  0.00     0.724 A  
HETATM    8  C   UNL     1     -11.285   8.555  68.947  1.00  0.00     0.397 A  
HETATM    9  C   UNL     1     -11.201   8.876  70.292  1.00  0.00    -0.197 A  
HETATM   10  N   UNL     1     -10.820  10.087  70.880  1.00  0.00    -0.289 NA 
ENDROOT
BRANCH  10  11
HETATM   11  N   UNL     1     -10.965  11.274  70.185  1.00  0.00    -0.433 N  
HETATM   12  C   UNL     1      -9.893  11.712  69.417  1.00  0.00     0.486 C  
HETATM   13  H   UNL     1     -11.831  11.810  70.235  1.00  0.00     0.000 HD 
HETATM   14  O   UNL     1      -8.863  11.079  69.202  1.00  0.00    -0.110 OA 
BRANCH  12  15
HETATM   15  C   UNL     1     -10.000  13.109  68.916  1.00  0.00     0.066 A  
HETATM   16  C   UNL     1      -9.858  13.341  67.541  1.00  0.00    -0.220 A  
HETATM   17  C   UNL     1      -9.817  14.656  67.048  1.00  0.00    -0.244 A  
HETATM   18  C   UNL     1      -9.944  15.738  67.925  1.00  0.00    -0.227 A  
HETATM   19  C   UNL     1     -10.190  14.189  69.783  1.00  0.00     0.467 A  
HETATM   20 CL   UNL     1      -9.832  17.392  67.447  1.00  0.00    -0.273 Cl 
HETATM   21  C   UNL     1     -10.156  15.496  69.287  1.00  0.00    -0.256 A  
BRANCH  17  22
HETATM   22  S   UNL     1      -9.540  14.897  65.323  1.00  0.00     0.283 S  
HETATM   23  O   UNL     1      -8.147  14.648  65.030  1.00  0.00     4.792 OA 
HETATM   24  N   UNL     1     -10.357  13.617  64.610  1.00  0.00    -0.540 N  
HETATM   25  H1  UNL     1     -10.197  13.756  63.611  1.00  0.00     0.000 HD 
HETATM   26  O   UNL     1     -10.199  16.113  64.909  1.00  0.00    -0.502 OA 
HETATM   27  H2  UNL     1     -10.888  12.876  65.066  1.00  0.00     0.000 HD 
ENDBRANCH  17  22
ENDBRANCH  12  15
ENDBRANCH  10  11
TORSDOF 3
ENDMDL
MODEL      213
REMARK 921   NORMALIZED FREE ENERGY PREDICTED BY IDOCK:   16.63 KCAL/MOL
REMARK 922        TOTAL FREE ENERGY PREDICTED BY IDOCK:   18.89 KCAL/MOL
REMARK 923 INTER-LIGAND FREE ENERGY PREDICTED BY IDOCK:   18.03 KCAL/MOL
REMARK 924 INTRA-LIGAND FREE ENERGY PREDICTED BY IDOCK:    0.86 KCAL/MOL
REMARK 927      BINDING AFFINITY PREDICTED BY RF-SCORE:    0.00 PKD
ROOT
HETATM    1  C   UNL     1      -7.325  20.380  72.136  1.00  0.00     1.744 C  
HETATM    2  C   UNL     1      -6.058  19.731  71.581  1.00  0.00    -0.066 A  
HETATM    3  C   UNL     1      -5.546  18.598  72.513  1.00  0.00     1.648 A  
HETATM    4  C   UNL     1      -5.675  17.377  71.656  1.00  0.00     0.987 A  
HETATM    5  C   UNL     1      -5.359  16.068  71.986  1.00  0.00     0.432 A  
HETATM    6  C   UNL     1      -5.541  15.084  71.015  1.00  0.00    -0.057 A  
HETATM    7  C   UNL     1      -6.050  15.419  69.750  1.00  0.00    -0.147 A  
HETATM    8  C   UNL     1      -6.356  16.749  69.432  1.00  0.00    -0.222 A  
HETATM    9  C   UNL     1      -6.142  17.730  70.386  1.00  0.00     0.216 A  
HETATM   10  N   UNL     1      -6.252  19.119  70.253  1.00  0.00    -0.144 NA 
ENDROOT
BRANCH  10  11
HETATM   11  N   UNL     1      -7.082  19.661  69.289  1.00  0.00    -0.360 N  
HETATM   12  C   UNL     1      -8.436  19.353  69.350  1.00  0.00     0.135 C  
HETATM   13  H   UNL     1      -6.712  20.268  68.557  1.00  0.00     0.000 HD 
HETATM   14  O   UNL     1      -8.987  18.734  70.255  1.00  0.00     1.620 OA 
BRANCH  12  15
HETATM   15  C   UNL     1      -9.227  19.734  68.148  1.00  0.00    -0.406 A  
HETATM   16  C   UNL     1      -9.933  18.734  67.465  1.00  0.00    -0.382 A  
HETATM   17  C   UNL     1     -10.578  19.029  66.252  1.00  0.00    -0.412 A  
HETATM   18  C   UNL     1     -10.540  20.327  65.735  1.00  0.00    -0.116 A  
HETATM   19  C   UNL     1      -9.243  21.045  67.663  1.00  0.00    -0.081 A  
HETATM   20 CL   UNL     1     -11.228  20.790  64.221  1.00  0.00     1.984 Cl 
HETATM   21  C   UNL     1      -9.892  21.336  66.459  1.00  0.00     1.362 A  
BRANCH  17  22
HETATM   22  S   UNL     1     -11.371  17.715  65.383  1.00  0.00     1.506 S  
HETATM   23  O   UNL     1     -12.354  18.272  64.482  1.00  0.00     5.317 OA 
HETATM   24  N   UNL     1     -10.166  17.121  64.379  1.00  0.00     2.487 N  
HETATM   25  H1  UNL     1     -10.625  16.361  63.877  1.00  0.00     0.000 HD 
HETATM   26  O   UNL     1     -11.705  16.670  66.321  1.00  0.00     0.980 OA 
HETATM   27  H2  UNL     1      -9.202  17.443  64.292  1.00  0.00     0.000 HD 
ENDBRANCH  17  22
ENDBRANCH  12  15
ENDBRANCH  10  11
TORSDOF 3
ENDMDL
MODEL      214
REMARK 921   NORMALIZED FREE ENERGY PREDICTED BY IDOCK:   27.09 KCAL/MOL
REMARK 922        TOTAL FREE ENERGY PREDICTED BY IDOCK:   31.19 KCAL/MOL
REMARK 923 INTER-LIGAND FREE ENERGY PREDICTED BY IDOCK:   29.67 KCAL/MOL
REMARK 924 INTRA-LIGAND FREE ENERGY PREDICTED BY IDOCK:    1.51 KCAL/MOL
REMARK 927      BINDING AFFINITY PREDICTED BY RF-SCORE:    0.00 PKD
ROOT
HETATM    1  C   UNL     1      -6.904  11.575  67.872  1.00  0.00    -0.073 C  
HETATM    2  C   UNL     1      -6.096  12.449  68.829  1.00  0.00    -0.069 A  
HETATM    3  C   UNL     1      -6.572  13.928  68.784  1.00  0.00    -0.098 A  
HETATM    4  C   UNL     1      -7.091  14.154  70.171  1.00  0.00     0.315 A  
HETATM    5  C   UNL     1      -7.644  15.312  70.693  1.00  0.00     1.219 A  
HETATM    6  C   UNL     1      -8.044  15.303  72.030  1.00  0.00     6.005 A  
HETATM    7  C   UNL     1      -7.904  14.142  72.806  1.00  0.00     7.501 A  
HETATM    8  C   UNL     1      -7.335  12.983  72.261  1.00  0.00     8.942 A  
HETATM    9  C   UNL     1      -6.906  13.004  70.944  1.00  0.00     2.262 A  
HETATM   10  N   UNL     1      -6.202  12.022  70.236  1.00  0.00    -0.163 NA 
ENDROOT
BRANCH  10  11
HETATM   11  N   UNL     1      -6.289  10.696  70.616  1.00  0.00    -0.073 N  
HETATM   12  C   UNL     1      -7.498  10.247  71.135  1.00  0.00     1.581 C  
HETATM   13  H   UNL     1      -5.492  10.067  70.517  1.00  0.00     0.000 HD 
HETATM   14  O   UNL     1      -8.539  10.894  71.181  1.00  0.00     3.463 OA 
BRANCH  12  15
HETATM   15  C   UNL     1      -7.453   8.902  71.772  1.00  0.00    -0.019 A  
HETATM   16  C   UNL     1      -8.223   7.871  71.214  1.00  0.00    -0.107 A  
HETATM   17  C   UNL     1      -8.314   6.629  71.864  1.00  0.00    -0.114 A  
HETATM   18  C   UNL     1      -7.617   6.408  73.055  1.00  0.00    -0.095 A  
HETATM   19  C   UNL     1      -6.707   8.659  72.928  1.00  0.00    -0.023 A  
HETATM   20 CL   UNL     1      -7.713   4.954  73.980  1.00  0.00    -0.097 Cl 
HETATM   21  C   UNL     1      -6.795   7.419  73.568  1.00  0.00    -0.070 A  
BRANCH  17  22
HETATM   22  S   UNL     1      -9.372   5.397  71.174  1.00  0.00    -0.153 S  
HETATM   23  O   UNL     1     -10.184   4.830  72.226  1.00  0.00    -0.181 OA 
HETATM   24  N   UNL     1     -10.448   6.280  70.238  1.00  0.00    -0.206 N  
HETATM   25  H1  UNL     1     -11.059   5.567  69.838  1.00  0.00     0.000 HD 
HETATM   26  O   UNL     1      -8.600   4.569  70.278  1.00  0.00    -0.076 OA 
HETATM   27  H2  UNL     1     -10.482   7.290  70.100  1.00  0.00     0.000 HD 
ENDBRANCH  17  22
ENDBRANCH  12  15
ENDBRANCH  10  11
TORSDOF 3
ENDMDL
MODEL      215
REMARK 921   NORMALIZED FREE ENERGY PREDICTED BY IDOCK:   61.71 KCAL/MOL
REMARK 922        TOTAL FREE ENERGY PREDICTED BY IDOCK:   71.87 KCAL/MOL
REMARK 923 INTER-LIGAND FREE ENERGY PREDICTED BY IDOCK:   72.18 KCAL/MOL
REMARK 924 INTRA-LIGAND FREE ENERGY PREDICTED BY IDOCK:   -0.31 KCAL/MOL
REMARK 927      BINDING AFFINITY PREDICTED BY RF-SCORE:    0.00 PKD
ROOT
HETATM    1  C   UNL     1      -9.607  15.417  68.395  1.00  0.00    -0.200 C  
HETATM    2  C   UNL     1      -8.509  15.954  69.312  1.00  0.00    -0.242 A  
HETATM    3  C   UNL     1      -8.946  17.274  70.006  1.00  0.00     1.908 A  
HETATM    4  C   UNL     1      -8.965  16.897  71.456  1.00  0.00     8.723 A  
HETATM    5  C   UNL     1      -9.289  17.699  72.538  1.00  0.00    12.791 A  
HETATM    6  C   UNL     1      -9.218  17.140  73.814  1.00  0.00    15.915 A  
HETATM    7  C   UNL     1      -8.846  15.797  73.982  1.00  0.00    15.859 A  
HETATM    8  C   UNL     1      -8.513  15.004  72.875  1.00  0.00     8.797 A  
HETATM    9  C   UNL     1      -8.551  15.571  71.611  1.00  0.00     5.424 A  
HETATM   10  N   UNL     1      -8.144  15.018  70.391  1.00  0.00     0.717 NA 
ENDROOT
BRANCH  10  11
HETATM   11  N   UNL     1      -8.122  13.647  70.223  1.00  0.00     1.737 N  
HETATM   12  C   UNL     1      -6.946  12.973  70.532  1.00  0.00     1.678 C  
HETATM   13  H   UNL     1      -8.943  13.145  69.883  1.00  0.00     0.000 HD 
HETATM   14  O   UNL     1      -5.955  13.471  71.056  1.00  0.00    -0.170 OA 
BRANCH  12  15
HETATM   15  C   UNL     1      -6.890  11.555  70.079  1.00  0.00     0.204 A  
HETATM   16  C   UNL     1      -8.017  11.008  69.450  1.00  0.00     0.036 A  
HETATM   17  C   UNL     1      -8.052   9.639  69.133  1.00  0.00    -0.104 A  
HETATM   18  C   UNL     1      -6.953   8.825  69.421  1.00  0.00    -0.053 A  
HETATM   19  C   UNL     1      -5.769  10.754  70.309  1.00  0.00    -0.092 A  
HETATM   20 CL   UNL     1      -6.910   7.121  69.149  1.00  0.00    -0.059 Cl 
HETATM   21  C   UNL     1      -5.805   9.394  69.986  1.00  0.00    -0.035 A  
BRANCH  17  22
HETATM   22  S   UNL     1      -9.529   8.979  68.430  1.00  0.00    -0.147 S  
HETATM   23  O   UNL     1      -9.184   8.178  67.278  1.00  0.00    -0.134 OA 
HETATM   24  N   UNL     1     -10.051   7.871  69.575  1.00  0.00    -0.190 N  
HETATM   25  H1  UNL     1     -10.905   7.490  69.169  1.00  0.00     0.000 HD 
HETATM   26  O   UNL     1     -10.520  10.026  68.359  1.00  0.00    -0.185 OA 
HETATM   27  H2  UNL     1      -9.618   7.635  70.468  1.00  0.00     0.000 HD 
ENDBRANCH  17  22
ENDBRANCH  12  15
ENDBRANCH  10  11
TORSDOF 3
ENDMDL
